MODEL 1
REMARK VINA RESULT:      -7.9      0.000      0.000
REMARK  Name = 
REMARK  5 active torsions:
REMARK  status: ('A' for Active; 'I' for Inactive)
REMARK    1  A    between atoms: C_1  and  C_2
REMARK    2  A    between atoms: C_5  and  N_6
REMARK    3  A    between atoms: C_9  and  C_10
REMARK    4  A    between atoms: N_12  and  C_13
REMARK    5  A    between atoms: C_13  and  C_14
REMARK                            x       y       z     vdW  Elec       q    Type
REMARK                         _______ _______ _______ _____ _____    ______ ____
ROOT
ATOM      1  N   UNL     1       2.119   5.928  20.587  0.00  0.00    +0.000 N 
ATOM      2  C   UNL     1       3.107   5.115  20.136  0.00  0.00    +0.000 A 
ATOM      3  N   UNL     1       4.226   5.478  19.543  0.00  0.00    +0.000 NA
ATOM      4  C   UNL     1       4.924   4.370  19.073  0.00  0.00    +0.000 A 
ATOM      5  C   UNL     1       4.334   3.157  19.380  0.00  0.00    +0.000 A 
ATOM      6  S   UNL     1       2.909   3.403  20.289  0.00  0.00    +0.000 S 
ATOM      7  H   UNL     1       1.313   5.466  20.991  0.00  0.00    +0.000 HD
ENDROOT
BRANCH   1  12
ATOM      8  C   UNL     1       0.889  11.226  18.754  0.00  0.00    +0.000 C 
ATOM      9  C   UNL     1       1.198   9.844  19.239  0.00  0.00    +0.000 A 
ATOM     10  C   UNL     1       0.897   9.439  20.540  0.00  0.00    +0.000 A 
ATOM     11  C   UNL     1       1.223   8.147  20.974  0.00  0.00    +0.000 A 
ATOM     12  C   UNL     1       1.844   7.229  20.115  0.00  0.00    +0.000 A 
ATOM     13  C   UNL     1       2.143   7.655  18.816  0.00  0.00    +0.000 A 
ATOM     14  C   UNL     1       1.821   8.939  18.378  0.00  0.00    +0.000 A 
ENDBRANCH   1  12
BRANCH   4  15
ATOM     15  C   UNL     1       6.160   4.490  18.308  0.00  0.00    +0.000 C 
ATOM     16  O   UNL     1       7.230   4.804  18.822  0.00  0.00    +0.000 OA
ATOM     17  N   UNL     1       6.023   4.235  16.956  0.00  0.00    +0.000 N 
ATOM     18  H   UNL     1       5.089   4.049  16.601  0.00  0.00    +0.000 HD
BRANCH  17  19
ATOM     19  C   UNL     1       7.137   4.324  16.029  0.00  0.00    +0.000 C 
BRANCH  19  20
ATOM     20  C   UNL     1       6.709   4.816  14.649  0.00  0.00    +0.000 C 
ATOM     21  C   UNL     1       6.300   3.703  13.697  0.00  0.00    +0.000 C 
ATOM     22  C   UNL     1       6.651   4.282  12.351  0.00  0.00    +0.000 C 
ATOM     23  C   UNL     1       7.891   5.093  12.655  0.00  0.00    +0.000 C 
ATOM     24  O   UNL     1       7.789   5.533  14.016  0.00  0.00    +0.000 OA
ENDBRANCH  19  20
ENDBRANCH  17  19
ENDBRANCH   4  15
TORSDOF 4
ENDMDL
MODEL 2
REMARK VINA RESULT:      -7.7      3.358      7.126
REMARK  Name = 
REMARK  5 active torsions:
REMARK  status: ('A' for Active; 'I' for Inactive)
REMARK    1  A    between atoms: C_1  and  C_2
REMARK    2  A    between atoms: C_5  and  N_6
REMARK    3  A    between atoms: C_9  and  C_10
REMARK    4  A    between atoms: N_12  and  C_13
REMARK    5  A    between atoms: C_13  and  C_14
REMARK                            x       y       z     vdW  Elec       q    Type
REMARK                         _______ _______ _______ _____ _____    ______ ____
ROOT
ATOM      1  N   UNL     1       6.028   3.973  18.396  0.00  0.00    +0.000 N 
ATOM      2  C   UNL     1       4.856   3.731  19.034  0.00  0.00    +0.000 A 
ATOM      3  N   UNL     1       3.855   4.572  19.202  0.00  0.00    +0.000 NA
ATOM      4  C   UNL     1       2.886   4.033  20.042  0.00  0.00    +0.000 A 
ATOM      5  C   UNL     1       3.151   2.738  20.455  0.00  0.00    +0.000 A 
ATOM      6  S   UNL     1       4.610   2.181  19.763  0.00  0.00    +0.000 S 
ATOM      7  H   UNL     1       6.697   3.211  18.393  0.00  0.00    +0.000 HD
ENDROOT
BRANCH   1  12
ATOM      8  C   UNL     1       8.462   9.135  17.782  0.00  0.00    +0.000 C 
ATOM      9  C   UNL     1       7.828   7.789  17.956  0.00  0.00    +0.000 A 
ATOM     10  C   UNL     1       8.285   6.881  18.913  0.00  0.00    +0.000 A 
ATOM     11  C   UNL     1       7.690   5.619  19.034  0.00  0.00    +0.000 A 
ATOM     12  C   UNL     1       6.619   5.241  18.211  0.00  0.00    +0.000 A 
ATOM     13  C   UNL     1       6.179   6.162  17.254  0.00  0.00    +0.000 A 
ATOM     14  C   UNL     1       6.767   7.420  17.130  0.00  0.00    +0.000 A 
ENDBRANCH   1  12
BRANCH   4  15
ATOM     15  C   UNL     1       1.706   4.782  20.460  0.00  0.00    +0.000 C 
ATOM     16  O   UNL     1       0.591   4.274  20.533  0.00  0.00    +0.000 OA
ATOM     17  N   UNL     1       1.947   6.112  20.750  0.00  0.00    +0.000 N 
ATOM     18  H   UNL     1       2.886   6.469  20.597  0.00  0.00    +0.000 HD
BRANCH  17  19
ATOM     19  C   UNL     1       0.893   7.022  21.162  0.00  0.00    +0.000 C 
BRANCH  19  20
ATOM     20  C   UNL     1       1.323   8.484  21.083  0.00  0.00    +0.000 C 
ATOM     21  C   UNL     1       0.434   9.432  21.871  0.00  0.00    +0.000 C 
ATOM     22  C   UNL     1       0.557  10.717  21.092  0.00  0.00    +0.000 C 
ATOM     23  C   UNL     1       0.681  10.226  19.667  0.00  0.00    +0.000 C 
ATOM     24  O   UNL     1       1.309   8.937  19.713  0.00  0.00    +0.000 OA
ENDBRANCH  19  20
ENDBRANCH  17  19
ENDBRANCH   4  15
TORSDOF 4
ENDMDL
MODEL 3
REMARK VINA RESULT:      -7.6      3.427      7.198
REMARK  Name = 
REMARK  5 active torsions:
REMARK  status: ('A' for Active; 'I' for Inactive)
REMARK    1  A    between atoms: C_1  and  C_2
REMARK    2  A    between atoms: C_5  and  N_6
REMARK    3  A    between atoms: C_9  and  C_10
REMARK    4  A    between atoms: N_12  and  C_13
REMARK    5  A    between atoms: C_13  and  C_14
REMARK                            x       y       z     vdW  Elec       q    Type
REMARK                         _______ _______ _______ _____ _____    ______ ____
ROOT
ATOM      1  N   UNL     1       6.043   4.031  18.497  0.00  0.00    +0.000 N 
ATOM      2  C   UNL     1       4.855   3.780  19.101  0.00  0.00    +0.000 A 
ATOM      3  N   UNL     1       3.854   4.621  19.265  0.00  0.00    +0.000 NA
ATOM      4  C   UNL     1       2.863   4.067  20.070  0.00  0.00    +0.000 A 
ATOM      5  C   UNL     1       3.114   2.763  20.459  0.00  0.00    +0.000 A 
ATOM      6  S   UNL     1       4.586   2.214  19.789  0.00  0.00    +0.000 S 
ATOM      7  H   UNL     1       6.709   3.267  18.492  0.00  0.00    +0.000 HD
ENDROOT
BRANCH   1  12
ATOM      8  C   UNL     1       8.447   9.194  17.783  0.00  0.00    +0.000 C 
ATOM      9  C   UNL     1       7.819   7.846  17.955  0.00  0.00    +0.000 A 
ATOM     10  C   UNL     1       6.730   7.440  17.182  0.00  0.00    +0.000 A 
ATOM     11  C   UNL     1       6.145   6.183  17.385  0.00  0.00    +0.000 A 
ATOM     12  C   UNL     1       6.643   5.301  18.355  0.00  0.00    +0.000 A 
ATOM     13  C   UNL     1       7.730   5.728  19.124  0.00  0.00    +0.000 A 
ATOM     14  C   UNL     1       8.317   6.977  18.927  0.00  0.00    +0.000 A 
ENDBRANCH   1  12
BRANCH   4  15
ATOM     15  C   UNL     1       1.677   4.811  20.477  0.00  0.00    +0.000 C 
ATOM     16  O   UNL     1       0.561   4.303  20.529  0.00  0.00    +0.000 OA
ATOM     17  N   UNL     1       1.912   6.139  20.783  0.00  0.00    +0.000 N 
ATOM     18  H   UNL     1       2.853   6.498  20.647  0.00  0.00    +0.000 HD
BRANCH  17  19
ATOM     19  C   UNL     1       0.852   7.044  21.188  0.00  0.00    +0.000 C 
BRANCH  19  20
ATOM     20  C   UNL     1       1.300   8.503  21.185  0.00  0.00    +0.000 C 
ATOM     21  C   UNL     1       0.438   9.415  22.043  0.00  0.00    +0.000 C 
ATOM     22  C   UNL     1       0.564  10.741  21.337  0.00  0.00    +0.000 C 
ATOM     23  C   UNL     1       0.655  10.332  19.884  0.00  0.00    +0.000 C 
ATOM     24  O   UNL     1       1.266   9.035  19.843  0.00  0.00    +0.000 OA
ENDBRANCH  19  20
ENDBRANCH  17  19
ENDBRANCH   4  15
TORSDOF 4
ENDMDL
MODEL 4
REMARK VINA RESULT:      -7.6      0.124      1.030
REMARK  Name = 
REMARK  5 active torsions:
REMARK  status: ('A' for Active; 'I' for Inactive)
REMARK    1  A    between atoms: C_1  and  C_2
REMARK    2  A    between atoms: C_5  and  N_6
REMARK    3  A    between atoms: C_9  and  C_10
REMARK    4  A    between atoms: N_12  and  C_13
REMARK    5  A    between atoms: C_13  and  C_14
REMARK                            x       y       z     vdW  Elec       q    Type
REMARK                         _______ _______ _______ _____ _____    ______ ____
ROOT
ATOM      1  N   UNL     1       2.080   5.928  20.648  0.00  0.00    +0.000 N 
ATOM      2  C   UNL     1       3.084   5.137  20.194  0.00  0.00    +0.000 A 
ATOM      3  N   UNL     1       4.194   5.525  19.600  0.00  0.00    +0.000 NA
ATOM      4  C   UNL     1       4.916   4.434  19.126  0.00  0.00    +0.000 A 
ATOM      5  C   UNL     1       4.352   3.207  19.432  0.00  0.00    +0.000 A 
ATOM      6  S   UNL     1       2.924   3.420  20.345  0.00  0.00    +0.000 S 
ATOM      7  H   UNL     1       1.285   5.447  21.052  0.00  0.00    +0.000 HD
ENDROOT
BRANCH   1  12
ATOM      8  C   UNL     1       0.952  11.189  18.649  0.00  0.00    +0.000 C 
ATOM      9  C   UNL     1       1.259   9.816  19.164  0.00  0.00    +0.000 A 
ATOM     10  C   UNL     1       1.845   8.843  18.353  0.00  0.00    +0.000 A 
ATOM     11  C   UNL     1       2.094   7.559  18.855  0.00  0.00    +0.000 A 
ATOM     12  C   UNL     1       1.775   7.223  20.178  0.00  0.00    +0.000 A 
ATOM     13  C   UNL     1       1.183   8.210  20.974  0.00  0.00    +0.000 A 
ATOM     14  C   UNL     1       0.933   9.490  20.481  0.00  0.00    +0.000 A 
ENDBRANCH   1  12
BRANCH   4  15
ATOM     15  C   UNL     1       6.147   4.582  18.360  0.00  0.00    +0.000 C 
ATOM     16  O   UNL     1       7.174   5.054  18.839  0.00  0.00    +0.000 OA
ATOM     17  N   UNL     1       6.057   4.160  17.046  0.00  0.00    +0.000 N 
ATOM     18  H   UNL     1       5.151   3.845  16.710  0.00  0.00    +0.000 HD
BRANCH  17  19
ATOM     19  C   UNL     1       7.173   4.247  16.122  0.00  0.00    +0.000 C 
BRANCH  19  20
ATOM     20  C   UNL     1       6.767   4.836  14.773  0.00  0.00    +0.000 C 
ATOM     21  C   UNL     1       6.205   3.814  13.798  0.00  0.00    +0.000 C 
ATOM     22  C   UNL     1       6.584   4.398  12.461  0.00  0.00    +0.000 C 
ATOM     23  C   UNL     1       7.918   5.047  12.752  0.00  0.00    +0.000 C 
ATOM     24  O   UNL     1       7.907   5.446  14.130  0.00  0.00    +0.000 OA
ENDBRANCH  19  20
ENDBRANCH  17  19
ENDBRANCH   4  15
TORSDOF 4
ENDMDL
MODEL 5
REMARK VINA RESULT:      -7.6      4.016      7.390
REMARK  Name = 
REMARK  5 active torsions:
REMARK  status: ('A' for Active; 'I' for Inactive)
REMARK    1  A    between atoms: C_1  and  C_2
REMARK    2  A    between atoms: C_5  and  N_6
REMARK    3  A    between atoms: C_9  and  C_10
REMARK    4  A    between atoms: N_12  and  C_13
REMARK    5  A    between atoms: C_13  and  C_14
REMARK                            x       y       z     vdW  Elec       q    Type
REMARK                         _______ _______ _______ _____ _____    ______ ____
ROOT
ATOM      1  N   UNL     1       7.541   5.534  15.198  0.00  0.00    +0.000 N 
ATOM      2  C   UNL     1       7.124   5.593  16.488  0.00  0.00    +0.000 A 
ATOM      3  N   UNL     1       6.378   4.713  17.123  0.00  0.00    +0.000 NA
ATOM      4  C   UNL     1       6.015   5.180  18.382  0.00  0.00    +0.000 A 
ATOM      5  C   UNL     1       6.558   6.411  18.706  0.00  0.00    +0.000 A 
ATOM      6  S   UNL     1       7.554   6.975  17.438  0.00  0.00    +0.000 S 
ATOM      7  H   UNL     1       8.086   6.322  14.871  0.00  0.00    +0.000 HD
ENDROOT
BRANCH   1  12
ATOM      8  C   UNL     1       4.885   2.554  11.074  0.00  0.00    +0.000 C 
ATOM      9  C   UNL     1       5.572   3.322  12.160  0.00  0.00    +0.000 A 
ATOM     10  C   UNL     1       4.942   3.600  13.374  0.00  0.00    +0.000 A 
ATOM     11  C   UNL     1       5.601   4.346  14.360  0.00  0.00    +0.000 A 
ATOM     12  C   UNL     1       6.906   4.819  14.161  0.00  0.00    +0.000 A 
ATOM     13  C   UNL     1       7.519   4.535  12.935  0.00  0.00    +0.000 A 
ATOM     14  C   UNL     1       6.869   3.793  11.950  0.00  0.00    +0.000 A 
ENDBRANCH   1  12
BRANCH   4  15
ATOM     15  C   UNL     1       5.125   4.438  19.268  0.00  0.00    +0.000 C 
ATOM     16  O   UNL     1       4.433   4.985  20.122  0.00  0.00    +0.000 OA
ATOM     17  N   UNL     1       5.138   3.069  19.075  0.00  0.00    +0.000 N 
ATOM     18  H   UNL     1       5.791   2.692  18.394  0.00  0.00    +0.000 HD
BRANCH  17  19
ATOM     19  C   UNL     1       4.334   2.163  19.875  0.00  0.00    +0.000 C 
BRANCH  19  20
ATOM     20  C   UNL     1       2.888   2.087  19.392  0.00  0.00    +0.000 C 
ATOM     21  C   UNL     1       2.648   2.769  18.055  0.00  0.00    +0.000 C 
ATOM     22  C   UNL     1       1.210   3.206  18.166  0.00  0.00    +0.000 C 
ATOM     23  C   UNL     1       1.083   3.548  19.633  0.00  0.00    +0.000 C 
ATOM     24  O   UNL     1       2.007   2.716  20.348  0.00  0.00    +0.000 OA
ENDBRANCH  19  20
ENDBRANCH  17  19
ENDBRANCH   4  15
TORSDOF 4
ENDMDL
MODEL 6
REMARK VINA RESULT:      -7.5      3.540      7.374
REMARK  Name = 
REMARK  5 active torsions:
REMARK  status: ('A' for Active; 'I' for Inactive)
REMARK    1  A    between atoms: C_1  and  C_2
REMARK    2  A    between atoms: C_5  and  N_6
REMARK    3  A    between atoms: C_9  and  C_10
REMARK    4  A    between atoms: N_12  and  C_13
REMARK    5  A    between atoms: C_13  and  C_14
REMARK                            x       y       z     vdW  Elec       q    Type
REMARK                         _______ _______ _______ _____ _____    ______ ____
ROOT
ATOM      1  N   UNL     1       7.486   5.464  15.360  0.00  0.00    +0.000 N 
ATOM      2  C   UNL     1       7.045   5.521  16.642  0.00  0.00    +0.000 A 
ATOM      3  N   UNL     1       6.243   4.667  17.245  0.00  0.00    +0.000 NA
ATOM      4  C   UNL     1       5.877   5.129  18.505  0.00  0.00    +0.000 A 
ATOM      5  C   UNL     1       6.471   6.327  18.863  0.00  0.00    +0.000 A 
ATOM      6  S   UNL     1       7.520   6.863  17.625  0.00  0.00    +0.000 S 
ATOM      7  H   UNL     1       8.075   6.231  15.059  0.00  0.00    +0.000 HD
ENDROOT
BRANCH   1  12
ATOM      8  C   UNL     1       4.780   2.688  11.127  0.00  0.00    +0.000 C 
ATOM      9  C   UNL     1       5.480   3.403  12.241  0.00  0.00    +0.000 A 
ATOM     10  C   UNL     1       4.842   3.679  13.451  0.00  0.00    +0.000 A 
ATOM     11  C   UNL     1       5.514   4.375  14.465  0.00  0.00    +0.000 A 
ATOM     12  C   UNL     1       6.840   4.799  14.296  0.00  0.00    +0.000 A 
ATOM     13  C   UNL     1       7.461   4.519  13.074  0.00  0.00    +0.000 A 
ATOM     14  C   UNL     1       6.798   3.826  12.062  0.00  0.00    +0.000 A 
ENDBRANCH   1  12
BRANCH   4  15
ATOM     15  C   UNL     1       4.933   4.416  19.357  0.00  0.00    +0.000 C 
ATOM     16  O   UNL     1       5.003   3.207  19.557  0.00  0.00    +0.000 OA
ATOM     17  N   UNL     1       3.945   5.212  19.908  0.00  0.00    +0.000 N 
ATOM     18  H   UNL     1       3.919   6.191  19.636  0.00  0.00    +0.000 HD
BRANCH  17  19
ATOM     19  C   UNL     1       2.904   4.678  20.767  0.00  0.00    +0.000 C 
BRANCH  19  20
ATOM     20  C   UNL     1       1.681   4.215  19.980  0.00  0.00    +0.000 C 
ATOM     21  C   UNL     1       1.468   2.710  20.000  0.00  0.00    +0.000 C 
ATOM     22  C   UNL     1       0.782   2.461  18.682  0.00  0.00    +0.000 C 
ATOM     23  C   UNL     1       1.428   3.486  17.776  0.00  0.00    +0.000 C 
ATOM     24  O   UNL     1       1.802   4.603  18.594  0.00  0.00    +0.000 OA
ENDBRANCH  19  20
ENDBRANCH  17  19
ENDBRANCH   4  15
TORSDOF 4
ENDMDL
MODEL 7
REMARK VINA RESULT:      -7.5      4.021      7.469
REMARK  Name = 
REMARK  5 active torsions:
REMARK  status: ('A' for Active; 'I' for Inactive)
REMARK    1  A    between atoms: C_1  and  C_2
REMARK    2  A    between atoms: C_5  and  N_6
REMARK    3  A    between atoms: C_9  and  C_10
REMARK    4  A    between atoms: N_12  and  C_13
REMARK    5  A    between atoms: C_13  and  C_14
REMARK                            x       y       z     vdW  Elec       q    Type
REMARK                         _______ _______ _______ _____ _____    ______ ____
ROOT
ATOM      1  N   UNL     1       7.486   5.455  15.217  0.00  0.00    +0.000 N 
ATOM      2  C   UNL     1       7.086   5.539  16.511  0.00  0.00    +0.000 A 
ATOM      3  N   UNL     1       6.337   4.677  17.168  0.00  0.00    +0.000 NA
ATOM      4  C   UNL     1       5.996   5.168  18.424  0.00  0.00    +0.000 A 
ATOM      5  C   UNL     1       6.559   6.396  18.724  0.00  0.00    +0.000 A 
ATOM      6  S   UNL     1       7.546   6.928  17.434  0.00  0.00    +0.000 S 
ATOM      7  H   UNL     1       8.036   6.232  14.871  0.00  0.00    +0.000 HD
ENDROOT
BRANCH   1  12
ATOM      8  C   UNL     1       4.884   2.595  10.974  0.00  0.00    +0.000 C 
ATOM      9  C   UNL     1       5.568   3.350  12.072  0.00  0.00    +0.000 A 
ATOM     10  C   UNL     1       6.869   3.836  11.928  0.00  0.00    +0.000 A 
ATOM     11  C   UNL     1       7.493   4.515  12.982  0.00  0.00    +0.000 A 
ATOM     12  C   UNL     1       6.828   4.734  14.198  0.00  0.00    +0.000 A 
ATOM     13  C   UNL     1       5.527   4.235  14.325  0.00  0.00    +0.000 A 
ATOM     14  C   UNL     1       4.901   3.559  13.279  0.00  0.00    +0.000 A 
ENDBRANCH   1  12
BRANCH   4  15
ATOM     15  C   UNL     1       5.108   4.450  19.332  0.00  0.00    +0.000 C 
ATOM     16  O   UNL     1       4.410   5.021  20.165  0.00  0.00    +0.000 OA
ATOM     17  N   UNL     1       5.130   3.076  19.186  0.00  0.00    +0.000 N 
ATOM     18  H   UNL     1       5.788   2.680  18.519  0.00  0.00    +0.000 HD
BRANCH  17  19
ATOM     19  C   UNL     1       4.329   2.192  20.013  0.00  0.00    +0.000 C 
BRANCH  19  20
ATOM     20  C   UNL     1       2.889   2.079  19.520  0.00  0.00    +0.000 C 
ATOM     21  C   UNL     1       2.653   2.707  18.156  0.00  0.00    +0.000 C 
ATOM     22  C   UNL     1       1.209   3.129  18.238  0.00  0.00    +0.000 C 
ATOM     23  C   UNL     1       1.064   3.526  19.690  0.00  0.00    +0.000 C 
ATOM     24  O   UNL     1       1.992   2.733  20.443  0.00  0.00    +0.000 OA
ENDBRANCH  19  20
ENDBRANCH  17  19
ENDBRANCH   4  15
TORSDOF 4
ENDMDL
MODEL 8
REMARK VINA RESULT:      -7.4      3.778      7.630
REMARK  Name = 
REMARK  5 active torsions:
REMARK  status: ('A' for Active; 'I' for Inactive)
REMARK    1  A    between atoms: C_1  and  C_2
REMARK    2  A    between atoms: C_5  and  N_6
REMARK    3  A    between atoms: C_9  and  C_10
REMARK    4  A    between atoms: N_12  and  C_13
REMARK    5  A    between atoms: C_13  and  C_14
REMARK                            x       y       z     vdW  Elec       q    Type
REMARK                         _______ _______ _______ _____ _____    ______ ____
ROOT
ATOM      1  N   UNL     1       7.294   5.525  15.374  0.00  0.00    +0.000 N 
ATOM      2  C   UNL     1       6.849   5.324  16.640  0.00  0.00    +0.000 A 
ATOM      3  N   UNL     1       6.274   4.240  17.117  0.00  0.00    +0.000 NA
ATOM      4  C   UNL     1       5.804   4.450  18.410  0.00  0.00    +0.000 A 
ATOM      5  C   UNL     1       6.094   5.704  18.920  0.00  0.00    +0.000 A 
ATOM      6  S   UNL     1       6.987   6.615  17.784  0.00  0.00    +0.000 S 
ATOM      7  H   UNL     1       7.684   6.440  15.181  0.00  0.00    +0.000 HD
ENDROOT
BRANCH   1  12
ATOM      8  C   UNL     1       5.327   2.716  10.772  0.00  0.00    +0.000 C 
ATOM      9  C   UNL     1       5.835   3.439  11.981  0.00  0.00    +0.000 A 
ATOM     10  C   UNL     1       5.079   3.534  13.151  0.00  0.00    +0.000 A 
ATOM     11  C   UNL     1       5.569   4.240  14.257  0.00  0.00    +0.000 A 
ATOM     12  C   UNL     1       6.829   4.856  14.223  0.00  0.00    +0.000 A 
ATOM     13  C   UNL     1       7.569   4.755  13.040  0.00  0.00    +0.000 A 
ATOM     14  C   UNL     1       7.087   4.053  11.936  0.00  0.00    +0.000 A 
ENDBRANCH   1  12
BRANCH   4  15
ATOM     15  C   UNL     1       5.056   3.438  19.146  0.00  0.00    +0.000 C 
ATOM     16  O   UNL     1       5.253   3.203  20.335  0.00  0.00    +0.000 OA
ATOM     17  N   UNL     1       4.119   2.756  18.391  0.00  0.00    +0.000 N 
ATOM     18  H   UNL     1       4.068   2.965  17.398  0.00  0.00    +0.000 HD
BRANCH  17  19
ATOM     19  C   UNL     1       3.293   1.699  18.945  0.00  0.00    +0.000 C 
BRANCH  19  20
ATOM     20  C   UNL     1       2.039   2.238  19.628  0.00  0.00    +0.000 C 
ATOM     21  C   UNL     1       1.586   3.592  19.107  0.00  0.00    +0.000 C 
ATOM     22  C   UNL     1       0.914   4.197  20.312  0.00  0.00    +0.000 C 
ATOM     23  C   UNL     1       1.747   3.663  21.455  0.00  0.00    +0.000 C 
ATOM     24  O   UNL     1       2.268   2.390  21.046  0.00  0.00    +0.000 OA
ENDBRANCH  19  20
ENDBRANCH  17  19
ENDBRANCH   4  15
TORSDOF 4
ENDMDL
MODEL 9
REMARK VINA RESULT:      -7.3      2.815      8.312
REMARK  Name = 
REMARK  5 active torsions:
REMARK  status: ('A' for Active; 'I' for Inactive)
REMARK    1  A    between atoms: C_1  and  C_2
REMARK    2  A    between atoms: C_5  and  N_6
REMARK    3  A    between atoms: C_9  and  C_10
REMARK    4  A    between atoms: N_12  and  C_13
REMARK    5  A    between atoms: C_13  and  C_14
REMARK                            x       y       z     vdW  Elec       q    Type
REMARK                         _______ _______ _______ _____ _____    ______ ____
ROOT
ATOM      1  N   UNL     1       4.761   3.564  17.237  0.00  0.00    +0.000 N 
ATOM      2  C   UNL     1       4.019   4.389  18.019  0.00  0.00    +0.000 A 
ATOM      3  N   UNL     1       3.509   5.556  17.682  0.00  0.00    +0.000 NA
ATOM      4  C   UNL     1       2.947   6.192  18.784  0.00  0.00    +0.000 A 
ATOM      5  C   UNL     1       2.991   5.448  19.950  0.00  0.00    +0.000 A 
ATOM      6  S   UNL     1       3.715   3.928  19.659  0.00  0.00    +0.000 S 
ATOM      7  H   UNL     1       5.096   2.716  17.680  0.00  0.00    +0.000 HD
ENDROOT
BRANCH   1  12
ATOM      8  C   UNL     1       7.935   5.279  12.773  0.00  0.00    +0.000 C 
ATOM      9  C   UNL     1       7.109   4.844  13.944  0.00  0.00    +0.000 A 
ATOM     10  C   UNL     1       7.515   5.087  15.258  0.00  0.00    +0.000 A 
ATOM     11  C   UNL     1       6.735   4.643  16.334  0.00  0.00    +0.000 A 
ATOM     12  C   UNL     1       5.530   3.959  16.121  0.00  0.00    +0.000 A 
ATOM     13  C   UNL     1       5.143   3.719  14.798  0.00  0.00    +0.000 A 
ATOM     14  C   UNL     1       5.914   4.159  13.723  0.00  0.00    +0.000 A 
ENDBRANCH   1  12
BRANCH   4  15
ATOM     15  C   UNL     1       2.380   7.533  18.709  0.00  0.00    +0.000 C 
ATOM     16  O   UNL     1       2.455   8.230  17.701  0.00  0.00    +0.000 OA
ATOM     17  N   UNL     1       1.765   7.960  19.872  0.00  0.00    +0.000 N 
ATOM     18  H   UNL     1       1.807   7.348  20.683  0.00  0.00    +0.000 HD
BRANCH  17  19
ATOM     19  C   UNL     1       1.161   9.274  19.997  0.00  0.00    +0.000 C 
BRANCH  19  20
ATOM     20  C   UNL     1       0.927   9.671  21.452  0.00  0.00    +0.000 C 
ATOM     21  C   UNL     1      -0.248   8.961  22.104  0.00  0.00    +0.000 C 
ATOM     22  C   UNL     1      -0.712   9.969  23.124  0.00  0.00    +0.000 C 
ATOM     23  C   UNL     1      -0.449  11.285  22.428  0.00  0.00    +0.000 C 
ATOM     24  O   UNL     1       0.667  11.088  21.548  0.00  0.00    +0.000 OA
ENDBRANCH  19  20
ENDBRANCH  17  19
ENDBRANCH   4  15
TORSDOF 4
ENDMDL
