MODEL 1
REMARK VINA RESULT:      -6.8      0.000      0.000
REMARK  Name = 
REMARK  7 active torsions:
REMARK  status: ('A' for Active; 'I' for Inactive)
REMARK    1  A    between atoms: C_6  and  C_7
REMARK    2  A    between atoms: C_6  and  C_8
REMARK    3  A    between atoms: N_13  and  C_14
REMARK    4  A    between atoms: C_20  and  C_21
REMARK    5  A    between atoms: C_22  and  C_23
REMARK    6  A    between atoms: C_23  and  C_24
REMARK    7  A    between atoms: C_24  and  C_25
REMARK                            x       y       z     vdW  Elec       q    Type
REMARK                         _______ _______ _______ _____ _____    ______ ____
ROOT
ATOM      1  C   UNL     1       0.964   6.863  20.586  0.00  0.00    +0.000 C 
ATOM      2  C   UNL     1       1.336   8.156  20.620  0.00  0.00    +0.000 C 
ATOM      3  C   UNL     1       1.098   8.933  21.886  0.00  0.00    +0.000 C 
ATOM      4  C   UNL     1       0.165  10.117  21.615  0.00  0.00    +0.000 C 
ATOM      5  C   UNL     1       0.812  11.032  20.566  0.00  0.00    +0.000 C 
ATOM      6  C   UNL     1       0.233  12.497  20.497  0.00  0.00    +0.000 C 
ATOM      7  C   UNL     1      -1.179  12.537  19.843  0.00  0.00    +0.000 C 
ATOM      8  C   UNL     1       1.182  13.332  19.615  0.00  0.00    +0.000 C 
ATOM      9  C   UNL     1       1.353  12.735  18.227  0.00  0.00    +0.000 C 
ATOM     10  C   UNL     1       1.706  11.249  18.201  0.00  0.00    +0.000 C 
ATOM     11  C   UNL     1       1.006  10.268  19.188  0.00  0.00    +0.000 C 
ATOM     12  C   UNL     1      -0.319   9.716  18.591  0.00  0.00    +0.000 C 
ATOM     13  C   UNL     1       1.937   8.975  19.446  0.00  0.00    +0.000 C 
ENDROOT
BRANCH   6  14
ATOM     14  C   UNL     1       0.030  13.244  21.869  0.00  0.00    +0.000 C 
ATOM     15  O   UNL     1       0.938  13.981  22.285  0.00  0.00    +0.000 OA
ATOM     16  N   UNL     1      -1.096  13.119  22.654  0.00  0.00    +0.000 N 
ATOM     17  C   UNL     1      -1.328  14.129  23.699  0.00  0.00    +0.000 C 
ATOM     18  C   UNL     1      -2.793  14.627  23.694  0.00  0.00    +0.000 C 
ATOM     19  N   UNL     1      -3.836  13.578  23.639  0.00  0.00    +0.000 NA
ATOM     20  C   UNL     1      -4.061  12.951  24.935  0.00  0.00    +0.000 C 
ATOM     21  C   UNL     1      -3.493  12.574  22.613  0.00  0.00    +0.000 C 
ATOM     22  C   UNL     1      -2.057  12.024  22.713  0.00  0.00    +0.000 C 
ENDBRANCH   6  14
BRANCH  13  23
ATOM     23  C   UNL     1       2.208   8.055  18.210  0.00  0.00    +0.000 C 
BRANCH  23  24
ATOM     24  C   UNL     1       3.614   7.480  18.020  0.00  0.00    +0.000 C 
BRANCH  24  25
ATOM     25  C   UNL     1       3.678   6.027  18.359  0.00  0.00    +0.000 A 
ATOM     26  C   UNL     1       2.833   4.999  17.844  0.00  0.00    +0.000 A 
ATOM     27  C   UNL     1       3.273   3.825  18.403  0.00  0.00    +0.000 A 
ATOM     28  O   UNL     1       4.329   4.055  19.222  0.00  0.00    +0.000 OA
ATOM     29  C   UNL     1       4.568   5.389  19.189  0.00  0.00    +0.000 A 
ENDBRANCH  24  25
ENDBRANCH  23  24
ENDBRANCH  13  23
TORSDOF 4
ENDMDL
MODEL 2
REMARK VINA RESULT:      -6.6      2.424      3.972
REMARK  Name = 
REMARK  7 active torsions:
REMARK  status: ('A' for Active; 'I' for Inactive)
REMARK    1  A    between atoms: C_6  and  C_7
REMARK    2  A    between atoms: C_6  and  C_8
REMARK    3  A    between atoms: N_13  and  C_14
REMARK    4  A    between atoms: C_20  and  C_21
REMARK    5  A    between atoms: C_22  and  C_23
REMARK    6  A    between atoms: C_23  and  C_24
REMARK    7  A    between atoms: C_24  and  C_25
REMARK                            x       y       z     vdW  Elec       q    Type
REMARK                         _______ _______ _______ _____ _____    ______ ____
ROOT
ATOM      1  C   UNL     1       0.646   9.746  17.840  0.00  0.00    +0.000 C 
ATOM      2  C   UNL     1      -0.327   9.954  18.746  0.00  0.00    +0.000 C 
ATOM      3  C   UNL     1      -1.654  10.471  18.260  0.00  0.00    +0.000 C 
ATOM      4  C   UNL     1      -1.967  11.822  18.909  0.00  0.00    +0.000 C 
ATOM      5  C   UNL     1      -2.014  11.645  20.434  0.00  0.00    +0.000 C 
ATOM      6  C   UNL     1      -2.753  12.790  21.226  0.00  0.00    +0.000 C 
ATOM      7  C   UNL     1      -1.914  14.100  21.278  0.00  0.00    +0.000 C 
ATOM      8  C   UNL     1      -2.951  12.301  22.675  0.00  0.00    +0.000 C 
ATOM      9  C   UNL     1      -1.636  11.924  23.340  0.00  0.00    +0.000 C 
ATOM     10  C   UNL     1      -0.751  10.977  22.532  0.00  0.00    +0.000 C 
ATOM     11  C   UNL     1      -0.604  11.175  20.993  0.00  0.00    +0.000 C 
ATOM     12  C   UNL     1       0.556  12.156  20.660  0.00  0.00    +0.000 C 
ATOM     13  C   UNL     1      -0.210   9.781  20.284  0.00  0.00    +0.000 C 
ENDROOT
BRANCH   6  14
ATOM     14  C   UNL     1      -4.145  13.260  20.657  0.00  0.00    +0.000 C 
ATOM     15  O   UNL     1      -4.517  12.823  19.557  0.00  0.00    +0.000 OA
ATOM     16  N   UNL     1      -4.978  14.149  21.302  0.00  0.00    +0.000 N 
ATOM     17  C   UNL     1      -6.383  14.221  20.867  0.00  0.00    +0.000 C 
ATOM     18  C   UNL     1      -7.353  14.219  22.073  0.00  0.00    +0.000 C 
ATOM     19  N   UNL     1      -7.022  15.150  23.175  0.00  0.00    +0.000 NA
ATOM     20  C   UNL     1      -7.410  16.523  22.876  0.00  0.00    +0.000 C 
ATOM     21  C   UNL     1      -5.586  15.060  23.503  0.00  0.00    +0.000 C 
ATOM     22  C   UNL     1      -4.646  15.171  22.287  0.00  0.00    +0.000 C 
ENDBRANCH   6  14
BRANCH  13  23
ATOM     23  C   UNL     1       1.179   9.172  20.668  0.00  0.00    +0.000 C 
BRANCH  23  24
ATOM     24  C   UNL     1       1.216   7.800  21.346  0.00  0.00    +0.000 C 
BRANCH  24  25
ATOM     25  C   UNL     1       1.780   6.746  20.451  0.00  0.00    +0.000 A 
ATOM     26  C   UNL     1       2.484   6.960  19.229  0.00  0.00    +0.000 A 
ATOM     27  C   UNL     1       2.841   5.716  18.769  0.00  0.00    +0.000 A 
ATOM     28  O   UNL     1       2.409   4.753  19.620  0.00  0.00    +0.000 OA
ATOM     29  C   UNL     1       1.770   5.384  20.635  0.00  0.00    +0.000 A 
ENDBRANCH  24  25
ENDBRANCH  23  24
ENDBRANCH  13  23
TORSDOF 4
ENDMDL
MODEL 3
REMARK VINA RESULT:      -6.5      3.338      8.476
REMARK  Name = 
REMARK  7 active torsions:
REMARK  status: ('A' for Active; 'I' for Inactive)
REMARK    1  A    between atoms: C_6  and  C_7
REMARK    2  A    between atoms: C_6  and  C_8
REMARK    3  A    between atoms: N_13  and  C_14
REMARK    4  A    between atoms: C_20  and  C_21
REMARK    5  A    between atoms: C_22  and  C_23
REMARK    6  A    between atoms: C_23  and  C_24
REMARK    7  A    between atoms: C_24  and  C_25
REMARK                            x       y       z     vdW  Elec       q    Type
REMARK                         _______ _______ _______ _____ _____    ______ ____
ROOT
ATOM      1  C   UNL     1      -2.679  13.995  23.234  0.00  0.00    +0.000 C 
ATOM      2  C   UNL     1      -2.523  12.877  22.502  0.00  0.00    +0.000 C 
ATOM      3  C   UNL     1      -1.632  11.790  23.041  0.00  0.00    +0.000 C 
ATOM      4  C   UNL     1      -0.469  11.532  22.079  0.00  0.00    +0.000 C 
ATOM      5  C   UNL     1      -1.034  11.103  20.717  0.00  0.00    +0.000 C 
ATOM      6  C   UNL     1      -0.014  10.371  19.763  0.00  0.00    +0.000 C 
ATOM      7  C   UNL     1       1.031  11.354  19.160  0.00  0.00    +0.000 C 
ATOM      8  C   UNL     1      -0.820   9.769  18.594  0.00  0.00    +0.000 C 
ATOM      9  C   UNL     1      -1.625  10.822  17.847  0.00  0.00    +0.000 C 
ATOM     10  C   UNL     1      -2.483  11.726  18.729  0.00  0.00    +0.000 C 
ATOM     11  C   UNL     1      -1.916  12.258  20.079  0.00  0.00    +0.000 C 
ATOM     12  C   UNL     1      -1.144  13.593  19.879  0.00  0.00    +0.000 C 
ATOM     13  C   UNL     1      -3.121  12.603  21.096  0.00  0.00    +0.000 C 
ENDROOT
BRANCH   6  14
ATOM     14  C   UNL     1       0.868   9.236  20.405  0.00  0.00    +0.000 C 
ATOM     15  O   UNL     1       0.801   9.051  21.630  0.00  0.00    +0.000 OA
ATOM     16  N   UNL     1       1.733   8.436  19.689  0.00  0.00    +0.000 N 
ATOM     17  C   UNL     1       2.209   7.193  20.319  0.00  0.00    +0.000 C 
ATOM     18  C   UNL     1       2.124   5.993  19.346  0.00  0.00    +0.000 C 
ATOM     19  N   UNL     1       2.667   6.218  17.987  0.00  0.00    +0.000 NA
ATOM     20  C   UNL     1       4.122   6.134  17.951  0.00  0.00    +0.000 C 
ATOM     21  C   UNL     1       2.193   7.511  17.458  0.00  0.00    +0.000 C 
ATOM     22  C   UNL     1       2.389   8.702  18.416  0.00  0.00    +0.000 C 
ENDBRANCH   6  14
BRANCH  13  23
ATOM     23  C   UNL     1      -4.084  13.759  20.668  0.00  0.00    +0.000 C 
BRANCH  23  24
ATOM     24  C   UNL     1      -5.492  13.400  20.185  0.00  0.00    +0.000 C 
BRANCH  24  25
ATOM     25  C   UNL     1      -6.297  12.729  21.248  0.00  0.00    +0.000 A 
ATOM     26  C   UNL     1      -6.421  13.145  22.607  0.00  0.00    +0.000 A 
ATOM     27  C   UNL     1      -7.280  12.256  23.204  0.00  0.00    +0.000 A 
ATOM     28  O   UNL     1      -7.695  11.324  22.311  0.00  0.00    +0.000 OA
ATOM     29  C   UNL     1      -7.097  11.618  21.131  0.00  0.00    +0.000 A 
ENDBRANCH  24  25
ENDBRANCH  23  24
ENDBRANCH  13  23
TORSDOF 4
ENDMDL
MODEL 4
REMARK VINA RESULT:      -6.5      1.472      1.725
REMARK  Name = 
REMARK  7 active torsions:
REMARK  status: ('A' for Active; 'I' for Inactive)
REMARK    1  A    between atoms: C_6  and  C_7
REMARK    2  A    between atoms: C_6  and  C_8
REMARK    3  A    between atoms: N_13  and  C_14
REMARK    4  A    between atoms: C_20  and  C_21
REMARK    5  A    between atoms: C_22  and  C_23
REMARK    6  A    between atoms: C_23  and  C_24
REMARK    7  A    between atoms: C_24  and  C_25
REMARK                            x       y       z     vdW  Elec       q    Type
REMARK                         _______ _______ _______ _____ _____    ______ ____
ROOT
ATOM      1  C   UNL     1      -0.398   8.028  21.189  0.00  0.00    +0.000 C 
ATOM      2  C   UNL     1       0.305   9.175  21.152  0.00  0.00    +0.000 C 
ATOM      3  C   UNL     1       0.283  10.064  22.367  0.00  0.00    +0.000 C 
ATOM      4  C   UNL     1      -0.300  11.434  22.011  0.00  0.00    +0.000 C 
ATOM      5  C   UNL     1       0.569  12.078  20.921  0.00  0.00    +0.000 C 
ATOM      6  C   UNL     1       0.402  13.637  20.755  0.00  0.00    +0.000 C 
ATOM      7  C   UNL     1      -0.948  14.011  20.077  0.00  0.00    +0.000 C 
ATOM      8  C   UNL     1       1.540  14.133  19.841  0.00  0.00    +0.000 C 
ATOM      9  C   UNL     1       1.545  13.428  18.494  0.00  0.00    +0.000 C 
ATOM     10  C   UNL     1       1.488  11.903  18.561  0.00  0.00    +0.000 C 
ATOM     11  C   UNL     1       0.552  11.206  19.593  0.00  0.00    +0.000 C 
ATOM     12  C   UNL     1      -0.872  10.992  19.007  0.00  0.00    +0.000 C 
ATOM     13  C   UNL     1       1.103   9.730  19.943  0.00  0.00    +0.000 C 
ENDROOT
BRANCH   6  14
ATOM     14  C   UNL     1       0.405  14.494  22.077  0.00  0.00    +0.000 C 
ATOM     15  O   UNL     1       1.494  14.864  22.543  0.00  0.00    +0.000 OA
ATOM     16  N   UNL     1      -0.734  14.849  22.766  0.00  0.00    +0.000 N 
ATOM     17  C   UNL     1      -0.636  15.939  23.750  0.00  0.00    +0.000 C 
ATOM     18  C   UNL     1      -1.802  16.947  23.602  0.00  0.00    +0.000 C 
ATOM     19  N   UNL     1      -3.158  16.361  23.494  0.00  0.00    +0.000 NA
ATOM     20  C   UNL     1      -3.688  15.950  24.788  0.00  0.00    +0.000 C 
ATOM     21  C   UNL     1      -3.151  15.237  22.538  0.00  0.00    +0.000 C 
ATOM     22  C   UNL     1      -2.039  14.199  22.781  0.00  0.00    +0.000 C 
ENDBRANCH   6  14
BRANCH  13  23
ATOM     23  C   UNL     1       1.120   8.697  18.768  0.00  0.00    +0.000 C 
BRANCH  23  24
ATOM     24  C   UNL     1       2.467   8.298  18.162  0.00  0.00    +0.000 C 
BRANCH  24  25
ATOM     25  C   UNL     1       2.856   6.903  18.525  0.00  0.00    +0.000 A 
ATOM     26  C   UNL     1       2.581   6.241  19.758  0.00  0.00    +0.000 A 
ATOM     27  C   UNL     1       3.091   4.972  19.635  0.00  0.00    +0.000 A 
ATOM     28  O   UNL     1       3.658   4.805  18.415  0.00  0.00    +0.000 OA
ATOM     29  C   UNL     1       3.511   5.976  17.750  0.00  0.00    +0.000 A 
ENDBRANCH  24  25
ENDBRANCH  23  24
ENDBRANCH  13  23
TORSDOF 4
ENDMDL
MODEL 5
REMARK VINA RESULT:      -6.5      2.252      3.777
REMARK  Name = 
REMARK  7 active torsions:
REMARK  status: ('A' for Active; 'I' for Inactive)
REMARK    1  A    between atoms: C_6  and  C_7
REMARK    2  A    between atoms: C_6  and  C_8
REMARK    3  A    between atoms: N_13  and  C_14
REMARK    4  A    between atoms: C_20  and  C_21
REMARK    5  A    between atoms: C_22  and  C_23
REMARK    6  A    between atoms: C_23  and  C_24
REMARK    7  A    between atoms: C_24  and  C_25
REMARK                            x       y       z     vdW  Elec       q    Type
REMARK                         _______ _______ _______ _____ _____    ______ ____
ROOT
ATOM      1  C   UNL     1       0.302   9.502  17.444  0.00  0.00    +0.000 C 
ATOM      2  C   UNL     1      -0.516   9.731  18.487  0.00  0.00    +0.000 C 
ATOM      3  C   UNL     1      -1.940  10.127  18.202  0.00  0.00    +0.000 C 
ATOM      4  C   UNL     1      -2.236  11.508  18.792  0.00  0.00    +0.000 C 
ATOM      5  C   UNL     1      -2.011  11.460  20.310  0.00  0.00    +0.000 C 
ATOM      6  C   UNL     1      -2.687  12.625  21.131  0.00  0.00    +0.000 C 
ATOM      7  C   UNL     1      -1.947  13.981  20.938  0.00  0.00    +0.000 C 
ATOM      8  C   UNL     1      -2.602  12.252  22.625  0.00  0.00    +0.000 C 
ATOM      9  C   UNL     1      -1.170  12.011  23.077  0.00  0.00    +0.000 C 
ATOM     10  C   UNL     1      -0.368  11.050  22.201  0.00  0.00    +0.000 C 
ATOM     11  C   UNL     1      -0.497  11.124  20.650  0.00  0.00    +0.000 C 
ATOM     12  C   UNL     1       0.516  12.137  20.047  0.00  0.00    +0.000 C 
ATOM     13  C   UNL     1      -0.129   9.698  19.989  0.00  0.00    +0.000 C 
ENDROOT
BRANCH   6  14
ATOM     14  C   UNL     1      -4.184  12.963  20.780  0.00  0.00    +0.000 C 
ATOM     15  O   UNL     1      -4.529  12.969  19.588  0.00  0.00    +0.000 OA
ATOM     16  N   UNL     1      -5.143  13.273  21.719  0.00  0.00    +0.000 N 
ATOM     17  C   UNL     1      -6.557  13.203  21.315  0.00  0.00    +0.000 C 
ATOM     18  C   UNL     1      -7.415  12.462  22.369  0.00  0.00    +0.000 C 
ATOM     19  N   UNL     1      -7.217  12.879  23.777  0.00  0.00    +0.000 NA
ATOM     20  C   UNL     1      -7.917  14.119  24.090  0.00  0.00    +0.000 C 
ATOM     21  C   UNL     1      -5.777  12.987  24.078  0.00  0.00    +0.000 C 
ATOM     22  C   UNL     1      -4.973  13.819  23.060  0.00  0.00    +0.000 C 
ENDBRANCH   6  14
BRANCH  13  23
ATOM     23  C   UNL     1       1.345   9.206  20.171  0.00  0.00    +0.000 C 
BRANCH  23  24
ATOM     24  C   UNL     1       1.600   7.945  21.000  0.00  0.00    +0.000 C 
BRANCH  24  25
ATOM     25  C   UNL     1       1.994   6.783  20.149  0.00  0.00    +0.000 A 
ATOM     26  C   UNL     1       2.603   6.844  18.861  0.00  0.00    +0.000 A 
ATOM     27  C   UNL     1       2.815   5.544  18.473  0.00  0.00    +0.000 A 
ATOM     28  O   UNL     1       2.382   4.687  19.431  0.00  0.00    +0.000 OA
ATOM     29  C   UNL     1       1.888   5.444  20.441  0.00  0.00    +0.000 A 
ENDBRANCH  24  25
ENDBRANCH  23  24
ENDBRANCH  13  23
TORSDOF 4
ENDMDL
MODEL 6
REMARK VINA RESULT:      -6.4      1.861      3.307
REMARK  Name = 
REMARK  7 active torsions:
REMARK  status: ('A' for Active; 'I' for Inactive)
REMARK    1  A    between atoms: C_6  and  C_7
REMARK    2  A    between atoms: C_6  and  C_8
REMARK    3  A    between atoms: N_13  and  C_14
REMARK    4  A    between atoms: C_20  and  C_21
REMARK    5  A    between atoms: C_22  and  C_23
REMARK    6  A    between atoms: C_23  and  C_24
REMARK    7  A    between atoms: C_24  and  C_25
REMARK                            x       y       z     vdW  Elec       q    Type
REMARK                         _______ _______ _______ _____ _____    ______ ____
ROOT
ATOM      1  C   UNL     1       1.365   9.473  17.656  0.00  0.00    +0.000 C 
ATOM      2  C   UNL     1       0.382   9.604  18.565  0.00  0.00    +0.000 C 
ATOM      3  C   UNL     1      -0.878  10.318  18.154  0.00  0.00    +0.000 C 
ATOM      4  C   UNL     1      -1.097  11.554  19.030  0.00  0.00    +0.000 C 
ATOM      5  C   UNL     1      -1.214  11.112  20.496  0.00  0.00    +0.000 C 
ATOM      6  C   UNL     1      -1.881  12.160  21.467  0.00  0.00    +0.000 C 
ATOM      7  C   UNL     1      -0.935  13.358  21.772  0.00  0.00    +0.000 C 
ATOM      8  C   UNL     1      -2.172  11.441  22.800  0.00  0.00    +0.000 C 
ATOM      9  C   UNL     1      -0.918  10.833  23.412  0.00  0.00    +0.000 C 
ATOM     10  C   UNL     1      -0.089   9.970  22.464  0.00  0.00    +0.000 C 
ATOM     11  C   UNL     1       0.130  10.425  20.990  0.00  0.00    +0.000 C 
ATOM     12  C   UNL     1       1.380  11.340  20.862  0.00  0.00    +0.000 C 
ATOM     13  C   UNL     1       0.429   9.149  20.048  0.00  0.00    +0.000 C 
ENDROOT
BRANCH   6  14
ATOM     14  C   UNL     1      -3.205  12.848  20.966  0.00  0.00    +0.000 C 
ATOM     15  O   UNL     1      -3.366  13.012  19.746  0.00  0.00    +0.000 OA
ATOM     16  N   UNL     1      -4.201  13.302  21.803  0.00  0.00    +0.000 N 
ATOM     17  C   UNL     1      -5.525  13.578  21.220  0.00  0.00    +0.000 C 
ATOM     18  C   UNL     1      -6.663  12.978  22.081  0.00  0.00    +0.000 C 
ATOM     19  N   UNL     1      -6.586  13.244  23.536  0.00  0.00    +0.000 NA
ATOM     20  C   UNL     1      -7.042  14.585  23.879  0.00  0.00    +0.000 C 
ATOM     21  C   UNL     1      -5.214  13.006  24.024  0.00  0.00    +0.000 C 
ATOM     22  C   UNL     1      -4.113  13.704  23.201  0.00  0.00    +0.000 C 
ENDBRANCH   6  14
BRANCH  13  23
ATOM     23  C   UNL     1       1.746   8.359  20.344  0.00  0.00    +0.000 C 
BRANCH  23  24
ATOM     24  C   UNL     1       1.661   6.844  20.550  0.00  0.00    +0.000 C 
BRANCH  24  25
ATOM     25  C   UNL     1       2.513   6.096  19.579  0.00  0.00    +0.000 A 
ATOM     26  C   UNL     1       2.262   5.929  18.185  0.00  0.00    +0.000 A 
ATOM     27  C   UNL     1       3.318   5.205  17.688  0.00  0.00    +0.000 A 
ATOM     28  O   UNL     1       4.202   4.917  18.675  0.00  0.00    +0.000 OA
ATOM     29  C   UNL     1       3.709   5.460  19.815  0.00  0.00    +0.000 A 
ENDBRANCH  24  25
ENDBRANCH  23  24
ENDBRANCH  13  23
TORSDOF 4
ENDMDL
MODEL 7
REMARK VINA RESULT:      -6.2      2.750      4.224
REMARK  Name = 
REMARK  7 active torsions:
REMARK  status: ('A' for Active; 'I' for Inactive)
REMARK    1  A    between atoms: C_6  and  C_7
REMARK    2  A    between atoms: C_6  and  C_8
REMARK    3  A    between atoms: N_13  and  C_14
REMARK    4  A    between atoms: C_20  and  C_21
REMARK    5  A    between atoms: C_22  and  C_23
REMARK    6  A    between atoms: C_23  and  C_24
REMARK    7  A    between atoms: C_24  and  C_25
REMARK                            x       y       z     vdW  Elec       q    Type
REMARK                         _______ _______ _______ _____ _____    ______ ____
ROOT
ATOM      1  C   UNL     1       0.848   9.921  17.888  0.00  0.00    +0.000 C 
ATOM      2  C   UNL     1      -0.149  10.198  18.747  0.00  0.00    +0.000 C 
ATOM      3  C   UNL     1      -1.342  10.959  18.233  0.00  0.00    +0.000 C 
ATOM      4  C   UNL     1      -1.497  12.280  18.992  0.00  0.00    +0.000 C 
ATOM      5  C   UNL     1      -1.687  11.977  20.485  0.00  0.00    +0.000 C 
ATOM      6  C   UNL     1      -2.305  13.150  21.340  0.00  0.00    +0.000 C 
ATOM      7  C   UNL     1      -1.284  14.301  21.575  0.00  0.00    +0.000 C 
ATOM      8  C   UNL     1      -2.686  12.571  22.717  0.00  0.00    +0.000 C 
ATOM      9  C   UNL     1      -1.499  11.934  23.423  0.00  0.00    +0.000 C 
ATOM     10  C   UNL     1      -0.707  10.935  22.582  0.00  0.00    +0.000 C 
ATOM     11  C   UNL     1      -0.412  11.244  21.083  0.00  0.00    +0.000 C 
ATOM     12  C   UNL     1       0.904  12.055  20.923  0.00  0.00    +0.000 C 
ATOM     13  C   UNL     1      -0.179   9.873  20.264  0.00  0.00    +0.000 C 
ENDROOT
BRANCH   6  14
ATOM     14  C   UNL     1      -3.561  13.882  20.734  0.00  0.00    +0.000 C 
ATOM     15  O   UNL     1      -3.612  15.121  20.792  0.00  0.00    +0.000 OA
ATOM     16  N   UNL     1      -4.626  13.229  20.154  0.00  0.00    +0.000 N 
ATOM     17  C   UNL     1      -5.542  14.012  19.308  0.00  0.00    +0.000 C 
ATOM     18  C   UNL     1      -5.856  13.281  17.980  0.00  0.00    +0.000 C 
ATOM     19  N   UNL     1      -6.229  11.853  18.098  0.00  0.00    +0.000 NA
ATOM     20  C   UNL     1      -7.614  11.675  18.515  0.00  0.00    +0.000 C 
ATOM     21  C   UNL     1      -5.302  11.159  19.012  0.00  0.00    +0.000 C 
ATOM     22  C   UNL     1      -5.093  11.865  20.366  0.00  0.00    +0.000 C 
ENDBRANCH   6  14
BRANCH  13  23
ATOM     23  C   UNL     1       1.068   9.021  20.673  0.00  0.00    +0.000 C 
BRANCH  23  24
ATOM     24  C   UNL     1       0.851   7.575  21.127  0.00  0.00    +0.000 C 
BRANCH  24  25
ATOM     25  C   UNL     1       1.783   6.627  20.447  0.00  0.00    +0.000 A 
ATOM     26  C   UNL     1       2.533   6.881  19.260  0.00  0.00    +0.000 A 
ATOM     27  C   UNL     1       3.271   5.748  19.022  0.00  0.00    +0.000 A 
ATOM     28  O   UNL     1       3.031   4.816  19.978  0.00  0.00    +0.000 OA
ATOM     29  C   UNL     1       2.131   5.356  20.836  0.00  0.00    +0.000 A 
ENDBRANCH  24  25
ENDBRANCH  23  24
ENDBRANCH  13  23
TORSDOF 4
ENDMDL
MODEL 8
REMARK VINA RESULT:      -6.2      1.236      1.371
REMARK  Name = 
REMARK  7 active torsions:
REMARK  status: ('A' for Active; 'I' for Inactive)
REMARK    1  A    between atoms: C_6  and  C_7
REMARK    2  A    between atoms: C_6  and  C_8
REMARK    3  A    between atoms: N_13  and  C_14
REMARK    4  A    between atoms: C_20  and  C_21
REMARK    5  A    between atoms: C_22  and  C_23
REMARK    6  A    between atoms: C_23  and  C_24
REMARK    7  A    between atoms: C_24  and  C_25
REMARK                            x       y       z     vdW  Elec       q    Type
REMARK                         _______ _______ _______ _____ _____    ______ ____
ROOT
ATOM      1  C   UNL     1       0.944   6.660  20.660  0.00  0.00    +0.000 C 
ATOM      2  C   UNL     1       1.378   7.934  20.661  0.00  0.00    +0.000 C 
ATOM      3  C   UNL     1       1.113   8.777  21.879  0.00  0.00    +0.000 C 
ATOM      4  C   UNL     1       0.255   9.991  21.508  0.00  0.00    +0.000 C 
ATOM      5  C   UNL     1       1.002  10.827  20.460  0.00  0.00    +0.000 C 
ATOM      6  C   UNL     1       0.501  12.313  20.298  0.00  0.00    +0.000 C 
ATOM      7  C   UNL     1      -0.870  12.391  19.567  0.00  0.00    +0.000 C 
ATOM      8  C   UNL     1       1.537  13.062  19.435  0.00  0.00    +0.000 C 
ATOM      9  C   UNL     1       1.750  12.397  18.084  0.00  0.00    +0.000 C 
ATOM     10  C   UNL     1       2.029  10.896  18.139  0.00  0.00    +0.000 C 
ATOM     11  C   UNL     1       1.230   9.994  19.127  0.00  0.00    +0.000 C 
ATOM     12  C   UNL     1      -0.088   9.481  18.481  0.00  0.00    +0.000 C 
ATOM     13  C   UNL     1       2.080   8.671  19.489  0.00  0.00    +0.000 C 
ENDROOT
BRANCH   6  14
ATOM     14  C   UNL     1       0.264  13.129  21.624  0.00  0.00    +0.000 C 
ATOM     15  O   UNL     1       1.184  13.842  22.057  0.00  0.00    +0.000 OA
ATOM     16  N   UNL     1      -0.905  13.090  22.352  0.00  0.00    +0.000 N 
ATOM     17  C   UNL     1      -1.142  14.156  23.340  0.00  0.00    +0.000 C 
ATOM     18  C   UNL     1      -2.579  14.720  23.236  0.00  0.00    +0.000 C 
ATOM     19  N   UNL     1      -3.667  13.718  23.169  0.00  0.00    +0.000 NA
ATOM     20  C   UNL     1      -3.989  13.160  24.477  0.00  0.00    +0.000 C 
ATOM     21  C   UNL     1      -3.320  12.655  22.206  0.00  0.00    +0.000 C 
ATOM     22  C   UNL     1      -1.919  12.045  22.406  0.00  0.00    +0.000 C 
ENDBRANCH   6  14
BRANCH  13  23
ATOM     23  C   UNL     1       2.369   7.685  18.309  0.00  0.00    +0.000 C 
BRANCH  23  24
ATOM     24  C   UNL     1       3.338   6.524  18.545  0.00  0.00    +0.000 C 
BRANCH  24  25
ATOM     25  C   UNL     1       4.188   6.248  17.349  0.00  0.00    +0.000 A 
ATOM     26  C   UNL     1       4.489   4.966  16.801  0.00  0.00    +0.000 A 
ATOM     27  C   UNL     1       5.270   5.195  15.695  0.00  0.00    +0.000 A 
ATOM     28  O   UNL     1       5.468   6.525  15.520  0.00  0.00    +0.000 OA
ATOM     29  C   UNL     1       4.810   7.155  16.524  0.00  0.00    +0.000 A 
ENDBRANCH  24  25
ENDBRANCH  23  24
ENDBRANCH  13  23
TORSDOF 4
ENDMDL
MODEL 9
REMARK VINA RESULT:      -6.2      1.912      3.121
REMARK  Name = 
REMARK  7 active torsions:
REMARK  status: ('A' for Active; 'I' for Inactive)
REMARK    1  A    between atoms: C_6  and  C_7
REMARK    2  A    between atoms: C_6  and  C_8
REMARK    3  A    between atoms: N_13  and  C_14
REMARK    4  A    between atoms: C_20  and  C_21
REMARK    5  A    between atoms: C_22  and  C_23
REMARK    6  A    between atoms: C_23  and  C_24
REMARK    7  A    between atoms: C_24  and  C_25
REMARK                            x       y       z     vdW  Elec       q    Type
REMARK                         _______ _______ _______ _____ _____    ______ ____
ROOT
ATOM      1  C   UNL     1      -1.284   9.726  17.454  0.00  0.00    +0.000 C 
ATOM      2  C   UNL     1      -1.239  10.495  18.557  0.00  0.00    +0.000 C 
ATOM      3  C   UNL     1      -2.446  11.328  18.895  0.00  0.00    +0.000 C 
ATOM      4  C   UNL     1      -2.079  12.814  18.908  0.00  0.00    +0.000 C 
ATOM      5  C   UNL     1      -0.984  13.049  19.958  0.00  0.00    +0.000 C 
ATOM      6  C   UNL     1      -0.807  14.544  20.427  0.00  0.00    +0.000 C 
ATOM      7  C   UNL     1      -0.125  15.421  19.338  0.00  0.00    +0.000 C 
ATOM      8  C   UNL     1       0.111  14.537  21.666  0.00  0.00    +0.000 C 
ATOM      9  C   UNL     1       1.453  13.879  21.385  0.00  0.00    +0.000 C 
ATOM     10  C   UNL     1       1.374  12.504  20.724  0.00  0.00    +0.000 C 
ATOM     11  C   UNL     1       0.336  12.247  19.590  0.00  0.00    +0.000 C 
ATOM     12  C   UNL     1       0.921  12.616  18.197  0.00  0.00    +0.000 C 
ATOM     13  C   UNL     1      -0.025  10.676  19.506  0.00  0.00    +0.000 C 
ENDROOT
BRANCH   6  14
ATOM     14  C   UNL     1      -2.121  15.337  20.777  0.00  0.00    +0.000 C 
ATOM     15  O   UNL     1      -2.252  16.492  20.343  0.00  0.00    +0.000 OA
ATOM     16  N   UNL     1      -3.139  14.834  21.557  0.00  0.00    +0.000 N 
ATOM     17  C   UNL     1      -4.449  15.504  21.505  0.00  0.00    +0.000 C 
ATOM     18  C   UNL     1      -5.605  14.485  21.367  0.00  0.00    +0.000 C 
ATOM     19  N   UNL     1      -5.565  13.327  22.289  0.00  0.00    +0.000 NA
ATOM     20  C   UNL     1      -6.035  13.668  23.626  0.00  0.00    +0.000 C 
ATOM     21  C   UNL     1      -4.205  12.757  22.330  0.00  0.00    +0.000 C 
ATOM     22  C   UNL     1      -3.087  13.790  22.573  0.00  0.00    +0.000 C 
ENDBRANCH   6  14
BRANCH  13  23
ATOM     23  C   UNL     1       1.142   9.715  19.105  0.00  0.00    +0.000 C 
BRANCH  23  24
ATOM     24  C   UNL     1       1.486   8.551  20.038  0.00  0.00    +0.000 C 
BRANCH  24  25
ATOM     25  C   UNL     1       2.249   7.476  19.338  0.00  0.00    +0.000 A 
ATOM     26  C   UNL     1       2.880   7.577  18.063  0.00  0.00    +0.000 A 
ATOM     27  C   UNL     1       3.485   6.366  17.835  0.00  0.00    +0.000 A 
ATOM     28  O   UNL     1       3.273   5.526  18.879  0.00  0.00    +0.000 OA
ATOM     29  C   UNL     1       2.526   6.205  19.783  0.00  0.00    +0.000 A 
ENDBRANCH  24  25
ENDBRANCH  23  24
ENDBRANCH  13  23
TORSDOF 4
ENDMDL
