MODEL 1
REMARK VINA RESULT:      -8.8      0.000      0.000
REMARK  Name = 
REMARK  8 active torsions:
REMARK  status: ('A' for Active; 'I' for Inactive)
REMARK    1  A    between atoms: C_1  and  C_2
REMARK    2  A    between atoms: C_2  and  O_3
REMARK    3  A    between atoms: O_3  and  C_4
REMARK    4  A    between atoms: C_4  and  C_6
REMARK    5  A    between atoms: C_10  and  C_11
REMARK    6  A    between atoms: C_15  and  N_16
REMARK    7  A    between atoms: N_19  and  C_20
REMARK    8  A    between atoms: C_24  and  C_25
REMARK                            x       y       z     vdW  Elec       q    Type
REMARK                         _______ _______ _______ _____ _____    ______ ____
ROOT
ATOM      1  C   UNL     1      -1.231  11.812  18.541  0.00  0.00    +0.000 A 
ATOM      2  C   UNL     1      -0.523  13.003  18.340  0.00  0.00    +0.000 A 
ATOM      3  C   UNL     1       0.863  13.010  18.450  0.00  0.00    +0.000 A 
ATOM      4  C   UNL     1       1.543  11.837  18.784  0.00  0.00    +0.000 A 
ATOM      5  C   UNL     1       0.847  10.647  19.020  0.00  0.00    +0.000 A 
ATOM      6  C   UNL     1      -0.542  10.635  18.875  0.00  0.00    +0.000 A 
ENDROOT
BRANCH   1  11
ATOM      7  C   UNL     1      -5.469  12.488  20.472  0.00  0.00    +0.000 A 
ATOM      8  C   UNL     1      -4.352  12.806  21.266  0.00  0.00    +0.000 A 
ATOM      9  N   UNL     1      -3.193  12.632  20.637  0.00  0.00    +0.000 NA
ATOM     10  N   UNL     1      -3.541  12.177  19.404  0.00  0.00    +0.000 N 
ATOM     11  C   UNL     1      -2.689  11.787  18.360  0.00  0.00    +0.000 A 
ATOM     12  C   UNL     1      -3.208  11.378  17.190  0.00  0.00    +0.000 A 
ATOM     13  C   UNL     1      -4.691  11.384  17.116  0.00  0.00    +0.000 A 
ATOM     14  N   UNL     1      -5.506  11.720  18.070  0.00  0.00    +0.000 NA
ATOM     15  C   UNL     1      -4.934  12.117  19.250  0.00  0.00    +0.000 A 
BRANCH   7  16
ATOM     16  C   UNL     1      -6.841  12.497  20.915  0.00  0.00    +0.000 C 
ATOM     17  O   UNL     1      -7.632  13.370  20.573  0.00  0.00    +0.000 OA
BRANCH  16  18
ATOM     18  O   UNL     1      -7.113  11.539  21.843  0.00  0.00    +0.000 OA
BRANCH  18  20
ATOM     19  C   UNL     1      -7.008  12.688  23.930  0.00  0.00    +0.000 C 
ATOM     20  C   UNL     1      -7.917  11.973  22.944  0.00  0.00    +0.000 C 
ENDBRANCH  18  20
ENDBRANCH  16  18
ENDBRANCH   7  16
ENDBRANCH   1  11
BRANCH   5  21
ATOM     21  N   UNL     1       1.500   9.445  19.374  0.00  0.00    +0.000 N 
ATOM     22  C   UNL     1       1.985   8.525  18.463  0.00  0.00    +0.000 C 
ATOM     23  O   UNL     1       2.054   8.714  17.250  0.00  0.00    +0.000 OA
ATOM     24  N   UNL     1       2.372   7.345  19.082  0.00  0.00    +0.000 N 
ATOM     25  H   UNL     1       1.876   9.378  20.309  0.00  0.00    +0.000 HD
ATOM     26  H   UNL     1       1.801   7.094  19.877  0.00  0.00    +0.000 HD
BRANCH  24  27
ATOM     27  C   UNL     1       2.935   6.284  18.336  0.00  0.00    +0.000 A 
ATOM     28  C   UNL     1       2.212   5.119  18.062  0.00  0.00    +0.000 A 
ATOM     29  C   UNL     1       2.806   4.063  17.371  0.00  0.00    +0.000 A 
ATOM     30  C   UNL     1       4.133   4.160  16.962  0.00  0.00    +0.000 A 
ATOM     31  C   UNL     1       4.873   5.325  17.222  0.00  0.00    +0.000 A 
ATOM     32  C   UNL     1       4.252   6.399  17.887  0.00  0.00    +0.000 A 
BRANCH  31  33
ATOM     33  C   UNL     1       6.328   5.421  16.840  0.00  0.00    +0.000 C 
ATOM     34  F   UNL     1       6.805   6.696  16.814  0.00  0.00    +0.000 F 
ATOM     35  F   UNL     1       7.134   4.737  17.698  0.00  0.00    +0.000 F 
ATOM     36  F   UNL     1       6.575   4.904  15.604  0.00  0.00    +0.000 F 
ENDBRANCH  31  33
ENDBRANCH  24  27
ENDBRANCH   5  21
TORSDOF 7
ENDMDL
MODEL 2
REMARK VINA RESULT:      -8.3      5.274     11.717
REMARK  Name = 
REMARK  8 active torsions:
REMARK  status: ('A' for Active; 'I' for Inactive)
REMARK    1  A    between atoms: C_1  and  C_2
REMARK    2  A    between atoms: C_2  and  O_3
REMARK    3  A    between atoms: O_3  and  C_4
REMARK    4  A    between atoms: C_4  and  C_6
REMARK    5  A    between atoms: C_10  and  C_11
REMARK    6  A    between atoms: C_15  and  N_16
REMARK    7  A    between atoms: N_19  and  C_20
REMARK    8  A    between atoms: C_24  and  C_25
REMARK                            x       y       z     vdW  Elec       q    Type
REMARK                         _______ _______ _______ _____ _____    ______ ____
ROOT
ATOM      1  C   UNL     1       4.197   4.616  19.569  0.00  0.00    +0.000 A 
ATOM      2  C   UNL     1       3.876   3.300  19.922  0.00  0.00    +0.000 A 
ATOM      3  C   UNL     1       2.725   3.041  20.658  0.00  0.00    +0.000 A 
ATOM      4  C   UNL     1       1.904   4.096  21.063  0.00  0.00    +0.000 A 
ATOM      5  C   UNL     1       2.229   5.420  20.747  0.00  0.00    +0.000 A 
ATOM      6  C   UNL     1       3.367   5.673  19.979  0.00  0.00    +0.000 A 
ENDROOT
BRANCH   1  11
ATOM      7  C   UNL     1       6.085   4.595  15.259  0.00  0.00    +0.000 A 
ATOM      8  C   UNL     1       4.724   4.254  15.357  0.00  0.00    +0.000 A 
ATOM      9  N   UNL     1       4.251   4.327  16.598  0.00  0.00    +0.000 NA
ATOM     10  N   UNL     1       5.320   4.710  17.346  0.00  0.00    +0.000 N 
ATOM     11  C   UNL     1       5.376   4.885  18.737  0.00  0.00    +0.000 A 
ATOM     12  C   UNL     1       6.521   5.292  19.314  0.00  0.00    +0.000 A 
ATOM     13  C   UNL     1       7.652   5.528  18.383  0.00  0.00    +0.000 A 
ATOM     14  N   UNL     1       7.637   5.357  17.096  0.00  0.00    +0.000 NA
ATOM     15  C   UNL     1       6.455   4.927  16.551  0.00  0.00    +0.000 A 
BRANCH   7  16
ATOM     16  C   UNL     1       6.883   4.523  14.060  0.00  0.00    +0.000 C 
ATOM     17  O   UNL     1       7.551   5.472  13.663  0.00  0.00    +0.000 OA
BRANCH  16  18
ATOM     18  O   UNL     1       6.700   3.369  13.361  0.00  0.00    +0.000 OA
BRANCH  18  20
ATOM     19  C   UNL     1       5.723   2.261  11.489  0.00  0.00    +0.000 C 
ATOM     20  C   UNL     1       6.374   3.544  11.979  0.00  0.00    +0.000 C 
ENDBRANCH  18  20
ENDBRANCH  16  18
ENDBRANCH   7  16
ENDBRANCH   1  11
BRANCH   5  21
ATOM     21  N   UNL     1       1.430   6.513  21.153  0.00  0.00    +0.000 N 
ATOM     22  C   UNL     1       1.316   7.698  20.450  0.00  0.00    +0.000 C 
ATOM     23  O   UNL     1       1.760   7.883  19.319  0.00  0.00    +0.000 OA
ATOM     24  N   UNL     1       0.654   8.670  21.186  0.00  0.00    +0.000 N 
ATOM     25  H   UNL     1       0.702   6.331  21.829  0.00  0.00    +0.000 HD
ATOM     26  H   UNL     1       0.836   8.626  22.179  0.00  0.00    +0.000 HD
BRANCH  24  27
ATOM     27  C   UNL     1       0.394   9.946  20.636  0.00  0.00    +0.000 A 
ATOM     28  C   UNL     1       1.138  11.069  21.013  0.00  0.00    +0.000 A 
ATOM     29  C   UNL     1       0.829  12.327  20.499  0.00  0.00    +0.000 A 
ATOM     30  C   UNL     1      -0.236  12.475  19.615  0.00  0.00    +0.000 A 
ATOM     31  C   UNL     1      -0.990  11.358  19.220  0.00  0.00    +0.000 A 
ATOM     32  C   UNL     1      -0.646  10.086  19.716  0.00  0.00    +0.000 A 
BRANCH  31  33
ATOM     33  C   UNL     1      -2.184  11.510  18.313  0.00  0.00    +0.000 C 
ATOM     34  F   UNL     1      -1.897  12.111  17.125  0.00  0.00    +0.000 F 
ATOM     35  F   UNL     1      -2.751  10.312  17.999  0.00  0.00    +0.000 F 
ATOM     36  F   UNL     1      -3.174  12.254  18.880  0.00  0.00    +0.000 F 
ENDBRANCH  31  33
ENDBRANCH  24  27
ENDBRANCH   5  21
TORSDOF 7
ENDMDL
MODEL 3
REMARK VINA RESULT:      -8.3      1.160      1.600
REMARK  Name = 
REMARK  8 active torsions:
REMARK  status: ('A' for Active; 'I' for Inactive)
REMARK    1  A    between atoms: C_1  and  C_2
REMARK    2  A    between atoms: C_2  and  O_3
REMARK    3  A    between atoms: O_3  and  C_4
REMARK    4  A    between atoms: C_4  and  C_6
REMARK    5  A    between atoms: C_10  and  C_11
REMARK    6  A    between atoms: C_15  and  N_16
REMARK    7  A    between atoms: N_19  and  C_20
REMARK    8  A    between atoms: C_24  and  C_25
REMARK                            x       y       z     vdW  Elec       q    Type
REMARK                         _______ _______ _______ _____ _____    ______ ____
ROOT
ATOM      1  C   UNL     1      -1.110  11.530  18.415  0.00  0.00    +0.000 A 
ATOM      2  C   UNL     1      -0.404  12.738  18.476  0.00  0.00    +0.000 A 
ATOM      3  C   UNL     1       0.936  12.739  18.843  0.00  0.00    +0.000 A 
ATOM      4  C   UNL     1       1.570  11.539  19.173  0.00  0.00    +0.000 A 
ATOM      5  C   UNL     1       0.871  10.328  19.149  0.00  0.00    +0.000 A 
ATOM      6  C   UNL     1      -0.467  10.326  18.747  0.00  0.00    +0.000 A 
ENDROOT
BRANCH   1  11
ATOM      7  C   UNL     1      -5.627  12.254  19.516  0.00  0.00    +0.000 A 
ATOM      8  C   UNL     1      -4.676  12.562  20.505  0.00  0.00    +0.000 A 
ATOM      9  N   UNL     1      -3.422  12.375  20.105  0.00  0.00    +0.000 NA
ATOM     10  N   UNL     1      -3.537  11.920  18.829  0.00  0.00    +0.000 N 
ATOM     11  C   UNL     1      -2.508  11.520  17.964  0.00  0.00    +0.000 A 
ATOM     12  C   UNL     1      -2.802  11.113  16.717  0.00  0.00    +0.000 A 
ATOM     13  C   UNL     1      -4.245  11.134  16.366  0.00  0.00    +0.000 A 
ATOM     14  N   UNL     1      -5.220  11.480  17.150  0.00  0.00    +0.000 NA
ATOM     15  C   UNL     1      -4.877  11.874  18.416  0.00  0.00    +0.000 A 
BRANCH   7  16
ATOM     16  C   UNL     1      -7.059  12.277  19.693  0.00  0.00    +0.000 C 
ATOM     17  O   UNL     1      -7.652  11.408  20.323  0.00  0.00    +0.000 OA
BRANCH  16  18
ATOM     18  O   UNL     1      -7.672  13.261  18.980  0.00  0.00    +0.000 OA
BRANCH  18  20
ATOM     19  C   UNL     1      -7.917  15.561  19.561  0.00  0.00    +0.000 C 
ATOM     20  C   UNL     1      -6.987  14.516  18.967  0.00  0.00    +0.000 C 
ENDBRANCH  18  20
ENDBRANCH  16  18
ENDBRANCH   7  16
ENDBRANCH   1  11
BRANCH   5  21
ATOM     21  N   UNL     1       1.475   9.097  19.490  0.00  0.00    +0.000 N 
ATOM     22  C   UNL     1       2.041   8.228  18.576  0.00  0.00    +0.000 C 
ATOM     23  O   UNL     1       2.232   8.489  17.391  0.00  0.00    +0.000 OA
ATOM     24  N   UNL     1       2.354   7.006  19.156  0.00  0.00    +0.000 N 
ATOM     25  H   UNL     1       1.755   8.967  20.452  0.00  0.00    +0.000 HD
ATOM     26  H   UNL     1       1.704   6.715  19.873  0.00  0.00    +0.000 HD
BRANCH  24  27
ATOM     27  C   UNL     1       2.980   5.985  18.405  0.00  0.00    +0.000 A 
ATOM     28  C   UNL     1       2.266   4.877  17.940  0.00  0.00    +0.000 A 
ATOM     29  C   UNL     1       2.915   3.855  17.248  0.00  0.00    +0.000 A 
ATOM     30  C   UNL     1       4.288   3.927  17.030  0.00  0.00    +0.000 A 
ATOM     31  C   UNL     1       5.021   5.036  17.483  0.00  0.00    +0.000 A 
ATOM     32  C   UNL     1       4.349   6.079  18.148  0.00  0.00    +0.000 A 
BRANCH  31  33
ATOM     33  C   UNL     1       6.517   5.100  17.308  0.00  0.00    +0.000 C 
ATOM     34  F   UNL     1       7.208   5.052  18.480  0.00  0.00    +0.000 F 
ATOM     35  F   UNL     1       6.994   4.074  16.550  0.00  0.00    +0.000 F 
ATOM     36  F   UNL     1       6.917   6.242  16.684  0.00  0.00    +0.000 F 
ENDBRANCH  31  33
ENDBRANCH  24  27
ENDBRANCH   5  21
TORSDOF 7
ENDMDL
MODEL 4
REMARK VINA RESULT:      -8.3      2.104      2.516
REMARK  Name = 
REMARK  8 active torsions:
REMARK  status: ('A' for Active; 'I' for Inactive)
REMARK    1  A    between atoms: C_1  and  C_2
REMARK    2  A    between atoms: C_2  and  O_3
REMARK    3  A    between atoms: O_3  and  C_4
REMARK    4  A    between atoms: C_4  and  C_6
REMARK    5  A    between atoms: C_10  and  C_11
REMARK    6  A    between atoms: C_15  and  N_16
REMARK    7  A    between atoms: N_19  and  C_20
REMARK    8  A    between atoms: C_24  and  C_25
REMARK                            x       y       z     vdW  Elec       q    Type
REMARK                         _______ _______ _______ _____ _____    ______ ____
ROOT
ATOM      1  C   UNL     1      -1.063  11.672  18.714  0.00  0.00    +0.000 A 
ATOM      2  C   UNL     1      -0.252  12.729  18.284  0.00  0.00    +0.000 A 
ATOM      3  C   UNL     1       1.130  12.632  18.398  0.00  0.00    +0.000 A 
ATOM      4  C   UNL     1       1.706  11.491  18.961  0.00  0.00    +0.000 A 
ATOM      5  C   UNL     1       0.908  10.440  19.426  0.00  0.00    +0.000 A 
ATOM      6  C   UNL     1      -0.479  10.526  19.280  0.00  0.00    +0.000 A 
ENDROOT
BRANCH   1  11
ATOM      7  C   UNL     1      -5.254  12.498  20.687  0.00  0.00    +0.000 A 
ATOM      8  C   UNL     1      -4.121  12.704  21.495  0.00  0.00    +0.000 A 
ATOM      9  N   UNL     1      -2.975  12.495  20.856  0.00  0.00    +0.000 NA
ATOM     10  N   UNL     1      -3.347  12.129  19.600  0.00  0.00    +0.000 N 
ATOM     11  C   UNL     1      -2.519  11.745  18.536  0.00  0.00    +0.000 A 
ATOM     12  C   UNL     1      -3.060  11.432  17.345  0.00  0.00    +0.000 A 
ATOM     13  C   UNL     1      -4.540  11.532  17.275  0.00  0.00    +0.000 A 
ATOM     14  N   UNL     1      -5.334  11.864  18.247  0.00  0.00    +0.000 NA
ATOM     15  C   UNL     1      -4.741  12.161  19.446  0.00  0.00    +0.000 A 
BRANCH   7  16
ATOM     16  C   UNL     1      -6.625  12.565  21.132  0.00  0.00    +0.000 C 
ATOM     17  O   UNL     1      -7.482  13.185  20.512  0.00  0.00    +0.000 OA
BRANCH  16  18
ATOM     18  O   UNL     1      -6.821  12.004  22.357  0.00  0.00    +0.000 OA
BRANCH  18  20
ATOM     19  C   UNL     1      -7.403  13.742  23.883  0.00  0.00    +0.000 C 
ATOM     20  C   UNL     1      -7.917  12.544  23.101  0.00  0.00    +0.000 C 
ENDBRANCH  18  20
ENDBRANCH  16  18
ENDBRANCH   7  16
ENDBRANCH   1  11
BRANCH   5  21
ATOM     21  N   UNL     1       1.454   9.277  20.015  0.00  0.00    +0.000 N 
ATOM     22  C   UNL     1       2.000   8.227  19.302  0.00  0.00    +0.000 C 
ATOM     23  O   UNL     1       2.223   8.245  18.094  0.00  0.00    +0.000 OA
ATOM     24  N   UNL     1       2.251   7.130  20.116  0.00  0.00    +0.000 N 
ATOM     25  H   UNL     1       1.711   9.328  20.991  0.00  0.00    +0.000 HD
ATOM     26  H   UNL     1       1.577   7.009  20.858  0.00  0.00    +0.000 HD
BRANCH  24  27
ATOM     27  C   UNL     1       2.848   5.960  19.593  0.00  0.00    +0.000 A 
ATOM     28  C   UNL     1       4.201   5.925  19.242  0.00  0.00    +0.000 A 
ATOM     29  C   UNL     1       4.756   4.777  18.678  0.00  0.00    +0.000 A 
ATOM     30  C   UNL     1       3.958   3.661  18.446  0.00  0.00    +0.000 A 
ATOM     31  C   UNL     1       2.599   3.675  18.799  0.00  0.00    +0.000 A 
ATOM     32  C   UNL     1       2.057   4.826  19.402  0.00  0.00    +0.000 A 
BRANCH  31  33
ATOM     33  C   UNL     1       1.707   2.497  18.499  0.00  0.00    +0.000 C 
ATOM     34  F   UNL     1       2.121   1.753  17.437  0.00  0.00    +0.000 F 
ATOM     35  F   UNL     1       1.619   1.634  19.549  0.00  0.00    +0.000 F 
ATOM     36  F   UNL     1       0.429   2.873  18.218  0.00  0.00    +0.000 F 
ENDBRANCH  31  33
ENDBRANCH  24  27
ENDBRANCH   5  21
TORSDOF 7
ENDMDL
MODEL 5
REMARK VINA RESULT:      -8.3      4.017      6.245
REMARK  Name = 
REMARK  8 active torsions:
REMARK  status: ('A' for Active; 'I' for Inactive)
REMARK    1  A    between atoms: C_1  and  C_2
REMARK    2  A    between atoms: C_2  and  O_3
REMARK    3  A    between atoms: O_3  and  C_4
REMARK    4  A    between atoms: C_4  and  C_6
REMARK    5  A    between atoms: C_10  and  C_11
REMARK    6  A    between atoms: C_15  and  N_16
REMARK    7  A    between atoms: N_19  and  C_20
REMARK    8  A    between atoms: C_24  and  C_25
REMARK                            x       y       z     vdW  Elec       q    Type
REMARK                         _______ _______ _______ _____ _____    ______ ____
ROOT
ATOM      1  C   UNL     1       2.280   6.666  19.716  0.00  0.00    +0.000 A 
ATOM      2  C   UNL     1       1.664   5.866  20.686  0.00  0.00    +0.000 A 
ATOM      3  C   UNL     1       2.112   4.567  20.899  0.00  0.00    +0.000 A 
ATOM      4  C   UNL     1       3.160   4.056  20.131  0.00  0.00    +0.000 A 
ATOM      5  C   UNL     1       3.765   4.831  19.136  0.00  0.00    +0.000 A 
ATOM      6  C   UNL     1       3.335   6.147  18.947  0.00  0.00    +0.000 A 
ENDROOT
BRANCH   1  11
ATOM      7  C   UNL     1       0.387  10.509  21.663  0.00  0.00    +0.000 A 
ATOM      8  C   UNL     1       0.620   9.415  22.516  0.00  0.00    +0.000 A 
ATOM      9  N   UNL     1       1.198   8.385  21.904  0.00  0.00    +0.000 NA
ATOM     10  N   UNL     1       1.341   8.792  20.615  0.00  0.00    +0.000 N 
ATOM     11  C   UNL     1       1.852   8.059  19.534  0.00  0.00    +0.000 A 
ATOM     12  C   UNL     1       1.941   8.630  18.320  0.00  0.00    +0.000 A 
ATOM     13  C   UNL     1       1.475  10.037  18.245  0.00  0.00    +0.000 A 
ATOM     14  N   UNL     1       0.980  10.736  19.221  0.00  0.00    +0.000 NA
ATOM     15  C   UNL     1       0.893  10.110  20.437  0.00  0.00    +0.000 A 
BRANCH   7  16
ATOM     16  C   UNL     1      -0.301  11.723  22.026  0.00  0.00    +0.000 C 
ATOM     17  O   UNL     1       0.204  12.830  21.870  0.00  0.00    +0.000 OA
BRANCH  16  18
ATOM     18  O   UNL     1      -1.476  11.502  22.677  0.00  0.00    +0.000 OA
BRANCH  18  20
ATOM     19  C   UNL     1      -3.483  12.267  23.713  0.00  0.00    +0.000 C 
ATOM     20  C   UNL     1      -2.121  12.677  23.178  0.00  0.00    +0.000 C 
ENDBRANCH  18  20
ENDBRANCH  16  18
ENDBRANCH   7  16
ENDBRANCH   1  11
BRANCH   5  21
ATOM     21  N   UNL     1       4.818   4.342  18.330  0.00  0.00    +0.000 N 
ATOM     22  C   UNL     1       4.985   4.654  16.994  0.00  0.00    +0.000 C 
ATOM     23  O   UNL     1       4.342   5.512  16.392  0.00  0.00    +0.000 OA
ATOM     24  N   UNL     1       5.959   3.863  16.400  0.00  0.00    +0.000 N 
ATOM     25  H   UNL     1       5.633   3.976  18.802  0.00  0.00    +0.000 HD
ATOM     26  H   UNL     1       5.997   2.920  16.762  0.00  0.00    +0.000 HD
BRANCH  24  27
ATOM     27  C   UNL     1       6.316   4.046  15.045  0.00  0.00    +0.000 A 
ATOM     28  C   UNL     1       7.416   4.828  14.678  0.00  0.00    +0.000 A 
ATOM     29  C   UNL     1       7.717   5.040  13.334  0.00  0.00    +0.000 A 
ATOM     30  C   UNL     1       6.912   4.483  12.345  0.00  0.00    +0.000 A 
ATOM     31  C   UNL     1       5.808   3.688  12.693  0.00  0.00    +0.000 A 
ATOM     32  C   UNL     1       5.534   3.451  14.054  0.00  0.00    +0.000 A 
BRANCH  31  33
ATOM     33  C   UNL     1       4.890   3.129  11.636  0.00  0.00    +0.000 C 
ATOM     34  F   UNL     1       3.616   2.925  12.069  0.00  0.00    +0.000 F 
ATOM     35  F   UNL     1       4.792   3.946  10.551  0.00  0.00    +0.000 F 
ATOM     36  F   UNL     1       5.321   1.928  11.159  0.00  0.00    +0.000 F 
ENDBRANCH  31  33
ENDBRANCH  24  27
ENDBRANCH   5  21
TORSDOF 7
ENDMDL
MODEL 6
REMARK VINA RESULT:      -8.2      2.889      3.801
REMARK  Name = 
REMARK  8 active torsions:
REMARK  status: ('A' for Active; 'I' for Inactive)
REMARK    1  A    between atoms: C_1  and  C_2
REMARK    2  A    between atoms: C_2  and  O_3
REMARK    3  A    between atoms: O_3  and  C_4
REMARK    4  A    between atoms: C_4  and  C_6
REMARK    5  A    between atoms: C_10  and  C_11
REMARK    6  A    between atoms: C_15  and  N_16
REMARK    7  A    between atoms: N_19  and  C_20
REMARK    8  A    between atoms: C_24  and  C_25
REMARK                            x       y       z     vdW  Elec       q    Type
REMARK                         _______ _______ _______ _____ _____    ______ ____
ROOT
ATOM      1  C   UNL     1      -0.357  12.009  19.156  0.00  0.00    +0.000 A 
ATOM      2  C   UNL     1       0.519  13.099  19.224  0.00  0.00    +0.000 A 
ATOM      3  C   UNL     1       1.824  12.968  18.763  0.00  0.00    +0.000 A 
ATOM      4  C   UNL     1       2.265  11.744  18.256  0.00  0.00    +0.000 A 
ATOM      5  C   UNL     1       1.412  10.636  18.213  0.00  0.00    +0.000 A 
ATOM      6  C   UNL     1       0.092  10.780  18.645  0.00  0.00    +0.000 A 
ENDROOT
BRANCH   1  11
ATOM      7  C   UNL     1      -4.904  11.737  17.977  0.00  0.00    +0.000 A 
ATOM      8  C   UNL     1      -3.972  11.327  17.007  0.00  0.00    +0.000 A 
ATOM      9  N   UNL     1      -2.712  11.389  17.429  0.00  0.00    +0.000 NA
ATOM     10  N   UNL     1      -2.803  11.863  18.700  0.00  0.00    +0.000 N 
ATOM     11  C   UNL     1      -1.754  12.164  19.581  0.00  0.00    +0.000 A 
ATOM     12  C   UNL     1      -2.028  12.608  20.821  0.00  0.00    +0.000 A 
ATOM     13  C   UNL     1      -3.471  12.735  21.145  0.00  0.00    +0.000 A 
ATOM     14  N   UNL     1      -4.463  12.483  20.346  0.00  0.00    +0.000 NA
ATOM     15  C   UNL     1      -4.139  12.048  19.088  0.00  0.00    +0.000 A 
BRANCH   7  16
ATOM     16  C   UNL     1      -6.327  11.857  17.774  0.00  0.00    +0.000 C 
ATOM     17  O   UNL     1      -7.128  11.090  18.299  0.00  0.00    +0.000 OA
BRANCH  16  18
ATOM     18  O   UNL     1      -6.661  12.795  16.845  0.00  0.00    +0.000 OA
BRANCH  18  20
ATOM     19  C   UNL     1      -6.982  15.147  16.614  0.00  0.00    +0.000 C 
ATOM     20  C   UNL     1      -7.432  13.892  17.344  0.00  0.00    +0.000 C 
ENDBRANCH  18  20
ENDBRANCH  16  18
ENDBRANCH   7  16
ENDBRANCH   1  11
BRANCH   5  21
ATOM     21  N   UNL     1       1.828   9.378  17.720  0.00  0.00    +0.000 N 
ATOM     22  C   UNL     1       2.133   8.292  18.519  0.00  0.00    +0.000 C 
ATOM     23  O   UNL     1       1.926   8.235  19.729  0.00  0.00    +0.000 OA
ATOM     24  N   UNL     1       2.725   7.269  17.789  0.00  0.00    +0.000 N 
ATOM     25  H   UNL     1       1.633   9.171  16.751  0.00  0.00    +0.000 HD
ATOM     26  H   UNL     1       3.318   7.593  17.038  0.00  0.00    +0.000 HD
BRANCH  24  27
ATOM     27  C   UNL     1       3.080   6.049  18.407  0.00  0.00    +0.000 A 
ATOM     28  C   UNL     1       4.416   5.716  18.655  0.00  0.00    +0.000 A 
ATOM     29  C   UNL     1       4.746   4.483  19.216  0.00  0.00    +0.000 A 
ATOM     30  C   UNL     1       3.744   3.567  19.519  0.00  0.00    +0.000 A 
ATOM     31  C   UNL     1       2.397   3.885  19.284  0.00  0.00    +0.000 A 
ATOM     32  C   UNL     1       2.071   5.147  18.752  0.00  0.00    +0.000 A 
BRANCH  31  33
ATOM     33  C   UNL     1       1.304   2.880  19.549  0.00  0.00    +0.000 C 
ATOM     34  F   UNL     1       0.746   2.366  18.419  0.00  0.00    +0.000 F 
ATOM     35  F   UNL     1       1.748   1.812  20.267  0.00  0.00    +0.000 F 
ATOM     36  F   UNL     1       0.276   3.411  20.267  0.00  0.00    +0.000 F 
ENDBRANCH  31  33
ENDBRANCH  24  27
ENDBRANCH   5  21
TORSDOF 7
ENDMDL
MODEL 7
REMARK VINA RESULT:      -8.2      5.753     11.831
REMARK  Name = 
REMARK  8 active torsions:
REMARK  status: ('A' for Active; 'I' for Inactive)
REMARK    1  A    between atoms: C_1  and  C_2
REMARK    2  A    between atoms: C_2  and  O_3
REMARK    3  A    between atoms: O_3  and  C_4
REMARK    4  A    between atoms: C_4  and  C_6
REMARK    5  A    between atoms: C_10  and  C_11
REMARK    6  A    between atoms: C_15  and  N_16
REMARK    7  A    between atoms: N_19  and  C_20
REMARK    8  A    between atoms: C_24  and  C_25
REMARK                            x       y       z     vdW  Elec       q    Type
REMARK                         _______ _______ _______ _____ _____    ______ ____
ROOT
ATOM      1  C   UNL     1       2.173   7.819  18.915  0.00  0.00    +0.000 A 
ATOM      2  C   UNL     1       2.106   8.599  17.755  0.00  0.00    +0.000 A 
ATOM      3  C   UNL     1       1.470   9.834  17.787  0.00  0.00    +0.000 A 
ATOM      4  C   UNL     1       0.879  10.285  18.969  0.00  0.00    +0.000 A 
ATOM      5  C   UNL     1       0.908   9.502  20.129  0.00  0.00    +0.000 A 
ATOM      6  C   UNL     1       1.578   8.277  20.102  0.00  0.00    +0.000 A 
ENDROOT
BRANCH   1  11
ATOM      7  C   UNL     1       5.748   5.325  17.142  0.00  0.00    +0.000 A 
ATOM      8  C   UNL     1       5.652   6.670  16.741  0.00  0.00    +0.000 A 
ATOM      9  N   UNL     1       4.646   7.320  17.318  0.00  0.00    +0.000 NA
ATOM     10  N   UNL     1       4.049   6.389  18.110  0.00  0.00    +0.000 N 
ATOM     11  C   UNL     1       2.901   6.543  18.901  0.00  0.00    +0.000 A 
ATOM     12  C   UNL     1       2.457   5.514  19.643  0.00  0.00    +0.000 A 
ATOM     13  C   UNL     1       3.262   4.270  19.549  0.00  0.00    +0.000 A 
ATOM     14  N   UNL     1       4.316   4.091  18.813  0.00  0.00    +0.000 NA
ATOM     15  C   UNL     1       4.725   5.161  18.061  0.00  0.00    +0.000 A 
BRANCH   7  16
ATOM     16  C   UNL     1       6.682   4.358  16.619  0.00  0.00    +0.000 C 
ATOM     17  O   UNL     1       7.879   4.399  16.883  0.00  0.00    +0.000 OA
BRANCH  16  18
ATOM     18  O   UNL     1       6.126   3.511  15.710  0.00  0.00    +0.000 OA
BRANCH  18  20
ATOM     19  C   UNL     1       6.448   3.859  13.373  0.00  0.00    +0.000 C 
ATOM     20  C   UNL     1       5.550   4.145  14.565  0.00  0.00    +0.000 C 
ENDBRANCH  18  20
ENDBRANCH  16  18
ENDBRANCH   7  16
ENDBRANCH   1  11
BRANCH   5  21
ATOM     21  N   UNL     1       0.308   9.919  21.339  0.00  0.00    +0.000 N 
ATOM     22  C   UNL     1      -0.501  11.032  21.464  0.00  0.00    +0.000 C 
ATOM     23  O   UNL     1      -0.925  11.695  20.520  0.00  0.00    +0.000 OA
ATOM     24  N   UNL     1      -0.764  11.329  22.794  0.00  0.00    +0.000 N 
ATOM     25  H   UNL     1       0.236   9.236  22.081  0.00  0.00    +0.000 HD
ATOM     26  H   UNL     1       0.004  11.125  23.418  0.00  0.00    +0.000 HD
BRANCH  24  27
ATOM     27  C   UNL     1      -1.607  12.408  23.144  0.00  0.00    +0.000 A 
ATOM     28  C   UNL     1      -1.091  13.679  23.419  0.00  0.00    +0.000 A 
ATOM     29  C   UNL     1      -1.936  14.715  23.816  0.00  0.00    +0.000 A 
ATOM     30  C   UNL     1      -3.301  14.484  23.955  0.00  0.00    +0.000 A 
ATOM     31  C   UNL     1      -3.838  13.217  23.676  0.00  0.00    +0.000 A 
ATOM     32  C   UNL     1      -2.982  12.188  23.241  0.00  0.00    +0.000 A 
BRANCH  31  33
ATOM     33  C   UNL     1      -5.305  12.934  23.881  0.00  0.00    +0.000 C 
ATOM     34  F   UNL     1      -5.559  12.073  24.905  0.00  0.00    +0.000 F 
ATOM     35  F   UNL     1      -6.016  14.062  24.154  0.00  0.00    +0.000 F 
ATOM     36  F   UNL     1      -5.886  12.385  22.778  0.00  0.00    +0.000 F 
ENDBRANCH  31  33
ENDBRANCH  24  27
ENDBRANCH   5  21
TORSDOF 7
ENDMDL
MODEL 8
REMARK VINA RESULT:      -8.2      6.234     11.584
REMARK  Name = 
REMARK  8 active torsions:
REMARK  status: ('A' for Active; 'I' for Inactive)
REMARK    1  A    between atoms: C_1  and  C_2
REMARK    2  A    between atoms: C_2  and  O_3
REMARK    3  A    between atoms: O_3  and  C_4
REMARK    4  A    between atoms: C_4  and  C_6
REMARK    5  A    between atoms: C_10  and  C_11
REMARK    6  A    between atoms: C_15  and  N_16
REMARK    7  A    between atoms: N_19  and  C_20
REMARK    8  A    between atoms: C_24  and  C_25
REMARK                            x       y       z     vdW  Elec       q    Type
REMARK                         _______ _______ _______ _____ _____    ______ ____
ROOT
ATOM      1  C   UNL     1       2.202   7.129  18.983  0.00  0.00    +0.000 A 
ATOM      2  C   UNL     1       1.816   6.973  20.320  0.00  0.00    +0.000 A 
ATOM      3  C   UNL     1       1.187   8.019  20.985  0.00  0.00    +0.000 A 
ATOM      4  C   UNL     1       0.962   9.230  20.327  0.00  0.00    +0.000 A 
ATOM      5  C   UNL     1       1.371   9.413  19.001  0.00  0.00    +0.000 A 
ATOM      6  C   UNL     1       1.972   8.348  18.325  0.00  0.00    +0.000 A 
ENDROOT
BRANCH   1  11
ATOM      7  C   UNL     1       5.879   5.527  16.522  0.00  0.00    +0.000 A 
ATOM      8  C   UNL     1       5.990   6.823  17.057  0.00  0.00    +0.000 A 
ATOM      9  N   UNL     1       4.932   7.187  17.777  0.00  0.00    +0.000 NA
ATOM     10  N   UNL     1       4.092   6.120  17.710  0.00  0.00    +0.000 N 
ATOM     11  C   UNL     1       2.807   6.003  18.259  0.00  0.00    +0.000 A 
ATOM     12  C   UNL     1       2.118   4.858  18.112  0.00  0.00    +0.000 A 
ATOM     13  C   UNL     1       2.819   3.788  17.358  0.00  0.00    +0.000 A 
ATOM     14  N   UNL     1       3.998   3.872  16.823  0.00  0.00    +0.000 NA
ATOM     15  C   UNL     1       4.659   5.062  16.983  0.00  0.00    +0.000 A 
BRANCH   7  16
ATOM     16  C   UNL     1       6.828   4.903  15.634  0.00  0.00    +0.000 C 
ATOM     17  O   UNL     1       7.899   4.458  16.032  0.00  0.00    +0.000 OA
BRANCH  16  18
ATOM     18  O   UNL     1       6.477   4.993  14.322  0.00  0.00    +0.000 OA
BRANCH  18  20
ATOM     19  C   UNL     1       6.549   3.737  12.296  0.00  0.00    +0.000 C 
ATOM     20  C   UNL     1       6.038   3.768  13.726  0.00  0.00    +0.000 C 
ENDBRANCH  18  20
ENDBRANCH  16  18
ENDBRANCH   7  16
ENDBRANCH   1  11
BRANCH   5  21
ATOM     21  N   UNL     1       1.173  10.628  18.309  0.00  0.00    +0.000 N 
ATOM     22  C   UNL     1       1.335  11.880  18.872  0.00  0.00    +0.000 C 
ATOM     23  O   UNL     1       1.822  12.089  19.981  0.00  0.00    +0.000 OA
ATOM     24  N   UNL     1       0.860  12.883  18.038  0.00  0.00    +0.000 N 
ATOM     25  H   UNL     1       1.184  10.595  17.299  0.00  0.00    +0.000 HD
ATOM     26  H   UNL     1       0.049  12.615  17.497  0.00  0.00    +0.000 HD
BRANCH  24  27
ATOM     27  C   UNL     1       0.966  14.244  18.405  0.00  0.00    +0.000 A 
ATOM     28  C   UNL     1       2.206  14.887  18.474  0.00  0.00    +0.000 A 
ATOM     29  C   UNL     1       2.292  16.215  18.891  0.00  0.00    +0.000 A 
ATOM     30  C   UNL     1       1.140  16.904  19.258  0.00  0.00    +0.000 A 
ATOM     31  C   UNL     1      -0.114  16.277  19.189  0.00  0.00    +0.000 A 
ATOM     32  C   UNL     1      -0.194  14.948  18.731  0.00  0.00    +0.000 A 
BRANCH  31  33
ATOM     33  C   UNL     1      -1.363  16.989  19.642  0.00  0.00    +0.000 C 
ATOM     34  F   UNL     1      -2.237  16.191  20.315  0.00  0.00    +0.000 F 
ATOM     35  F   UNL     1      -1.092  18.032  20.474  0.00  0.00    +0.000 F 
ATOM     36  F   UNL     1      -2.065  17.517  18.600  0.00  0.00    +0.000 F 
ENDBRANCH  31  33
ENDBRANCH  24  27
ENDBRANCH   5  21
TORSDOF 7
ENDMDL
MODEL 9
REMARK VINA RESULT:      -8.2      2.376      3.050
REMARK  Name = 
REMARK  8 active torsions:
REMARK  status: ('A' for Active; 'I' for Inactive)
REMARK    1  A    between atoms: C_1  and  C_2
REMARK    2  A    between atoms: C_2  and  O_3
REMARK    3  A    between atoms: O_3  and  C_4
REMARK    4  A    between atoms: C_4  and  C_6
REMARK    5  A    between atoms: C_10  and  C_11
REMARK    6  A    between atoms: C_15  and  N_16
REMARK    7  A    between atoms: N_19  and  C_20
REMARK    8  A    between atoms: C_24  and  C_25
REMARK                            x       y       z     vdW  Elec       q    Type
REMARK                         _______ _______ _______ _____ _____    ______ ____
ROOT
ATOM      1  C   UNL     1      -1.028  11.710  18.529  0.00  0.00    +0.000 A 
ATOM      2  C   UNL     1      -0.355  12.936  18.470  0.00  0.00    +0.000 A 
ATOM      3  C   UNL     1       0.989  13.005  18.817  0.00  0.00    +0.000 A 
ATOM      4  C   UNL     1       1.659  11.857  19.245  0.00  0.00    +0.000 A 
ATOM      5  C   UNL     1       0.992  10.631  19.341  0.00  0.00    +0.000 A 
ATOM      6  C   UNL     1      -0.349  10.558  18.959  0.00  0.00    +0.000 A 
ENDROOT
BRANCH   1  11
ATOM      7  C   UNL     1      -5.555  12.338  19.650  0.00  0.00    +0.000 A 
ATOM      8  C   UNL     1      -4.603  12.741  20.604  0.00  0.00    +0.000 A 
ATOM      9  N   UNL     1      -3.348  12.574  20.198  0.00  0.00    +0.000 NA
ATOM     10  N   UNL     1      -3.462  12.038  18.954  0.00  0.00    +0.000 N 
ATOM     11  C   UNL     1      -2.430  11.622  18.100  0.00  0.00    +0.000 A 
ATOM     12  C   UNL     1      -2.725  11.128  16.884  0.00  0.00    +0.000 A 
ATOM     13  C   UNL     1      -4.172  11.077  16.555  0.00  0.00    +0.000 A 
ATOM     14  N   UNL     1      -5.150  11.436  17.329  0.00  0.00    +0.000 NA
ATOM     15  C   UNL     1      -4.805  11.919  18.564  0.00  0.00    +0.000 A 
BRANCH   7  16
ATOM     16  C   UNL     1      -6.983  12.322  19.846  0.00  0.00    +0.000 C 
ATOM     17  O   UNL     1      -7.617  11.276  19.940  0.00  0.00    +0.000 OA
BRANCH  16  18
ATOM     18  O   UNL     1      -7.551  13.557  19.770  0.00  0.00    +0.000 OA
BRANCH  18  20
ATOM     19  C   UNL     1      -7.909  14.230  17.510  0.00  0.00    +0.000 C 
ATOM     20  C   UNL     1      -7.030  14.400  18.738  0.00  0.00    +0.000 C 
ENDBRANCH  18  20
ENDBRANCH  16  18
ENDBRANCH   7  16
ENDBRANCH   1  11
BRANCH   5  21
ATOM     21  N   UNL     1       1.634   9.452  19.785  0.00  0.00    +0.000 N 
ATOM     22  C   UNL     1       1.876   8.350  18.987  0.00  0.00    +0.000 C 
ATOM     23  O   UNL     1       1.712   8.321  17.769  0.00  0.00    +0.000 OA
ATOM     24  N   UNL     1       2.310   7.263  19.732  0.00  0.00    +0.000 N 
ATOM     25  H   UNL     1       2.184   9.513  20.630  0.00  0.00    +0.000 HD
ATOM     26  H   UNL     1       1.895   7.205  20.651  0.00  0.00    +0.000 HD
BRANCH  24  27
ATOM     27  C   UNL     1       2.653   6.043  19.105  0.00  0.00    +0.000 A 
ATOM     28  C   UNL     1       3.588   5.994  18.066  0.00  0.00    +0.000 A 
ATOM     29  C   UNL     1       3.871   4.789  17.425  0.00  0.00    +0.000 A 
ATOM     30  C   UNL     1       3.209   3.626  17.808  0.00  0.00    +0.000 A 
ATOM     31  C   UNL     1       2.273   3.654  18.853  0.00  0.00    +0.000 A 
ATOM     32  C   UNL     1       2.022   4.869  19.519  0.00  0.00    +0.000 A 
BRANCH  31  33
ATOM     33  C   UNL     1       1.503   2.417  19.239  0.00  0.00    +0.000 C 
ATOM     34  F   UNL     1       2.158   1.255  18.963  0.00  0.00    +0.000 F 
ATOM     35  F   UNL     1       1.218   2.378  20.570  0.00  0.00    +0.000 F 
ATOM     36  F   UNL     1       0.303   2.332  18.599  0.00  0.00    +0.000 F 
ENDBRANCH  31  33
ENDBRANCH  24  27
ENDBRANCH   5  21
TORSDOF 7
ENDMDL
