MODEL 1
REMARK VINA RESULT:      -7.9      0.000      0.000
REMARK  Name = 
REMARK  8 active torsions:
REMARK  status: ('A' for Active; 'I' for Inactive)
REMARK    1  A    between atoms: C_1  and  O_2
REMARK    2  A    between atoms: O_2  and  C_3
REMARK    3  A    between atoms: C_3  and  C_4
REMARK    4  A    between atoms: C_4  and  N_5
REMARK    5  A    between atoms: N_5  and  S_6
REMARK    6  A    between atoms: S_6  and  C_9
REMARK    7  A    between atoms: C_12  and  N_13
REMARK    8  A    between atoms: C_18  and  C_19
REMARK                            x       y       z     vdW  Elec       q    Type
REMARK                         _______ _______ _______ _____ _____    ______ ____
ROOT
ATOM      1  N   UNL     1       1.900   8.530  21.019  0.00  0.00    +0.000 N 
ATOM      2  C   UNL     1       0.805   9.409  20.989  0.00  0.00    +0.000 A 
ATOM      3  N   UNL     1       0.635  10.216  22.045  0.00  0.00    +0.000 NA
ATOM      4  C   UNL     1      -0.340  11.134  21.957  0.00  0.00    +0.000 A 
ATOM      5  C   UNL     1      -1.112  11.310  20.841  0.00  0.00    +0.000 A 
ATOM      6  C   UNL     1      -0.868  10.441  19.804  0.00  0.00    +0.000 A 
ATOM      7  N   UNL     1       0.067   9.477  19.873  0.00  0.00    +0.000 NA
ATOM      8  H   UNL     1       2.704   9.122  20.833  0.00  0.00    +0.000 HD
ENDROOT
BRANCH   6   9
ATOM      9  C   UNL     1      -1.601  10.460  18.553  0.00  0.00    +0.000 A 
ATOM     10  C   UNL     1      -1.269   9.952  17.307  0.00  0.00    +0.000 A 
ATOM     11  N   UNL     1      -2.271  10.158  16.390  0.00  0.00    +0.000 NA
ATOM     12  C   UNL     1      -3.191  10.829  17.036  0.00  0.00    +0.000 A 
ATOM     13  C   UNL     1      -4.442  11.320  16.607  0.00  0.00    +0.000 A 
ATOM     14  C   UNL     1      -5.209  12.009  17.474  0.00  0.00    +0.000 A 
ATOM     15  C   UNL     1      -4.673  12.206  18.839  0.00  0.00    +0.000 A 
ATOM     16  N   UNL     1      -3.546  11.757  19.295  0.00  0.00    +0.000 NA
ATOM     17  N   UNL     1      -2.829  11.062  18.355  0.00  0.00    +0.000 N 
ENDBRANCH   6   9
BRANCH   1  21
ATOM     18  C   UNL     1       2.323   4.879  18.975  0.00  0.00    +0.000 A 
ATOM     19  C   UNL     1       2.693   6.070  18.349  0.00  0.00    +0.000 A 
ATOM     20  C   UNL     1       2.536   7.280  19.028  0.00  0.00    +0.000 A 
ATOM     21  C   UNL     1       1.971   7.312  20.311  0.00  0.00    +0.000 A 
ATOM     22  C   UNL     1       1.616   6.100  20.923  0.00  0.00    +0.000 A 
ATOM     23  C   UNL     1       1.770   4.887  20.256  0.00  0.00    +0.000 A 
BRANCH  18  24
ATOM     24  S   UNL     1       2.583   3.324  18.156  0.00  0.00    +0.000 S 
ATOM     25  O   UNL     1       1.962   3.392  16.854  0.00  0.00    +0.000 OA
ATOM     26  O   UNL     1       2.262   2.293  19.117  0.00  0.00    +0.000 OA
BRANCH  24  27
ATOM     27  N   UNL     1       4.267   3.345  17.949  0.00  0.00    +0.000 NA
ATOM     28  H   UNL     1       4.728   3.942  18.635  0.00  0.00    +0.000 HD
BRANCH  27  29
ATOM     29  C   UNL     1       4.727   3.601  16.562  0.00  0.00    +0.000 C 
BRANCH  29  30
ATOM     30  C   UNL     1       5.696   4.785  16.509  0.00  0.00    +0.000 C 
BRANCH  30  32
ATOM     31  C   UNL     1       7.655   4.674  17.825  0.00  0.00    +0.000 C 
ATOM     32  O   UNL     1       7.042   4.317  16.596  0.00  0.00    +0.000 OA
ENDBRANCH  30  32
ENDBRANCH  29  30
ENDBRANCH  27  29
ENDBRANCH  24  27
ENDBRANCH  18  24
ENDBRANCH   1  21
TORSDOF 7
ENDMDL
MODEL 2
REMARK VINA RESULT:      -7.4      0.759      1.190
REMARK  Name = 
REMARK  8 active torsions:
REMARK  status: ('A' for Active; 'I' for Inactive)
REMARK    1  A    between atoms: C_1  and  O_2
REMARK    2  A    between atoms: O_2  and  C_3
REMARK    3  A    between atoms: C_3  and  C_4
REMARK    4  A    between atoms: C_4  and  N_5
REMARK    5  A    between atoms: N_5  and  S_6
REMARK    6  A    between atoms: S_6  and  C_9
REMARK    7  A    between atoms: C_12  and  N_13
REMARK    8  A    between atoms: C_18  and  C_19
REMARK                            x       y       z     vdW  Elec       q    Type
REMARK                         _______ _______ _______ _____ _____    ______ ____
ROOT
ATOM      1  N   UNL     1       1.746   8.932  21.257  0.00  0.00    +0.000 N 
ATOM      2  C   UNL     1       0.616   9.760  21.155  0.00  0.00    +0.000 A 
ATOM      3  N   UNL     1       0.360  10.581  22.182  0.00  0.00    +0.000 NA
ATOM      4  C   UNL     1      -0.650  11.452  22.026  0.00  0.00    +0.000 A 
ATOM      5  C   UNL     1      -1.374  11.569  20.871  0.00  0.00    +0.000 A 
ATOM      6  C   UNL     1      -1.042  10.689  19.868  0.00  0.00    +0.000 A 
ATOM      7  N   UNL     1      -0.070   9.770  20.004  0.00  0.00    +0.000 NA
ATOM      8  H   UNL     1       2.530   9.556  21.096  0.00  0.00    +0.000 HD
ENDROOT
BRANCH   6   9
ATOM      9  C   UNL     1      -1.714  10.648  18.584  0.00  0.00    +0.000 A 
ATOM     10  C   UNL     1      -1.291  10.152  17.362  0.00  0.00    +0.000 A 
ATOM     11  N   UNL     1      -2.259  10.282  16.396  0.00  0.00    +0.000 NA
ATOM     12  C   UNL     1      -3.251  10.896  16.989  0.00  0.00    +0.000 A 
ATOM     13  C   UNL     1      -4.510  11.299  16.496  0.00  0.00    +0.000 A 
ATOM     14  C   UNL     1      -5.362  11.942  17.318  0.00  0.00    +0.000 A 
ATOM     15  C   UNL     1      -4.905  12.187  18.703  0.00  0.00    +0.000 A 
ATOM     16  N   UNL     1      -3.774  11.819  19.218  0.00  0.00    +0.000 NA
ATOM     17  N   UNL     1      -2.969  11.165  18.321  0.00  0.00    +0.000 N 
ENDBRANCH   6   9
BRANCH   1  21
ATOM     18  C   UNL     1       2.009   5.288  19.175  0.00  0.00    +0.000 A 
ATOM     19  C   UNL     1       1.500   5.308  20.474  0.00  0.00    +0.000 A 
ATOM     20  C   UNL     1       1.429   6.520  21.165  0.00  0.00    +0.000 A 
ATOM     21  C   UNL     1       1.904   7.704  20.583  0.00  0.00    +0.000 A 
ATOM     22  C   UNL     1       2.403   7.659  19.272  0.00  0.00    +0.000 A 
ATOM     23  C   UNL     1       2.477   6.456  18.572  0.00  0.00    +0.000 A 
BRANCH  18  24
ATOM     24  S   UNL     1       2.039   3.769  18.253  0.00  0.00    +0.000 S 
ATOM     25  O   UNL     1       1.148   3.911  17.126  0.00  0.00    +0.000 OA
ATOM     26  O   UNL     1       1.909   2.700  19.217  0.00  0.00    +0.000 OA
BRANCH  24  27
ATOM     27  N   UNL     1       3.635   3.770  17.679  0.00  0.00    +0.000 NA
ATOM     28  H   UNL     1       3.767   3.101  16.920  0.00  0.00    +0.000 HD
BRANCH  27  29
ATOM     29  C   UNL     1       4.681   3.668  18.725  0.00  0.00    +0.000 C 
BRANCH  29  30
ATOM     30  C   UNL     1       5.922   4.483  18.350  0.00  0.00    +0.000 C 
BRANCH  30  32
ATOM     31  C   UNL     1       6.919   4.503  16.209  0.00  0.00    +0.000 C 
ATOM     32  O   UNL     1       5.821   4.930  16.999  0.00  0.00    +0.000 OA
ENDBRANCH  30  32
ENDBRANCH  29  30
ENDBRANCH  27  29
ENDBRANCH  24  27
ENDBRANCH  18  24
ENDBRANCH   1  21
TORSDOF 7
ENDMDL
MODEL 3
REMARK VINA RESULT:      -7.3      4.699      9.368
REMARK  Name = 
REMARK  8 active torsions:
REMARK  status: ('A' for Active; 'I' for Inactive)
REMARK    1  A    between atoms: C_1  and  O_2
REMARK    2  A    between atoms: O_2  and  C_3
REMARK    3  A    between atoms: C_3  and  C_4
REMARK    4  A    between atoms: C_4  and  N_5
REMARK    5  A    between atoms: N_5  and  S_6
REMARK    6  A    between atoms: S_6  and  C_9
REMARK    7  A    between atoms: C_12  and  N_13
REMARK    8  A    between atoms: C_18  and  C_19
REMARK                            x       y       z     vdW  Elec       q    Type
REMARK                         _______ _______ _______ _____ _____    ______ ____
ROOT
ATOM      1  N   UNL     1       1.724   5.850  20.003  0.00  0.00    +0.000 N 
ATOM      2  C   UNL     1       2.885   5.075  19.844  0.00  0.00    +0.000 A 
ATOM      3  N   UNL     1       2.927   3.894  20.475  0.00  0.00    +0.000 NA
ATOM      4  C   UNL     1       3.985   3.107  20.223  0.00  0.00    +0.000 A 
ATOM      5  C   UNL     1       4.969   3.431  19.329  0.00  0.00    +0.000 A 
ATOM      6  C   UNL     1       4.844   4.659  18.724  0.00  0.00    +0.000 A 
ATOM      7  N   UNL     1       3.825   5.495  18.988  0.00  0.00    +0.000 NA
ATOM      8  H   UNL     1       1.032   5.390  19.420  0.00  0.00    +0.000 HD
ENDROOT
BRANCH   6   9
ATOM      9  C   UNL     1       5.801   5.182  17.769  0.00  0.00    +0.000 A 
ATOM     10  C   UNL     1       6.781   6.152  17.913  0.00  0.00    +0.000 A 
ATOM     11  N   UNL     1       7.500   6.326  16.756  0.00  0.00    +0.000 NA
ATOM     12  C   UNL     1       6.947   5.518  15.887  0.00  0.00    +0.000 A 
ATOM     13  C   UNL     1       7.260   5.270  14.534  0.00  0.00    +0.000 A 
ATOM     14  C   UNL     1       6.515   4.390  13.838  0.00  0.00    +0.000 A 
ATOM     15  C   UNL     1       5.400   3.736  14.557  0.00  0.00    +0.000 A 
ATOM     16  N   UNL     1       5.082   3.904  15.802  0.00  0.00    +0.000 NA
ATOM     17  N   UNL     1       5.892   4.808  16.441  0.00  0.00    +0.000 N 
ENDBRANCH   6   9
BRANCH   1  21
ATOM     18  C   UNL     1       1.362  10.014  19.541  0.00  0.00    +0.000 A 
ATOM     19  C   UNL     1       1.750   9.228  18.455  0.00  0.00    +0.000 A 
ATOM     20  C   UNL     1       1.883   7.848  18.620  0.00  0.00    +0.000 A 
ATOM     21  C   UNL     1       1.673   7.253  19.872  0.00  0.00    +0.000 A 
ATOM     22  C   UNL     1       1.274   8.064  20.946  0.00  0.00    +0.000 A 
ATOM     23  C   UNL     1       1.136   9.442  20.794  0.00  0.00    +0.000 A 
BRANCH  18  24
ATOM     24  S   UNL     1       1.116  11.761  19.333  0.00  0.00    +0.000 S 
ATOM     25  O   UNL     1      -0.256  11.978  18.938  0.00  0.00    +0.000 OA
ATOM     26  O   UNL     1       2.234  12.245  18.554  0.00  0.00    +0.000 OA
BRANCH  24  27
ATOM     27  N   UNL     1       1.308  12.308  20.927  0.00  0.00    +0.000 NA
ATOM     28  H   UNL     1       1.130  11.569  21.607  0.00  0.00    +0.000 HD
BRANCH  27  29
ATOM     29  C   UNL     1       0.600  13.570  21.250  0.00  0.00    +0.000 C 
BRANCH  29  30
ATOM     30  C   UNL     1      -0.518  13.334  22.269  0.00  0.00    +0.000 C 
BRANCH  30  32
ATOM     31  C   UNL     1      -1.626  11.401  23.054  0.00  0.00    +0.000 C 
ATOM     32  O   UNL     1      -0.376  12.041  22.857  0.00  0.00    +0.000 OA
ENDBRANCH  30  32
ENDBRANCH  29  30
ENDBRANCH  27  29
ENDBRANCH  24  27
ENDBRANCH  18  24
ENDBRANCH   1  21
TORSDOF 7
ENDMDL
MODEL 4
REMARK VINA RESULT:      -7.2      3.826      9.253
REMARK  Name = 
REMARK  8 active torsions:
REMARK  status: ('A' for Active; 'I' for Inactive)
REMARK    1  A    between atoms: C_1  and  O_2
REMARK    2  A    between atoms: O_2  and  C_3
REMARK    3  A    between atoms: C_3  and  C_4
REMARK    4  A    between atoms: C_4  and  N_5
REMARK    5  A    between atoms: N_5  and  S_6
REMARK    6  A    between atoms: S_6  and  C_9
REMARK    7  A    between atoms: C_12  and  N_13
REMARK    8  A    between atoms: C_18  and  C_19
REMARK                            x       y       z     vdW  Elec       q    Type
REMARK                         _______ _______ _______ _____ _____    ______ ____
ROOT
ATOM      1  N   UNL     1       1.536   5.424  20.267  0.00  0.00    +0.000 N 
ATOM      2  C   UNL     1       2.686   4.624  20.172  0.00  0.00    +0.000 A 
ATOM      3  N   UNL     1       2.645   3.416  20.752  0.00  0.00    +0.000 NA
ATOM      4  C   UNL     1       3.701   2.611  20.555  0.00  0.00    +0.000 A 
ATOM      5  C   UNL     1       4.766   2.944  19.762  0.00  0.00    +0.000 A 
ATOM      6  C   UNL     1       4.723   4.200  19.205  0.00  0.00    +0.000 A 
ATOM      7  N   UNL     1       3.707   5.053  19.418  0.00  0.00    +0.000 NA
ATOM      8  H   UNL     1       0.885   5.009  19.608  0.00  0.00    +0.000 HD
ENDROOT
BRANCH   6   9
ATOM      9  C   UNL     1       5.771   4.735  18.357  0.00  0.00    +0.000 A 
ATOM     10  C   UNL     1       6.874   5.513  18.671  0.00  0.00    +0.000 A 
ATOM     11  N   UNL     1       7.643   5.778  17.564  0.00  0.00    +0.000 NA
ATOM     12  C   UNL     1       7.005   5.220  16.566  0.00  0.00    +0.000 A 
ATOM     13  C   UNL     1       7.318   5.165  15.191  0.00  0.00    +0.000 A 
ATOM     14  C   UNL     1       6.475   4.534  14.351  0.00  0.00    +0.000 A 
ATOM     15  C   UNL     1       5.258   3.935  14.942  0.00  0.00    +0.000 A 
ATOM     16  N   UNL     1       4.933   3.931  16.196  0.00  0.00    +0.000 NA
ATOM     17  N   UNL     1       5.845   4.586  16.984  0.00  0.00    +0.000 N 
ENDBRANCH   6   9
BRANCH   1  21
ATOM     18  C   UNL     1       1.316   9.613  19.965  0.00  0.00    +0.000 A 
ATOM     19  C   UNL     1       1.750   8.862  18.873  0.00  0.00    +0.000 A 
ATOM     20  C   UNL     1       1.835   7.472  18.985  0.00  0.00    +0.000 A 
ATOM     21  C   UNL     1       1.531   6.832  20.194  0.00  0.00    +0.000 A 
ATOM     22  C   UNL     1       1.086   7.609  21.276  0.00  0.00    +0.000 A 
ATOM     23  C   UNL     1       0.996   8.996  21.175  0.00  0.00    +0.000 A 
BRANCH  18  24
ATOM     24  S   UNL     1       1.131  11.374  19.818  0.00  0.00    +0.000 S 
ATOM     25  O   UNL     1       1.710  11.783  18.560  0.00  0.00    +0.000 OA
ATOM     26  O   UNL     1       1.543  11.938  21.084  0.00  0.00    +0.000 OA
BRANCH  24  27
ATOM     27  N   UNL     1      -0.556  11.514  19.703  0.00  0.00    +0.000 NA
ATOM     28  H   UNL     1      -1.032  10.677  20.039  0.00  0.00    +0.000 HD
BRANCH  27  29
ATOM     29  C   UNL     1      -1.060  11.973  18.386  0.00  0.00    +0.000 C 
BRANCH  29  30
ATOM     30  C   UNL     1      -1.827  10.860  17.667  0.00  0.00    +0.000 C 
BRANCH  30  32
ATOM     31  C   UNL     1      -4.128  11.375  17.814  0.00  0.00    +0.000 C 
ATOM     32  O   UNL     1      -2.966  11.404  17.001  0.00  0.00    +0.000 OA
ENDBRANCH  30  32
ENDBRANCH  29  30
ENDBRANCH  27  29
ENDBRANCH  24  27
ENDBRANCH  18  24
ENDBRANCH   1  21
TORSDOF 7
ENDMDL
MODEL 5
REMARK VINA RESULT:      -7.2      2.516      3.562
REMARK  Name = 
REMARK  8 active torsions:
REMARK  status: ('A' for Active; 'I' for Inactive)
REMARK    1  A    between atoms: C_1  and  O_2
REMARK    2  A    between atoms: O_2  and  C_3
REMARK    3  A    between atoms: C_3  and  C_4
REMARK    4  A    between atoms: C_4  and  N_5
REMARK    5  A    between atoms: N_5  and  S_6
REMARK    6  A    between atoms: S_6  and  C_9
REMARK    7  A    between atoms: C_12  and  N_13
REMARK    8  A    between atoms: C_18  and  C_19
REMARK                            x       y       z     vdW  Elec       q    Type
REMARK                         _______ _______ _______ _____ _____    ______ ____
ROOT
ATOM      1  N   UNL     1       1.903   8.098  17.763  0.00  0.00    +0.000 N 
ATOM      2  C   UNL     1       1.799   9.358  18.374  0.00  0.00    +0.000 A 
ATOM      3  N   UNL     1       2.289  10.409  17.701  0.00  0.00    +0.000 NA
ATOM      4  C   UNL     1       2.079  11.623  18.235  0.00  0.00    +0.000 A 
ATOM      5  C   UNL     1       1.358  11.829  19.380  0.00  0.00    +0.000 A 
ATOM      6  C   UNL     1       0.890  10.696  20.002  0.00  0.00    +0.000 A 
ATOM      7  N   UNL     1       1.121   9.461  19.525  0.00  0.00    +0.000 NA
ATOM      8  H   UNL     1       1.189   8.108  17.042  0.00  0.00    +0.000 HD
ENDROOT
BRANCH   6   9
ATOM      9  C   UNL     1       0.128  10.716  21.235  0.00  0.00    +0.000 A 
ATOM     10  C   UNL     1       0.301  10.007  22.413  0.00  0.00    +0.000 A 
ATOM     11  N   UNL     1      -0.633  10.352  23.359  0.00  0.00    +0.000 NA
ATOM     12  C   UNL     1      -1.409  11.224  22.766  0.00  0.00    +0.000 A 
ATOM     13  C   UNL     1      -2.538  11.924  23.243  0.00  0.00    +0.000 A 
ATOM     14  C   UNL     1      -3.186  12.767  22.417  0.00  0.00    +0.000 A 
ATOM     15  C   UNL     1      -2.658  12.899  21.041  0.00  0.00    +0.000 A 
ATOM     16  N   UNL     1      -1.613  12.305  20.557  0.00  0.00    +0.000 NA
ATOM     17  N   UNL     1      -1.007  11.472  21.462  0.00  0.00    +0.000 N 
ENDBRANCH   6   9
BRANCH   1  21
ATOM     18  C   UNL     1       2.192   4.405  19.756  0.00  0.00    +0.000 A 
ATOM     19  C   UNL     1       1.759   4.445  18.430  0.00  0.00    +0.000 A 
ATOM     20  C   UNL     1       1.651   5.676  17.779  0.00  0.00    +0.000 A 
ATOM     21  C   UNL     1       1.931   6.871  18.457  0.00  0.00    +0.000 A 
ATOM     22  C   UNL     1       2.374   6.804  19.788  0.00  0.00    +0.000 A 
ATOM     23  C   UNL     1       2.488   5.581  20.446  0.00  0.00    +0.000 A 
BRANCH  18  24
ATOM     24  S   UNL     1       2.407   2.844  20.576  0.00  0.00    +0.000 S 
ATOM     25  O   UNL     1       1.696   1.839  19.821  0.00  0.00    +0.000 OA
ATOM     26  O   UNL     1       2.160   3.081  21.981  0.00  0.00    +0.000 OA
BRANCH  24  27
ATOM     27  N   UNL     1       4.071   2.595  20.368  0.00  0.00    +0.000 NA
ATOM     28  H   UNL     1       4.618   3.034  21.108  0.00  0.00    +0.000 HD
BRANCH  27  29
ATOM     29  C   UNL     1       4.588   2.900  19.011  0.00  0.00    +0.000 C 
BRANCH  29  30
ATOM     30  C   UNL     1       5.496   4.133  19.028  0.00  0.00    +0.000 C 
BRANCH  30  32
ATOM     31  C   UNL     1       5.055   4.177  16.708  0.00  0.00    +0.000 C 
ATOM     32  O   UNL     1       5.232   4.947  17.886  0.00  0.00    +0.000 OA
ENDBRANCH  30  32
ENDBRANCH  29  30
ENDBRANCH  27  29
ENDBRANCH  24  27
ENDBRANCH  18  24
ENDBRANCH   1  21
TORSDOF 7
ENDMDL
MODEL 6
REMARK VINA RESULT:      -7.2      4.260      6.350
REMARK  Name = 
REMARK  8 active torsions:
REMARK  status: ('A' for Active; 'I' for Inactive)
REMARK    1  A    between atoms: C_1  and  O_2
REMARK    2  A    between atoms: O_2  and  C_3
REMARK    3  A    between atoms: C_3  and  C_4
REMARK    4  A    between atoms: C_4  and  N_5
REMARK    5  A    between atoms: N_5  and  S_6
REMARK    6  A    between atoms: S_6  and  C_9
REMARK    7  A    between atoms: C_12  and  N_13
REMARK    8  A    between atoms: C_18  and  C_19
REMARK                            x       y       z     vdW  Elec       q    Type
REMARK                         _______ _______ _______ _____ _____    ______ ____
ROOT
ATOM      1  N   UNL     1      -0.117  10.859  19.416  0.00  0.00    +0.000 N 
ATOM      2  C   UNL     1       0.228  12.221  19.410  0.00  0.00    +0.000 A 
ATOM      3  N   UNL     1      -0.736  13.097  19.095  0.00  0.00    +0.000 NA
ATOM      4  C   UNL     1      -0.432  14.400  19.208  0.00  0.00    +0.000 A 
ATOM      5  C   UNL     1       0.771  14.856  19.672  0.00  0.00    +0.000 A 
ATOM      6  C   UNL     1       1.699  13.888  19.974  0.00  0.00    +0.000 A 
ATOM      7  N   UNL     1       1.450  12.576  19.828  0.00  0.00    +0.000 NA
ATOM      8  H   UNL     1      -0.656  10.739  20.268  0.00  0.00    +0.000 HD
ENDROOT
BRANCH   6   9
ATOM      9  C   UNL     1       3.035  14.183  20.455  0.00  0.00    +0.000 A 
ATOM     10  C   UNL     1       3.533  14.248  21.747  0.00  0.00    +0.000 A 
ATOM     11  N   UNL     1       4.878  14.528  21.761  0.00  0.00    +0.000 NA
ATOM     12  C   UNL     1       5.206  14.687  20.504  0.00  0.00    +0.000 A 
ATOM     13  C   UNL     1       6.449  14.990  19.908  0.00  0.00    +0.000 A 
ATOM     14  C   UNL     1       6.521  15.120  18.570  0.00  0.00    +0.000 A 
ATOM     15  C   UNL     1       5.267  14.935  17.806  0.00  0.00    +0.000 A 
ATOM     16  N   UNL     1       4.106  14.630  18.295  0.00  0.00    +0.000 NA
ATOM     17  N   UNL     1       4.118  14.509  19.660  0.00  0.00    +0.000 N 
ENDBRANCH   6   9
BRANCH   1  21
ATOM     18  C   UNL     1       2.426   7.569  18.784  0.00  0.00    +0.000 A 
ATOM     19  C   UNL     1       1.890   7.797  20.051  0.00  0.00    +0.000 A 
ATOM     20  C   UNL     1       1.058   8.899  20.258  0.00  0.00    +0.000 A 
ATOM     21  C   UNL     1       0.794   9.801  19.217  0.00  0.00    +0.000 A 
ATOM     22  C   UNL     1       1.337   9.545  17.948  0.00  0.00    +0.000 A 
ATOM     23  C   UNL     1       2.167   8.447  17.730  0.00  0.00    +0.000 A 
BRANCH  18  24
ATOM     24  S   UNL     1       3.426   6.132  18.484  0.00  0.00    +0.000 S 
ATOM     25  O   UNL     1       4.734   6.574  18.060  0.00  0.00    +0.000 OA
ATOM     26  O   UNL     1       2.619   5.226  17.698  0.00  0.00    +0.000 OA
BRANCH  24  27
ATOM     27  N   UNL     1       3.557   5.496  20.051  0.00  0.00    +0.000 NA
ATOM     28  H   UNL     1       4.493   5.621  20.436  0.00  0.00    +0.000 HD
BRANCH  27  29
ATOM     29  C   UNL     1       3.048   4.113  20.214  0.00  0.00    +0.000 C 
BRANCH  29  30
ATOM     30  C   UNL     1       1.640   4.108  20.818  0.00  0.00    +0.000 C 
BRANCH  30  32
ATOM     31  C   UNL     1       0.719   2.678  19.178  0.00  0.00    +0.000 C 
ATOM     32  O   UNL     1       1.002   2.858  20.556  0.00  0.00    +0.000 OA
ENDBRANCH  30  32
ENDBRANCH  29  30
ENDBRANCH  27  29
ENDBRANCH  24  27
ENDBRANCH  18  24
ENDBRANCH   1  21
TORSDOF 7
ENDMDL
MODEL 7
REMARK VINA RESULT:      -7.2      4.348      6.012
REMARK  Name = 
REMARK  8 active torsions:
REMARK  status: ('A' for Active; 'I' for Inactive)
REMARK    1  A    between atoms: C_1  and  O_2
REMARK    2  A    between atoms: O_2  and  C_3
REMARK    3  A    between atoms: C_3  and  C_4
REMARK    4  A    between atoms: C_4  and  N_5
REMARK    5  A    between atoms: N_5  and  S_6
REMARK    6  A    between atoms: S_6  and  C_9
REMARK    7  A    between atoms: C_12  and  N_13
REMARK    8  A    between atoms: C_18  and  C_19
REMARK                            x       y       z     vdW  Elec       q    Type
REMARK                         _______ _______ _______ _____ _____    ______ ____
ROOT
ATOM      1  N   UNL     1      -0.082  10.945  19.375  0.00  0.00    +0.000 N 
ATOM      2  C   UNL     1       0.303  12.295  19.342  0.00  0.00    +0.000 A 
ATOM      3  N   UNL     1      -0.631  13.193  19.003  0.00  0.00    +0.000 NA
ATOM      4  C   UNL     1      -0.289  14.488  19.091  0.00  0.00    +0.000 A 
ATOM      5  C   UNL     1       0.925  14.918  19.552  0.00  0.00    +0.000 A 
ATOM      6  C   UNL     1       1.822  13.929  19.881  0.00  0.00    +0.000 A 
ATOM      7  N   UNL     1       1.534  12.621  19.760  0.00  0.00    +0.000 NA
ATOM      8  H   UNL     1      -0.629  10.859  20.225  0.00  0.00    +0.000 HD
ENDROOT
BRANCH   6   9
ATOM      9  C   UNL     1       3.163  14.192  20.363  0.00  0.00    +0.000 A 
ATOM     10  C   UNL     1       3.668  14.216  21.654  0.00  0.00    +0.000 A 
ATOM     11  N   UNL     1       5.016  14.478  21.670  0.00  0.00    +0.000 NA
ATOM     12  C   UNL     1       5.340  14.667  20.416  0.00  0.00    +0.000 A 
ATOM     13  C   UNL     1       6.585  14.971  19.824  0.00  0.00    +0.000 A 
ATOM     14  C   UNL     1       6.653  15.137  18.489  0.00  0.00    +0.000 A 
ATOM     15  C   UNL     1       5.394  14.989  17.727  0.00  0.00    +0.000 A 
ATOM     16  N   UNL     1       4.231  14.686  18.211  0.00  0.00    +0.000 NA
ATOM     17  N   UNL     1       4.247  14.526  19.573  0.00  0.00    +0.000 N 
ENDBRANCH   6   9
BRANCH   1  21
ATOM     18  C   UNL     1       2.363   7.566  18.832  0.00  0.00    +0.000 A 
ATOM     19  C   UNL     1       1.852   7.855  20.098  0.00  0.00    +0.000 A 
ATOM     20  C   UNL     1       1.054   8.987  20.274  0.00  0.00    +0.000 A 
ATOM     21  C   UNL     1       0.797   9.855  19.203  0.00  0.00    +0.000 A 
ATOM     22  C   UNL     1       1.314   9.536  17.937  0.00  0.00    +0.000 A 
ATOM     23  C   UNL     1       2.111   8.409  17.750  0.00  0.00    +0.000 A 
BRANCH  18  24
ATOM     24  S   UNL     1       3.320   6.091  18.574  0.00  0.00    +0.000 S 
ATOM     25  O   UNL     1       2.553   5.200  17.735  0.00  0.00    +0.000 OA
ATOM     26  O   UNL     1       3.827   5.697  19.869  0.00  0.00    +0.000 OA
BRANCH  24  27
ATOM     27  N   UNL     1       4.615   6.701  17.663  0.00  0.00    +0.000 NA
ATOM     28  H   UNL     1       4.375   6.798  16.677  0.00  0.00    +0.000 HD
BRANCH  27  29
ATOM     29  C   UNL     1       5.912   6.014  17.876  0.00  0.00    +0.000 C 
BRANCH  29  30
ATOM     30  C   UNL     1       7.054   6.757  17.176  0.00  0.00    +0.000 C 
BRANCH  30  32
ATOM     31  C   UNL     1       7.069   4.663  16.083  0.00  0.00    +0.000 C 
ATOM     32  O   UNL     1       7.491   6.017  16.037  0.00  0.00    +0.000 OA
ENDBRANCH  30  32
ENDBRANCH  29  30
ENDBRANCH  27  29
ENDBRANCH  24  27
ENDBRANCH  18  24
ENDBRANCH   1  21
TORSDOF 7
ENDMDL
MODEL 8
REMARK VINA RESULT:      -7.1      3.992      6.024
REMARK  Name = 
REMARK  8 active torsions:
REMARK  status: ('A' for Active; 'I' for Inactive)
REMARK    1  A    between atoms: C_1  and  O_2
REMARK    2  A    between atoms: O_2  and  C_3
REMARK    3  A    between atoms: C_3  and  C_4
REMARK    4  A    between atoms: C_4  and  N_5
REMARK    5  A    between atoms: N_5  and  S_6
REMARK    6  A    between atoms: S_6  and  C_9
REMARK    7  A    between atoms: C_12  and  N_13
REMARK    8  A    between atoms: C_18  and  C_19
REMARK                            x       y       z     vdW  Elec       q    Type
REMARK                         _______ _______ _______ _____ _____    ______ ____
ROOT
ATOM      1  N   UNL     1       0.021  10.387  20.077  0.00  0.00    +0.000 N 
ATOM      2  C   UNL     1       0.146  11.748  19.753  0.00  0.00    +0.000 A 
ATOM      3  N   UNL     1      -0.978  12.478  19.719  0.00  0.00    +0.000 NA
ATOM      4  C   UNL     1      -0.838  13.799  19.528  0.00  0.00    +0.000 A 
ATOM      5  C   UNL     1       0.375  14.422  19.424  0.00  0.00    +0.000 A 
ATOM      6  C   UNL     1       1.475  13.598  19.473  0.00  0.00    +0.000 A 
ATOM      7  N   UNL     1       1.374  12.265  19.615  0.00  0.00    +0.000 NA
ATOM      8  H   UNL     1      -0.144  10.380  21.078  0.00  0.00    +0.000 HD
ENDROOT
BRANCH   6   9
ATOM      9  C   UNL     1       2.839  14.075  19.357  0.00  0.00    +0.000 A 
ATOM     10  C   UNL     1       3.616  14.314  18.235  0.00  0.00    +0.000 A 
ATOM     11  N   UNL     1       4.858  14.799  18.568  0.00  0.00    +0.000 NA
ATOM     12  C   UNL     1       4.876  14.813  19.877  0.00  0.00    +0.000 A 
ATOM     13  C   UNL     1       5.887  15.211  20.778  0.00  0.00    +0.000 A 
ATOM     14  C   UNL     1       5.663  15.111  22.102  0.00  0.00    +0.000 A 
ATOM     15  C   UNL     1       4.348  14.579  22.524  0.00  0.00    +0.000 A 
ATOM     16  N   UNL     1       3.375  14.225  21.745  0.00  0.00    +0.000 NA
ATOM     17  N   UNL     1       3.679  14.363  20.416  0.00  0.00    +0.000 N 
ENDBRANCH   6   9
BRANCH   1  21
ATOM     18  C   UNL     1       2.566   7.261  18.877  0.00  0.00    +0.000 A 
ATOM     19  C   UNL     1       2.137   7.335  20.203  0.00  0.00    +0.000 A 
ATOM     20  C   UNL     1       1.305   8.385  20.598  0.00  0.00    +0.000 A 
ATOM     21  C   UNL     1       0.932   9.384  19.687  0.00  0.00    +0.000 A 
ATOM     22  C   UNL     1       1.368   9.281  18.357  0.00  0.00    +0.000 A 
ATOM     23  C   UNL     1       2.197   8.238  17.951  0.00  0.00    +0.000 A 
BRANCH  18  24
ATOM     24  S   UNL     1       3.564   5.894  18.339  0.00  0.00    +0.000 S 
ATOM     25  O   UNL     1       4.422   5.505  19.434  0.00  0.00    +0.000 OA
ATOM     26  O   UNL     1       4.080   6.248  17.036  0.00  0.00    +0.000 OA
BRANCH  24  27
ATOM     27  N   UNL     1       2.384   4.693  18.130  0.00  0.00    +0.000 NA
ATOM     28  H   UNL     1       1.451   5.090  18.027  0.00  0.00    +0.000 HD
BRANCH  27  29
ATOM     29  C   UNL     1       2.433   3.585  19.115  0.00  0.00    +0.000 C 
BRANCH  29  30
ATOM     30  C   UNL     1       1.025   3.162  19.543  0.00  0.00    +0.000 C 
BRANCH  30  32
ATOM     31  C   UNL     1       2.154   3.511  21.589  0.00  0.00    +0.000 C 
ATOM     32  O   UNL     1       0.942   3.113  20.968  0.00  0.00    +0.000 OA
ENDBRANCH  30  32
ENDBRANCH  29  30
ENDBRANCH  27  29
ENDBRANCH  24  27
ENDBRANCH  18  24
ENDBRANCH   1  21
TORSDOF 7
ENDMDL
MODEL 9
REMARK VINA RESULT:      -7.1      4.061      5.667
REMARK  Name = 
REMARK  8 active torsions:
REMARK  status: ('A' for Active; 'I' for Inactive)
REMARK    1  A    between atoms: C_1  and  O_2
REMARK    2  A    between atoms: O_2  and  C_3
REMARK    3  A    between atoms: C_3  and  C_4
REMARK    4  A    between atoms: C_4  and  N_5
REMARK    5  A    between atoms: N_5  and  S_6
REMARK    6  A    between atoms: S_6  and  C_9
REMARK    7  A    between atoms: C_12  and  N_13
REMARK    8  A    between atoms: C_18  and  C_19
REMARK                            x       y       z     vdW  Elec       q    Type
REMARK                         _______ _______ _______ _____ _____    ______ ____
ROOT
ATOM      1  N   UNL     1      -0.119  10.429  20.070  0.00  0.00    +0.000 N 
ATOM      2  C   UNL     1       0.084  11.818  20.097  0.00  0.00    +0.000 A 
ATOM      3  N   UNL     1      -1.004  12.599  20.070  0.00  0.00    +0.000 NA
ATOM      4  C   UNL     1      -0.808  13.919  20.218  0.00  0.00    +0.000 A 
ATOM      5  C   UNL     1       0.420  14.479  20.443  0.00  0.00    +0.000 A 
ATOM      6  C   UNL     1       1.480  13.603  20.458  0.00  0.00    +0.000 A 
ATOM      7  N   UNL     1       1.330  12.281  20.266  0.00  0.00    +0.000 NA
ATOM      8  H   UNL     1      -0.438  10.202  21.006  0.00  0.00    +0.000 HD
ENDROOT
BRANCH   6   9
ATOM      9  C   UNL     1       2.856  14.015  20.658  0.00  0.00    +0.000 A 
ATOM     10  C   UNL     1       3.606  14.116  21.819  0.00  0.00    +0.000 A 
ATOM     11  N   UNL     1       4.894  14.518  21.562  0.00  0.00    +0.000 NA
ATOM     12  C   UNL     1       4.935  14.717  20.268  0.00  0.00    +0.000 A 
ATOM     13  C   UNL     1       5.993  15.138  19.436  0.00  0.00    +0.000 A 
ATOM     14  C   UNL     1       5.772  15.287  18.116  0.00  0.00    +0.000 A 
ATOM     15  C   UNL     1       4.407  14.993  17.625  0.00  0.00    +0.000 A 
ATOM     16  N   UNL     1       3.406  14.578  18.335  0.00  0.00    +0.000 NA
ATOM     17  N   UNL     1       3.715  14.447  19.665  0.00  0.00    +0.000 N 
ENDBRANCH   6   9
BRANCH   1  21
ATOM     18  C   UNL     1       2.513   7.489  18.613  0.00  0.00    +0.000 A 
ATOM     19  C   UNL     1       2.149   7.487  19.960  0.00  0.00    +0.000 A 
ATOM     20  C   UNL     1       1.287   8.475  20.440  0.00  0.00    +0.000 A 
ATOM     21  C   UNL     1       0.820   9.490  19.593  0.00  0.00    +0.000 A 
ATOM     22  C   UNL     1       1.193   9.464  18.240  0.00  0.00    +0.000 A 
ATOM     23  C   UNL     1       2.051   8.483  17.750  0.00  0.00    +0.000 A 
BRANCH  18  24
ATOM     24  S   UNL     1       3.550   6.198  17.969  0.00  0.00    +0.000 S 
ATOM     25  O   UNL     1       4.472   6.791  17.028  0.00  0.00    +0.000 OA
ATOM     26  O   UNL     1       2.674   5.105  17.614  0.00  0.00    +0.000 OA
BRANCH  24  27
ATOM     27  N   UNL     1       4.414   5.753  19.359  0.00  0.00    +0.000 NA
ATOM     28  H   UNL     1       4.685   6.563  19.915  0.00  0.00    +0.000 HD
BRANCH  27  29
ATOM     29  C   UNL     1       5.537   4.812  19.127  0.00  0.00    +0.000 C 
BRANCH  29  30
ATOM     30  C   UNL     1       6.884   5.469  19.439  0.00  0.00    +0.000 C 
BRANCH  30  32
ATOM     31  C   UNL     1       7.378   4.541  17.323  0.00  0.00    +0.000 C 
ATOM     32  O   UNL     1       7.896   4.937  18.583  0.00  0.00    +0.000 OA
ENDBRANCH  30  32
ENDBRANCH  29  30
ENDBRANCH  27  29
ENDBRANCH  24  27
ENDBRANCH  18  24
ENDBRANCH   1  21
TORSDOF 7
ENDMDL
