MODEL 1
REMARK VINA RESULT:      -7.6      0.000      0.000
REMARK  Name = 
REMARK  11 active torsions:
REMARK  status: ('A' for Active; 'I' for Inactive)
REMARK    1  A    between atoms: C_1  and  C_2
REMARK    2  A    between atoms: C_2  and  C_3
REMARK    3  A    between atoms: C_3  and  S_4
REMARK    4  A    between atoms: S_4  and  C_5
REMARK    5  A    between atoms: C_7  and  O_8
REMARK    6  A    between atoms: O_8  and  C_9
REMARK    7  A    between atoms: C_12  and  C_13
REMARK    8  A    between atoms: C_13  and  C_14
REMARK    9  A    between atoms: C_14  and  O_16
REMARK   10  A    between atoms: C_21  and  C_22
REMARK   11  A    between atoms: N_24  and  C_25
REMARK                            x       y       z     vdW  Elec       q    Type
REMARK                         _______ _______ _______ _____ _____    ______ ____
ROOT
ATOM      1  C   UNL     1       2.272   6.557  19.562  0.00  0.00    +0.000 A 
ATOM      2  N   UNL     1       1.662   7.720  19.892  0.00  0.00    +0.000 NA
ATOM      3  C   UNL     1       1.732   8.766  19.045  0.00  0.00    +0.000 A 
ATOM      4  C   UNL     1       2.321   8.681  17.800  0.00  0.00    +0.000 A 
ATOM      5  C   UNL     1       2.939   7.476  17.456  0.00  0.00    +0.000 A 
ATOM      6  C   UNL     1       2.959   6.396  18.358  0.00  0.00    +0.000 A 
ENDROOT
BRANCH   6   7
ATOM      7  C   UNL     1       3.696   5.169  17.936  0.00  0.00    +0.000 C 
ATOM      8  O   UNL     1       3.098   4.101  17.886  0.00  0.00    +0.000 OA
ATOM      9  N   UNL     1       5.018   5.307  17.572  0.00  0.00    +0.000 N 
ATOM     10  H   UNL     1       5.432   6.232  17.583  0.00  0.00    +0.000 HD
BRANCH   9  11
ATOM     11  C   UNL     1       5.857   4.193  17.138  0.00  0.00    +0.000 C 
ATOM     12  C   UNL     1       5.343   3.588  15.825  0.00  0.00    +0.000 C 
ATOM     13  C   UNL     1       5.542   4.533  14.640  0.00  0.00    +0.000 C 
ATOM     14  C   UNL     1       7.002   4.954  14.497  0.00  0.00    +0.000 C 
ATOM     15  C   UNL     1       7.546   5.558  15.788  0.00  0.00    +0.000 C 
ATOM     16  C   UNL     1       7.322   4.633  16.986  0.00  0.00    +0.000 C 
ENDBRANCH   9  11
ENDBRANCH   6   7
BRANCH   1  17
ATOM     17  S   UNL     1       2.152   5.309  20.837  0.00  0.00    +0.000 S 
BRANCH  17  18
ATOM     18  C   UNL     1       0.788   4.294  20.178  0.00  0.00    +0.000 C 
BRANCH  18  20
ATOM     19  C   UNL     1       1.666   2.588  21.792  0.00  0.00    +0.000 C 
ATOM     20  C   UNL     1       1.119   2.822  20.394  0.00  0.00    +0.000 C 
ENDBRANCH  18  20
ENDBRANCH  17  18
ENDBRANCH   1  17
BRANCH   3  21
ATOM     21  O   UNL     1       1.214   9.988  19.456  0.00  0.00    +0.000 OA
BRANCH  21  22
ATOM     22  C   UNL     1      -0.040  10.329  18.979  0.00  0.00    +0.000 A 
ATOM     23  C   UNL     1      -0.844  11.301  19.584  0.00  0.00    +0.000 A 
ATOM     24  C   UNL     1      -2.105  11.598  19.075  0.00  0.00    +0.000 A 
ATOM     25  C   UNL     1      -2.550  10.986  17.898  0.00  0.00    +0.000 A 
ATOM     26  C   UNL     1      -1.734  10.034  17.270  0.00  0.00    +0.000 A 
ATOM     27  C   UNL     1      -0.482   9.705  17.811  0.00  0.00    +0.000 A 
BRANCH  25  28
ATOM     28  C   UNL     1      -3.837  11.455  17.259  0.00  0.00    +0.000 C 
BRANCH  28  29
ATOM     29  C   UNL     1      -4.990  11.691  18.217  0.00  0.00    +0.000 C 
ATOM     30  O   UNL     1      -5.667  10.767  18.657  0.00  0.00    +0.000 OA
BRANCH  29  31
ATOM     31  O   UNL     1      -5.241  12.969  18.579  0.00  0.00    +0.000 OA
ATOM     32  H   UNL     1      -4.495  13.590  18.467  0.00  0.00    +0.000 HD
ENDBRANCH  29  31
ENDBRANCH  28  29
ENDBRANCH  25  28
ENDBRANCH  21  22
ENDBRANCH   3  21
TORSDOF 10
ENDMDL
MODEL 2
REMARK VINA RESULT:      -7.5      0.371      1.106
REMARK  Name = 
REMARK  11 active torsions:
REMARK  status: ('A' for Active; 'I' for Inactive)
REMARK    1  A    between atoms: C_1  and  C_2
REMARK    2  A    between atoms: C_2  and  C_3
REMARK    3  A    between atoms: C_3  and  S_4
REMARK    4  A    between atoms: S_4  and  C_5
REMARK    5  A    between atoms: C_7  and  O_8
REMARK    6  A    between atoms: O_8  and  C_9
REMARK    7  A    between atoms: C_12  and  C_13
REMARK    8  A    between atoms: C_13  and  C_14
REMARK    9  A    between atoms: C_14  and  O_16
REMARK   10  A    between atoms: C_21  and  C_22
REMARK   11  A    between atoms: N_24  and  C_25
REMARK                            x       y       z     vdW  Elec       q    Type
REMARK                         _______ _______ _______ _____ _____    ______ ____
ROOT
ATOM      1  C   UNL     1       2.222   6.682  19.676  0.00  0.00    +0.000 A 
ATOM      2  N   UNL     1       1.606   7.842  20.006  0.00  0.00    +0.000 NA
ATOM      3  C   UNL     1       1.628   8.872  19.138  0.00  0.00    +0.000 A 
ATOM      4  C   UNL     1       2.170   8.772  17.873  0.00  0.00    +0.000 A 
ATOM      5  C   UNL     1       2.793   7.570  17.528  0.00  0.00    +0.000 A 
ATOM      6  C   UNL     1       2.866   6.509  18.450  0.00  0.00    +0.000 A 
ENDROOT
BRANCH   6   7
ATOM      7  C   UNL     1       3.605   5.284  18.023  0.00  0.00    +0.000 C 
ATOM      8  O   UNL     1       2.975   4.269  17.754  0.00  0.00    +0.000 OA
ATOM      9  N   UNL     1       4.976   5.371  17.905  0.00  0.00    +0.000 N 
ATOM     10  H   UNL     1       5.424   6.261  18.089  0.00  0.00    +0.000 HD
BRANCH   9  11
ATOM     11  C   UNL     1       5.823   4.254  17.496  0.00  0.00    +0.000 C 
ATOM     12  C   UNL     1       5.309   3.610  16.203  0.00  0.00    +0.000 C 
ATOM     13  C   UNL     1       5.493   4.523  14.992  0.00  0.00    +0.000 C 
ATOM     14  C   UNL     1       6.947   4.955  14.830  0.00  0.00    +0.000 C 
ATOM     15  C   UNL     1       7.492   5.600  16.101  0.00  0.00    +0.000 C 
ATOM     16  C   UNL     1       7.283   4.706  17.325  0.00  0.00    +0.000 C 
ENDBRANCH   9  11
ENDBRANCH   6   7
BRANCH   1  17
ATOM     17  S   UNL     1       2.170   5.458  20.977  0.00  0.00    +0.000 S 
BRANCH  17  18
ATOM     18  C   UNL     1       0.899   4.328  20.318  0.00  0.00    +0.000 C 
BRANCH  18  20
ATOM     19  C   UNL     1       2.545   2.758  21.374  0.00  0.00    +0.000 C 
ATOM     20  C   UNL     1       1.106   2.945  20.925  0.00  0.00    +0.000 C 
ENDBRANCH  18  20
ENDBRANCH  17  18
ENDBRANCH   1  17
BRANCH   3  21
ATOM     21  O   UNL     1       1.106  10.094  19.545  0.00  0.00    +0.000 OA
BRANCH  21  22
ATOM     22  C   UNL     1      -0.098  10.480  18.981  0.00  0.00    +0.000 A 
ATOM     23  C   UNL     1      -0.680   9.809  17.900  0.00  0.00    +0.000 A 
ATOM     24  C   UNL     1      -1.885  10.245  17.358  0.00  0.00    +0.000 A 
ATOM     25  C   UNL     1      -2.573  11.314  17.942  0.00  0.00    +0.000 A 
ATOM     26  C   UNL     1      -2.009  11.970  19.046  0.00  0.00    +0.000 A 
ATOM     27  C   UNL     1      -0.773  11.555  19.563  0.00  0.00    +0.000 A 
BRANCH  25  28
ATOM     28  C   UNL     1      -3.965  11.653  17.459  0.00  0.00    +0.000 C 
BRANCH  28  29
ATOM     29  C   UNL     1      -5.062  11.532  18.500  0.00  0.00    +0.000 C 
ATOM     30  O   UNL     1      -5.339  12.453  19.261  0.00  0.00    +0.000 OA
BRANCH  29  31
ATOM     31  O   UNL     1      -5.736  10.362  18.553  0.00  0.00    +0.000 OA
ATOM     32  H   UNL     1      -6.043  10.016  17.693  0.00  0.00    +0.000 HD
ENDBRANCH  29  31
ENDBRANCH  28  29
ENDBRANCH  25  28
ENDBRANCH  21  22
ENDBRANCH   3  21
TORSDOF 10
ENDMDL
MODEL 3
REMARK VINA RESULT:      -7.5      1.374      1.969
REMARK  Name = 
REMARK  11 active torsions:
REMARK  status: ('A' for Active; 'I' for Inactive)
REMARK    1  A    between atoms: C_1  and  C_2
REMARK    2  A    between atoms: C_2  and  C_3
REMARK    3  A    between atoms: C_3  and  S_4
REMARK    4  A    between atoms: S_4  and  C_5
REMARK    5  A    between atoms: C_7  and  O_8
REMARK    6  A    between atoms: O_8  and  C_9
REMARK    7  A    between atoms: C_12  and  C_13
REMARK    8  A    between atoms: C_13  and  C_14
REMARK    9  A    between atoms: C_14  and  O_16
REMARK   10  A    between atoms: C_21  and  C_22
REMARK   11  A    between atoms: N_24  and  C_25
REMARK                            x       y       z     vdW  Elec       q    Type
REMARK                         _______ _______ _______ _____ _____    ______ ____
ROOT
ATOM      1  C   UNL     1       1.936   7.408  19.631  0.00  0.00    +0.000 A 
ATOM      2  N   UNL     1       1.110   8.402  20.037  0.00  0.00    +0.000 NA
ATOM      3  C   UNL     1       0.931   9.477  19.245  0.00  0.00    +0.000 A 
ATOM      4  C   UNL     1       1.479   9.576  17.982  0.00  0.00    +0.000 A 
ATOM      5  C   UNL     1       2.319   8.543  17.559  0.00  0.00    +0.000 A 
ATOM      6  C   UNL     1       2.596   7.451  18.402  0.00  0.00    +0.000 A 
ENDROOT
BRANCH   6   7
ATOM      7  C   UNL     1       3.555   6.425  17.896  0.00  0.00    +0.000 C 
ATOM      8  O   UNL     1       3.140   5.308  17.612  0.00  0.00    +0.000 OA
ATOM      9  N   UNL     1       4.870   6.804  17.725  0.00  0.00    +0.000 N 
ATOM     10  H   UNL     1       5.129   7.762  17.926  0.00  0.00    +0.000 HD
BRANCH   9  11
ATOM     11  C   UNL     1       5.912   5.905  17.237  0.00  0.00    +0.000 C 
ATOM     12  C   UNL     1       7.193   6.674  16.892  0.00  0.00    +0.000 C 
ATOM     13  C   UNL     1       7.891   7.218  18.138  0.00  0.00    +0.000 C 
ATOM     14  C   UNL     1       8.190   6.109  19.143  0.00  0.00    +0.000 C 
ATOM     15  C   UNL     1       6.935   5.322  19.507  0.00  0.00    +0.000 C 
ATOM     16  C   UNL     1       6.211   4.800  18.264  0.00  0.00    +0.000 C 
ENDBRANCH   9  11
ENDBRANCH   6   7
BRANCH   1  17
ATOM     17  S   UNL     1       2.123   6.105  20.840  0.00  0.00    +0.000 S 
BRANCH  17  18
ATOM     18  C   UNL     1       0.866   4.923  20.250  0.00  0.00    +0.000 C 
BRANCH  18  20
ATOM     19  C   UNL     1       1.154   2.596  19.359  0.00  0.00    +0.000 C 
ATOM     20  C   UNL     1       1.335   3.507  20.562  0.00  0.00    +0.000 C 
ENDBRANCH  18  20
ENDBRANCH  17  18
ENDBRANCH   1  17
BRANCH   3  21
ATOM     21  O   UNL     1       0.186  10.544  19.735  0.00  0.00    +0.000 OA
BRANCH  21  22
ATOM     22  C   UNL     1      -1.022  10.802  19.111  0.00  0.00    +0.000 A 
ATOM     23  C   UNL     1      -1.897  11.808  19.535  0.00  0.00    +0.000 A 
ATOM     24  C   UNL     1      -3.107  12.019  18.883  0.00  0.00    +0.000 A 
ATOM     25  C   UNL     1      -3.429  11.281  17.739  0.00  0.00    +0.000 A 
ATOM     26  C   UNL     1      -2.540  10.294  17.290  0.00  0.00    +0.000 A 
ATOM     27  C   UNL     1      -1.340  10.054  17.975  0.00  0.00    +0.000 A 
BRANCH  25  28
ATOM     28  C   UNL     1      -4.656  11.650  16.938  0.00  0.00    +0.000 C 
BRANCH  28  29
ATOM     29  C   UNL     1      -5.828  12.172  17.749  0.00  0.00    +0.000 C 
ATOM     30  O   UNL     1      -6.602  11.419  18.329  0.00  0.00    +0.000 OA
BRANCH  29  31
ATOM     31  O   UNL     1      -5.984  13.513  17.815  0.00  0.00    +0.000 OA
ATOM     32  H   UNL     1      -6.760  13.869  17.341  0.00  0.00    +0.000 HD
ENDBRANCH  29  31
ENDBRANCH  28  29
ENDBRANCH  25  28
ENDBRANCH  21  22
ENDBRANCH   3  21
TORSDOF 10
ENDMDL
MODEL 4
REMARK VINA RESULT:      -7.5      2.236      3.244
REMARK  Name = 
REMARK  11 active torsions:
REMARK  status: ('A' for Active; 'I' for Inactive)
REMARK    1  A    between atoms: C_1  and  C_2
REMARK    2  A    between atoms: C_2  and  C_3
REMARK    3  A    between atoms: C_3  and  S_4
REMARK    4  A    between atoms: S_4  and  C_5
REMARK    5  A    between atoms: C_7  and  O_8
REMARK    6  A    between atoms: O_8  and  C_9
REMARK    7  A    between atoms: C_12  and  C_13
REMARK    8  A    between atoms: C_13  and  C_14
REMARK    9  A    between atoms: C_14  and  O_16
REMARK   10  A    between atoms: C_21  and  C_22
REMARK   11  A    between atoms: N_24  and  C_25
REMARK                            x       y       z     vdW  Elec       q    Type
REMARK                         _______ _______ _______ _____ _____    ______ ____
ROOT
ATOM      1  C   UNL     1       1.461   8.502  19.994  0.00  0.00    +0.000 A 
ATOM      2  N   UNL     1       1.016   9.769  19.818  0.00  0.00    +0.000 NA
ATOM      3  C   UNL     1       1.286  10.410  18.664  0.00  0.00    +0.000 A 
ATOM      4  C   UNL     1       1.920   9.799  17.601  0.00  0.00    +0.000 A 
ATOM      5  C   UNL     1       2.366   8.488  17.779  0.00  0.00    +0.000 A 
ATOM      6  C   UNL     1       2.177   7.825  19.006  0.00  0.00    +0.000 A 
ENDROOT
BRANCH   6   7
ATOM      7  C   UNL     1       2.742   6.449  19.132  0.00  0.00    +0.000 C 
ATOM      8  O   UNL     1       2.025   5.545  19.541  0.00  0.00    +0.000 OA
ATOM      9  N   UNL     1       4.047   6.252  18.732  0.00  0.00    +0.000 N 
ATOM     10  H   UNL     1       4.562   7.036  18.349  0.00  0.00    +0.000 HD
BRANCH   9  11
ATOM     11  C   UNL     1       4.724   4.960  18.798  0.00  0.00    +0.000 C 
ATOM     12  C   UNL     1       4.542   4.168  17.497  0.00  0.00    +0.000 C 
ATOM     13  C   UNL     1       5.304   4.794  16.330  0.00  0.00    +0.000 C 
ATOM     14  C   UNL     1       6.787   4.957  16.651  0.00  0.00    +0.000 C 
ATOM     15  C   UNL     1       7.005   5.739  17.942  0.00  0.00    +0.000 C 
ATOM     16  C   UNL     1       6.220   5.138  19.110  0.00  0.00    +0.000 C 
ENDBRANCH   9  11
ENDBRANCH   6   7
BRANCH   1  17
ATOM     17  S   UNL     1       1.088   7.840  21.612  0.00  0.00    +0.000 S 
BRANCH  17  18
ATOM     18  C   UNL     1      -0.491   8.684  21.959  0.00  0.00    +0.000 C 
BRANCH  18  20
ATOM     19  C   UNL     1      -1.112  10.814  23.129  0.00  0.00    +0.000 C 
ATOM     20  C   UNL     1      -0.339   9.510  23.231  0.00  0.00    +0.000 C 
ENDBRANCH  18  20
ENDBRANCH  17  18
ENDBRANCH   1  17
BRANCH   3  21
ATOM     21  O   UNL     1       0.936  11.750  18.552  0.00  0.00    +0.000 OA
BRANCH  21  22
ATOM     22  C   UNL     1      -0.274  12.130  19.106  0.00  0.00    +0.000 A 
ATOM     23  C   UNL     1      -0.371  13.019  20.182  0.00  0.00    +0.000 A 
ATOM     24  C   UNL     1      -1.612  13.359  20.713  0.00  0.00    +0.000 A 
ATOM     25  C   UNL     1      -2.785  12.879  20.123  0.00  0.00    +0.000 A 
ATOM     26  C   UNL     1      -2.694  12.012  19.024  0.00  0.00    +0.000 A 
ATOM     27  C   UNL     1      -1.441  11.637  18.518  0.00  0.00    +0.000 A 
BRANCH  25  28
ATOM     28  C   UNL     1      -4.122  13.404  20.595  0.00  0.00    +0.000 C 
BRANCH  28  29
ATOM     29  C   UNL     1      -4.854  12.519  21.587  0.00  0.00    +0.000 C 
ATOM     30  O   UNL     1      -5.871  11.906  21.282  0.00  0.00    +0.000 OA
BRANCH  29  31
ATOM     31  O   UNL     1      -4.333  12.425  22.831  0.00  0.00    +0.000 OA
ATOM     32  H   UNL     1      -3.910  13.236  23.170  0.00  0.00    +0.000 HD
ENDBRANCH  29  31
ENDBRANCH  28  29
ENDBRANCH  25  28
ENDBRANCH  21  22
ENDBRANCH   3  21
TORSDOF 10
ENDMDL
MODEL 5
REMARK VINA RESULT:      -7.4      2.598      4.243
REMARK  Name = 
REMARK  11 active torsions:
REMARK  status: ('A' for Active; 'I' for Inactive)
REMARK    1  A    between atoms: C_1  and  C_2
REMARK    2  A    between atoms: C_2  and  C_3
REMARK    3  A    between atoms: C_3  and  S_4
REMARK    4  A    between atoms: S_4  and  C_5
REMARK    5  A    between atoms: C_7  and  O_8
REMARK    6  A    between atoms: O_8  and  C_9
REMARK    7  A    between atoms: C_12  and  C_13
REMARK    8  A    between atoms: C_13  and  C_14
REMARK    9  A    between atoms: C_14  and  O_16
REMARK   10  A    between atoms: C_21  and  C_22
REMARK   11  A    between atoms: N_24  and  C_25
REMARK                            x       y       z     vdW  Elec       q    Type
REMARK                         _______ _______ _______ _____ _____    ______ ____
ROOT
ATOM      1  C   UNL     1       1.288   8.707  20.003  0.00  0.00    +0.000 A 
ATOM      2  N   UNL     1       0.617   9.877  19.877  0.00  0.00    +0.000 NA
ATOM      3  C   UNL     1       0.698  10.564  18.720  0.00  0.00    +0.000 A 
ATOM      4  C   UNL     1       1.362  10.083  17.610  0.00  0.00    +0.000 A 
ATOM      5  C   UNL     1       2.043   8.870  17.738  0.00  0.00    +0.000 A 
ATOM      6  C   UNL     1       2.050   8.175  18.962  0.00  0.00    +0.000 A 
ENDROOT
BRANCH   6   7
ATOM      7  C   UNL     1       2.855   6.920  19.030  0.00  0.00    +0.000 C 
ATOM      8  O   UNL     1       4.009   6.928  18.619  0.00  0.00    +0.000 OA
ATOM      9  N   UNL     1       2.269   5.812  19.604  0.00  0.00    +0.000 N 
ATOM     10  H   UNL     1       1.331   5.896  19.976  0.00  0.00    +0.000 HD
BRANCH   9  11
ATOM     11  C   UNL     1       2.941   4.522  19.738  0.00  0.00    +0.000 C 
ATOM     12  C   UNL     1       2.315   3.682  20.858  0.00  0.00    +0.000 C 
ATOM     13  C   UNL     1       0.910   3.200  20.499  0.00  0.00    +0.000 C 
ATOM     14  C   UNL     1       0.901   2.426  19.183  0.00  0.00    +0.000 C 
ATOM     15  C   UNL     1       1.520   3.234  18.047  0.00  0.00    +0.000 C 
ATOM     16  C   UNL     1       2.914   3.748  18.410  0.00  0.00    +0.000 C 
ENDBRANCH   9  11
ENDBRANCH   6   7
BRANCH   1  17
ATOM     17  S   UNL     1       1.138   7.978  21.628  0.00  0.00    +0.000 S 
BRANCH  17  18
ATOM     18  C   UNL     1      -0.480   8.645  22.142  0.00  0.00    +0.000 C 
BRANCH  18  20
ATOM     19  C   UNL     1      -1.127  10.883  23.071  0.00  0.00    +0.000 C 
ATOM     20  C   UNL     1      -0.265   9.648  23.270  0.00  0.00    +0.000 C 
ENDBRANCH  18  20
ENDBRANCH  17  18
ENDBRANCH   1  17
BRANCH   3  21
ATOM     21  O   UNL     1       0.112  11.822  18.654  0.00  0.00    +0.000 OA
BRANCH  21  22
ATOM     22  C   UNL     1      -1.271  11.870  18.665  0.00  0.00    +0.000 A 
ATOM     23  C   UNL     1      -2.060  11.279  17.672  0.00  0.00    +0.000 A 
ATOM     24  C   UNL     1      -3.448  11.367  17.720  0.00  0.00    +0.000 A 
ATOM     25  C   UNL     1      -4.077  11.976  18.811  0.00  0.00    +0.000 A 
ATOM     26  C   UNL     1      -3.291  12.542  19.826  0.00  0.00    +0.000 A 
ATOM     27  C   UNL     1      -1.891  12.490  19.752  0.00  0.00    +0.000 A 
BRANCH  25  28
ATOM     28  C   UNL     1      -5.581  11.898  18.939  0.00  0.00    +0.000 C 
BRANCH  28  29
ATOM     29  C   UNL     1      -6.359  12.836  18.035  0.00  0.00    +0.000 C 
ATOM     30  O   UNL     1      -6.568  14.006  18.340  0.00  0.00    +0.000 OA
BRANCH  29  31
ATOM     31  O   UNL     1      -6.812  12.332  16.866  0.00  0.00    +0.000 OA
ATOM     32  H   UNL     1      -6.126  12.135  16.201  0.00  0.00    +0.000 HD
ENDBRANCH  29  31
ENDBRANCH  28  29
ENDBRANCH  25  28
ENDBRANCH  21  22
ENDBRANCH   3  21
TORSDOF 10
ENDMDL
MODEL 6
REMARK VINA RESULT:      -7.4      1.906      2.986
REMARK  Name = 
REMARK  11 active torsions:
REMARK  status: ('A' for Active; 'I' for Inactive)
REMARK    1  A    between atoms: C_1  and  C_2
REMARK    2  A    between atoms: C_2  and  C_3
REMARK    3  A    between atoms: C_3  and  S_4
REMARK    4  A    between atoms: S_4  and  C_5
REMARK    5  A    between atoms: C_7  and  O_8
REMARK    6  A    between atoms: O_8  and  C_9
REMARK    7  A    between atoms: C_12  and  C_13
REMARK    8  A    between atoms: C_13  and  C_14
REMARK    9  A    between atoms: C_14  and  O_16
REMARK   10  A    between atoms: C_21  and  C_22
REMARK   11  A    between atoms: N_24  and  C_25
REMARK                            x       y       z     vdW  Elec       q    Type
REMARK                         _______ _______ _______ _____ _____    ______ ____
ROOT
ATOM      1  C   UNL     1       1.423   8.306  19.970  0.00  0.00    +0.000 A 
ATOM      2  N   UNL     1       0.863   9.525  19.780  0.00  0.00    +0.000 NA
ATOM      3  C   UNL     1       1.113  10.196  18.638  0.00  0.00    +0.000 A 
ATOM      4  C   UNL     1       1.843   9.657  17.599  0.00  0.00    +0.000 A 
ATOM      5  C   UNL     1       2.408   8.394  17.790  0.00  0.00    +0.000 A 
ATOM      6  C   UNL     1       2.239   7.709  19.008  0.00  0.00    +0.000 A 
ENDROOT
BRANCH   6   7
ATOM      7  C   UNL     1       2.930   6.394  19.153  0.00  0.00    +0.000 C 
ATOM      8  O   UNL     1       2.281   5.412  19.492  0.00  0.00    +0.000 OA
ATOM      9  N   UNL     1       4.273   6.338  18.847  0.00  0.00    +0.000 N 
ATOM     10  H   UNL     1       4.732   7.178  18.516  0.00  0.00    +0.000 HD
BRANCH   9  11
ATOM     11  C   UNL     1       5.072   5.119  18.941  0.00  0.00    +0.000 C 
ATOM     12  C   UNL     1       4.903   4.244  17.693  0.00  0.00    +0.000 C 
ATOM     13  C   UNL     1       5.545   4.873  16.457  0.00  0.00    +0.000 C 
ATOM     14  C   UNL     1       7.019   5.188  16.690  0.00  0.00    +0.000 C 
ATOM     15  C   UNL     1       7.225   6.057  17.927  0.00  0.00    +0.000 C 
ATOM     16  C   UNL     1       6.557   5.451  19.163  0.00  0.00    +0.000 C 
ENDBRANCH   9  11
ENDBRANCH   6   7
BRANCH   1  17
ATOM     17  S   UNL     1       1.056   7.602  21.571  0.00  0.00    +0.000 S 
BRANCH  17  18
ATOM     18  C   UNL     1      -0.444   8.541  22.009  0.00  0.00    +0.000 C 
BRANCH  18  20
ATOM     19  C   UNL     1      -1.051  10.719  23.096  0.00  0.00    +0.000 C 
ATOM     20  C   UNL     1      -0.099   9.536  23.112  0.00  0.00    +0.000 C 
ENDBRANCH  18  20
ENDBRANCH  17  18
ENDBRANCH   1  17
BRANCH   3  21
ATOM     21  O   UNL     1       0.639  11.497  18.517  0.00  0.00    +0.000 OA
BRANCH  21  22
ATOM     22  C   UNL     1      -0.728  11.679  18.637  0.00  0.00    +0.000 A 
ATOM     23  C   UNL     1      -1.653  11.075  17.779  0.00  0.00    +0.000 A 
ATOM     24  C   UNL     1      -3.018  11.301  17.933  0.00  0.00    +0.000 A 
ATOM     25  C   UNL     1      -3.487  12.070  19.003  0.00  0.00    +0.000 A 
ATOM     26  C   UNL     1      -2.565  12.650  19.885  0.00  0.00    +0.000 A 
ATOM     27  C   UNL     1      -1.188  12.457  19.702  0.00  0.00    +0.000 A 
BRANCH  25  28
ATOM     28  C   UNL     1      -4.975  12.150  19.262  0.00  0.00    +0.000 C 
BRANCH  28  29
ATOM     29  C   UNL     1      -5.836  11.260  18.385  0.00  0.00    +0.000 C 
ATOM     30  O   UNL     1      -6.144  10.121  18.721  0.00  0.00    +0.000 OA
BRANCH  29  31
ATOM     31  O   UNL     1      -6.262  11.777  17.212  0.00  0.00    +0.000 OA
ATOM     32  H   UNL     1      -5.585  12.250  16.692  0.00  0.00    +0.000 HD
ENDBRANCH  29  31
ENDBRANCH  28  29
ENDBRANCH  25  28
ENDBRANCH  21  22
ENDBRANCH   3  21
TORSDOF 10
ENDMDL
MODEL 7
REMARK VINA RESULT:      -7.4      2.691      9.259
REMARK  Name = 
REMARK  11 active torsions:
REMARK  status: ('A' for Active; 'I' for Inactive)
REMARK    1  A    between atoms: C_1  and  C_2
REMARK    2  A    between atoms: C_2  and  C_3
REMARK    3  A    between atoms: C_3  and  S_4
REMARK    4  A    between atoms: S_4  and  C_5
REMARK    5  A    between atoms: C_7  and  O_8
REMARK    6  A    between atoms: O_8  and  C_9
REMARK    7  A    between atoms: C_12  and  C_13
REMARK    8  A    between atoms: C_13  and  C_14
REMARK    9  A    between atoms: C_14  and  O_16
REMARK   10  A    between atoms: C_21  and  C_22
REMARK   11  A    between atoms: N_24  and  C_25
REMARK                            x       y       z     vdW  Elec       q    Type
REMARK                         _______ _______ _______ _____ _____    ______ ____
ROOT
ATOM      1  C   UNL     1       0.980   8.780  20.162  0.00  0.00    +0.000 A 
ATOM      2  N   UNL     1       1.605   7.623  20.485  0.00  0.00    +0.000 NA
ATOM      3  C   UNL     1       2.422   7.039  19.586  0.00  0.00    +0.000 A 
ATOM      4  C   UNL     1       2.734   7.618  18.373  0.00  0.00    +0.000 A 
ATOM      5  C   UNL     1       2.099   8.819  18.047  0.00  0.00    +0.000 A 
ATOM      6  C   UNL     1       1.172   9.405  18.929  0.00  0.00    +0.000 A 
ENDROOT
BRANCH   6   7
ATOM      7  C   UNL     1       0.492  10.653  18.474  0.00  0.00    +0.000 C 
ATOM      8  O   UNL     1       1.098  11.716  18.528  0.00  0.00    +0.000 OA
ATOM      9  N   UNL     1      -0.783  10.540  17.962  0.00  0.00    +0.000 N 
ATOM     10  H   UNL     1      -1.200   9.619  17.894  0.00  0.00    +0.000 HD
BRANCH   9  11
ATOM     11  C   UNL     1      -1.563  11.677  17.480  0.00  0.00    +0.000 C 
ATOM     12  C   UNL     1      -2.574  11.245  16.410  0.00  0.00    +0.000 C 
ATOM     13  C   UNL     1      -3.701  10.394  16.994  0.00  0.00    +0.000 C 
ATOM     14  C   UNL     1      -4.411  11.112  18.139  0.00  0.00    +0.000 C 
ATOM     15  C   UNL     1      -3.432  11.558  19.221  0.00  0.00    +0.000 C 
ATOM     16  C   UNL     1      -2.282  12.384  18.640  0.00  0.00    +0.000 C 
ENDBRANCH   9  11
ENDBRANCH   6   7
BRANCH   1  17
ATOM     17  S   UNL     1      -0.130   9.364  21.435  0.00  0.00    +0.000 S 
BRANCH  17  18
ATOM     18  C   UNL     1       0.614  10.988  21.803  0.00  0.00    +0.000 C 
BRANCH  18  20
ATOM     19  C   UNL     1      -1.572  11.466  22.936  0.00  0.00    +0.000 C 
ATOM     20  C   UNL     1      -0.501  12.008  22.004  0.00  0.00    +0.000 C 
ENDBRANCH  18  20
ENDBRANCH  17  18
ENDBRANCH   1  17
BRANCH   3  21
ATOM     21  O   UNL     1       2.950   5.788  19.884  0.00  0.00    +0.000 OA
BRANCH  21  22
ATOM     22  C   UNL     1       3.730   5.190  18.910  0.00  0.00    +0.000 A 
ATOM     23  C   UNL     1       3.187   4.494  17.824  0.00  0.00    +0.000 A 
ATOM     24  C   UNL     1       4.015   3.897  16.878  0.00  0.00    +0.000 A 
ATOM     25  C   UNL     1       5.402   4.058  16.954  0.00  0.00    +0.000 A 
ATOM     26  C   UNL     1       5.949   4.783  18.023  0.00  0.00    +0.000 A 
ATOM     27  C   UNL     1       5.114   5.346  18.999  0.00  0.00    +0.000 A 
BRANCH  25  28
ATOM     28  C   UNL     1       6.270   3.563  15.820  0.00  0.00    +0.000 C 
BRANCH  28  29
ATOM     29  C   UNL     1       6.451   4.536  14.669  0.00  0.00    +0.000 C 
ATOM     30  O   UNL     1       5.701   4.539  13.699  0.00  0.00    +0.000 OA
BRANCH  29  31
ATOM     31  O   UNL     1       7.476   5.413  14.757  0.00  0.00    +0.000 OA
ATOM     32  H   UNL     1       7.538   6.059  14.028  0.00  0.00    +0.000 HD
ENDBRANCH  29  31
ENDBRANCH  28  29
ENDBRANCH  25  28
ENDBRANCH  21  22
ENDBRANCH   3  21
TORSDOF 10
ENDMDL
MODEL 8
REMARK VINA RESULT:      -7.4      2.000      3.007
REMARK  Name = 
REMARK  11 active torsions:
REMARK  status: ('A' for Active; 'I' for Inactive)
REMARK    1  A    between atoms: C_1  and  C_2
REMARK    2  A    between atoms: C_2  and  C_3
REMARK    3  A    between atoms: C_3  and  S_4
REMARK    4  A    between atoms: S_4  and  C_5
REMARK    5  A    between atoms: C_7  and  O_8
REMARK    6  A    between atoms: O_8  and  C_9
REMARK    7  A    between atoms: C_12  and  C_13
REMARK    8  A    between atoms: C_13  and  C_14
REMARK    9  A    between atoms: C_14  and  O_16
REMARK   10  A    between atoms: C_21  and  C_22
REMARK   11  A    between atoms: N_24  and  C_25
REMARK                            x       y       z     vdW  Elec       q    Type
REMARK                         _______ _______ _______ _____ _____    ______ ____
ROOT
ATOM      1  C   UNL     1       1.300   8.548  19.979  0.00  0.00    +0.000 A 
ATOM      2  N   UNL     1       0.683   9.743  19.812  0.00  0.00    +0.000 NA
ATOM      3  C   UNL     1       0.868  10.427  18.667  0.00  0.00    +0.000 A 
ATOM      4  C   UNL     1       1.587   9.923  17.602  0.00  0.00    +0.000 A 
ATOM      5  C   UNL     1       2.211   8.684  17.770  0.00  0.00    +0.000 A 
ATOM      6  C   UNL     1       2.109   7.989  18.990  0.00  0.00    +0.000 A 
ENDROOT
BRANCH   6   7
ATOM      7  C   UNL     1       2.860   6.704  19.107  0.00  0.00    +0.000 C 
ATOM      8  O   UNL     1       2.606   5.947  20.035  0.00  0.00    +0.000 OA
ATOM      9  N   UNL     1       3.781   6.407  18.125  0.00  0.00    +0.000 N 
ATOM     10  H   UNL     1       3.896   7.055  17.355  0.00  0.00    +0.000 HD
BRANCH   9  11
ATOM     11  C   UNL     1       4.582   5.186  18.112  0.00  0.00    +0.000 C 
ATOM     12  C   UNL     1       4.735   4.634  16.690  0.00  0.00    +0.000 C 
ATOM     13  C   UNL     1       5.618   5.526  15.818  0.00  0.00    +0.000 C 
ATOM     14  C   UNL     1       6.988   5.750  16.452  0.00  0.00    +0.000 C 
ATOM     15  C   UNL     1       6.873   6.298  17.871  0.00  0.00    +0.000 C 
ATOM     16  C   UNL     1       5.964   5.429  18.743  0.00  0.00    +0.000 C 
ENDBRANCH   9  11
ENDBRANCH   6   7
BRANCH   1  17
ATOM     17  S   UNL     1       1.014   7.824  21.588  0.00  0.00    +0.000 S 
BRANCH  17  18
ATOM     18  C   UNL     1       0.888   9.329  22.611  0.00  0.00    +0.000 C 
BRANCH  18  20
ATOM     19  C   UNL     1      -1.051  10.866  23.020  0.00  0.00    +0.000 C 
ATOM     20  C   UNL     1      -0.535   9.443  23.147  0.00  0.00    +0.000 C 
ENDBRANCH  18  20
ENDBRANCH  17  18
ENDBRANCH   1  17
BRANCH   3  21
ATOM     21  O   UNL     1       0.336  11.707  18.566  0.00  0.00    +0.000 OA
BRANCH  21  22
ATOM     22  C   UNL     1      -1.030  11.834  18.755  0.00  0.00    +0.000 A 
ATOM     23  C   UNL     1      -1.585  12.562  19.813  0.00  0.00    +0.000 A 
ATOM     24  C   UNL     1      -2.965  12.647  19.968  0.00  0.00    +0.000 A 
ATOM     25  C   UNL     1      -3.818  12.075  19.019  0.00  0.00    +0.000 A 
ATOM     26  C   UNL     1      -3.265  11.372  17.938  0.00  0.00    +0.000 A 
ATOM     27  C   UNL     1      -1.874  11.250  17.808  0.00  0.00    +0.000 A 
BRANCH  25  28
ATOM     28  C   UNL     1      -5.304  12.336  19.102  0.00  0.00    +0.000 C 
BRANCH  28  29
ATOM     29  C   UNL     1      -6.164  11.501  18.171  0.00  0.00    +0.000 C 
ATOM     30  O   UNL     1      -6.607  10.407  18.504  0.00  0.00    +0.000 OA
BRANCH  29  31
ATOM     31  O   UNL     1      -6.432  12.017  16.951  0.00  0.00    +0.000 OA
ATOM     32  H   UNL     1      -6.918  11.426  16.344  0.00  0.00    +0.000 HD
ENDBRANCH  29  31
ENDBRANCH  28  29
ENDBRANCH  25  28
ENDBRANCH  21  22
ENDBRANCH   3  21
TORSDOF 10
ENDMDL
MODEL 9
REMARK VINA RESULT:      -7.4      3.072      4.363
REMARK  Name = 
REMARK  11 active torsions:
REMARK  status: ('A' for Active; 'I' for Inactive)
REMARK    1  A    between atoms: C_1  and  C_2
REMARK    2  A    between atoms: C_2  and  C_3
REMARK    3  A    between atoms: C_3  and  S_4
REMARK    4  A    between atoms: S_4  and  C_5
REMARK    5  A    between atoms: C_7  and  O_8
REMARK    6  A    between atoms: O_8  and  C_9
REMARK    7  A    between atoms: C_12  and  C_13
REMARK    8  A    between atoms: C_13  and  C_14
REMARK    9  A    between atoms: C_14  and  O_16
REMARK   10  A    between atoms: C_21  and  C_22
REMARK   11  A    between atoms: N_24  and  C_25
REMARK                            x       y       z     vdW  Elec       q    Type
REMARK                         _______ _______ _______ _____ _____    ______ ____
ROOT
ATOM      1  C   UNL     1       1.884   7.516  19.753  0.00  0.00    +0.000 A 
ATOM      2  N   UNL     1       1.118   8.538  20.203  0.00  0.00    +0.000 NA
ATOM      3  C   UNL     1       0.938   9.622  19.422  0.00  0.00    +0.000 A 
ATOM      4  C   UNL     1       1.422   9.702  18.132  0.00  0.00    +0.000 A 
ATOM      5  C   UNL     1       2.201   8.641  17.665  0.00  0.00    +0.000 A 
ATOM      6  C   UNL     1       2.481   7.537  18.492  0.00  0.00    +0.000 A 
ENDROOT
BRANCH   6   7
ATOM      7  C   UNL     1       3.374   6.477  17.937  0.00  0.00    +0.000 C 
ATOM      8  O   UNL     1       2.890   5.400  17.610  0.00  0.00    +0.000 OA
ATOM      9  N   UNL     1       4.707   6.784  17.771  0.00  0.00    +0.000 N 
ATOM     10  H   UNL     1       5.025   7.716  18.009  0.00  0.00    +0.000 HD
BRANCH   9  11
ATOM     11  C   UNL     1       5.691   5.845  17.237  0.00  0.00    +0.000 C 
ATOM     12  C   UNL     1       6.971   6.568  16.802  0.00  0.00    +0.000 C 
ATOM     13  C   UNL     1       7.759   7.111  17.994  0.00  0.00    +0.000 C 
ATOM     14  C   UNL     1       8.085   6.010  18.999  0.00  0.00    +0.000 C 
ATOM     15  C   UNL     1       6.831   5.268  19.452  0.00  0.00    +0.000 C 
ATOM     16  C   UNL     1       6.019   4.749  18.264  0.00  0.00    +0.000 C 
ENDBRANCH   9  11
ENDBRANCH   6   7
BRANCH   1  17
ATOM     17  S   UNL     1       2.086   6.204  20.951  0.00  0.00    +0.000 S 
BRANCH  17  18
ATOM     18  C   UNL     1       0.871   4.996  20.325  0.00  0.00    +0.000 C 
BRANCH  18  20
ATOM     19  C   UNL     1       0.981   2.727  19.263  0.00  0.00    +0.000 C 
ATOM     20  C   UNL     1       1.479   3.600  20.401  0.00  0.00    +0.000 C 
ENDBRANCH  18  20
ENDBRANCH  17  18
ENDBRANCH   1  17
BRANCH   3  21
ATOM     21  O   UNL     1       0.260  10.714  19.950  0.00  0.00    +0.000 OA
BRANCH  21  22
ATOM     22  C   UNL     1       0.776  11.967  19.667  0.00  0.00    +0.000 A 
ATOM     23  C   UNL     1       0.190  12.839  18.743  0.00  0.00    +0.000 A 
ATOM     24  C   UNL     1       0.755  14.084  18.483  0.00  0.00    +0.000 A 
ATOM     25  C   UNL     1       1.872  14.514  19.206  0.00  0.00    +0.000 A 
ATOM     26  C   UNL     1       2.444  13.656  20.157  0.00  0.00    +0.000 A 
ATOM     27  C   UNL     1       1.898  12.385  20.386  0.00  0.00    +0.000 A 
BRANCH  25  28
ATOM     28  C   UNL     1       2.358  15.936  19.045  0.00  0.00    +0.000 C 
BRANCH  28  29
ATOM     29  C   UNL     1       2.994  16.257  17.705  0.00  0.00    +0.000 C 
ATOM     30  O   UNL     1       2.846  17.346  17.160  0.00  0.00    +0.000 OA
BRANCH  29  31
ATOM     31  O   UNL     1       3.743  15.290  17.130  0.00  0.00    +0.000 OA
ATOM     32  H   UNL     1       4.695  15.490  17.049  0.00  0.00    +0.000 HD
ENDBRANCH  29  31
ENDBRANCH  28  29
ENDBRANCH  25  28
ENDBRANCH  21  22
ENDBRANCH   3  21
TORSDOF 10
ENDMDL
