MODEL 1
REMARK VINA RESULT:      -7.2      0.000      0.000
REMARK  Name = 
REMARK  6 active torsions:
REMARK  status: ('A' for Active; 'I' for Inactive)
REMARK    1  A    between atoms: N_8  and  C_9
REMARK    2  A    between atoms: C_9  and  C_10
REMARK    3  A    between atoms: C_10  and  O_11
REMARK    4  A    between atoms: C_10  and  C_12
REMARK    5  A    between atoms: C_12  and  N_13
REMARK    6  A    between atoms: N_13  and  C_14
REMARK                            x       y       z     vdW  Elec       q    Type
REMARK                         _______ _______ _______ _____ _____    ______ ____
ROOT
ATOM      1  C   UNL     1       2.528   3.677  17.500  0.00  0.00    +0.000 C 
ENDROOT
BRANCH   1   2
ATOM      2  O   UNL     1       1.257   4.231  17.153  0.00  0.00    +0.000 OA
ATOM      3  H   UNL     1       0.798   3.612  16.552  0.00  0.00    +0.000 HD
ENDBRANCH   1   2
BRANCH   1   4
ATOM      4  C   UNL     1       2.380   2.389  18.330  0.00  0.00    +0.000 C 
BRANCH   4  12
ATOM      5  O   UNL     1       4.962   1.784  19.426  0.00  0.00    +0.000 OA
ATOM      6  N   UNL     1       4.528   1.880  20.583  0.00  0.00    +0.000 N 
ATOM      7  O   UNL     1       5.173   1.590  21.605  0.00  0.00    +0.000 OA
ATOM      8  C   UNL     1       3.179   2.355  20.765  0.00  0.00    +0.000 A 
ATOM      9  N   UNL     1       2.656   2.563  21.960  0.00  0.00    +0.000 NA
ATOM     10  C   UNL     1       1.377   2.991  21.725  0.00  0.00    +0.000 A 
ATOM     11  C   UNL     1       1.122   3.043  20.375  0.00  0.00    +0.000 A 
ATOM     12  N   UNL     1       2.283   2.618  19.761  0.00  0.00    +0.000 N 
ENDBRANCH   4  12
ENDBRANCH   1   4
BRANCH   1  13
ATOM     13  C   UNL     1       3.348   4.733  18.274  0.00  0.00    +0.000 C 
BRANCH  13  14
ATOM     14  N   UNL     1       4.251   5.442  17.372  0.00  0.00    +0.000 NA
ATOM     15  H   UNL     1       3.716   6.062  16.763  0.00  0.00    +0.000 HD
BRANCH  14  16
ATOM     16  C   UNL     1       5.335   6.208  18.037  0.00  0.00    +0.000 C 
ATOM     17  C   UNL     1       6.108   5.379  19.087  0.00  0.00    +0.000 C 
ATOM     18  O   UNL     1       6.665   4.206  18.486  0.00  0.00    +0.000 OA
ATOM     19  C   UNL     1       7.642   4.515  17.492  0.00  0.00    +0.000 C 
ATOM     20  C   UNL     1       7.104   5.423  16.387  0.00  0.00    +0.000 C 
ATOM     21  C   UNL     1       6.324   6.618  16.929  0.00  0.00    +0.000 C 
ATOM     22 BR   UNL     1       7.563   8.003  17.568  0.00  0.00    +0.000 Br
ENDBRANCH  14  16
ENDBRANCH  13  14
ENDBRANCH   1  13
TORSDOF 6
ENDMDL
MODEL 2
REMARK VINA RESULT:      -7.0      1.587      1.904
REMARK  Name = 
REMARK  6 active torsions:
REMARK  status: ('A' for Active; 'I' for Inactive)
REMARK    1  A    between atoms: N_8  and  C_9
REMARK    2  A    between atoms: C_9  and  C_10
REMARK    3  A    between atoms: C_10  and  O_11
REMARK    4  A    between atoms: C_10  and  C_12
REMARK    5  A    between atoms: C_12  and  N_13
REMARK    6  A    between atoms: N_13  and  C_14
REMARK                            x       y       z     vdW  Elec       q    Type
REMARK                         _______ _______ _______ _____ _____    ______ ____
ROOT
ATOM      1  C   UNL     1       2.077   3.524  17.778  0.00  0.00    +0.000 C 
ENDROOT
BRANCH   1   2
ATOM      2  O   UNL     1       0.943   4.128  17.152  0.00  0.00    +0.000 OA
ATOM      3  H   UNL     1       0.387   4.541  17.841  0.00  0.00    +0.000 HD
ENDBRANCH   1   2
BRANCH   1   4
ATOM      4  C   UNL     1       2.530   4.313  19.019  0.00  0.00    +0.000 C 
BRANCH   4  12
ATOM      5  O   UNL     1       5.083   3.124  19.570  0.00  0.00    +0.000 OA
ATOM      6  N   UNL     1       4.611   2.471  20.511  0.00  0.00    +0.000 N 
ATOM      7  O   UNL     1       5.225   1.593  21.139  0.00  0.00    +0.000 OA
ATOM      8  C   UNL     1       3.250   2.737  20.907  0.00  0.00    +0.000 A 
ATOM      9  N   UNL     1       2.685   2.146  21.945  0.00  0.00    +0.000 NA
ATOM     10  C   UNL     1       1.409   2.638  21.992  0.00  0.00    +0.000 A 
ATOM     11  C   UNL     1       1.197   3.536  20.972  0.00  0.00    +0.000 A 
ATOM     12  N   UNL     1       2.383   3.584  20.267  0.00  0.00    +0.000 N 
ENDBRANCH   4  12
ENDBRANCH   1   4
BRANCH   1  13
ATOM     13  C   UNL     1       3.226   3.417  16.750  0.00  0.00    +0.000 C 
BRANCH  13  14
ATOM     14  N   UNL     1       4.316   4.321  17.106  0.00  0.00    +0.000 NA
ATOM     15  H   UNL     1       5.009   3.824  17.669  0.00  0.00    +0.000 HD
BRANCH  14  16
ATOM     16  C   UNL     1       4.988   4.983  15.959  0.00  0.00    +0.000 C 
ATOM     17  C   UNL     1       5.214   6.496  16.179  0.00  0.00    +0.000 C 
ATOM     18  O   UNL     1       5.983   6.719  17.364  0.00  0.00    +0.000 OA
ATOM     19  C   UNL     1       7.300   6.177  17.268  0.00  0.00    +0.000 C 
ATOM     20  C   UNL     1       7.309   4.682  16.954  0.00  0.00    +0.000 C 
ATOM     21  C   UNL     1       6.366   4.311  15.812  0.00  0.00    +0.000 C 
ATOM     22 BR   UNL     1       7.186   4.757  14.083  0.00  0.00    +0.000 Br
ENDBRANCH  14  16
ENDBRANCH  13  14
ENDBRANCH   1  13
TORSDOF 6
ENDMDL
MODEL 3
REMARK VINA RESULT:      -6.6      1.626      2.067
REMARK  Name = 
REMARK  6 active torsions:
REMARK  status: ('A' for Active; 'I' for Inactive)
REMARK    1  A    between atoms: N_8  and  C_9
REMARK    2  A    between atoms: C_9  and  C_10
REMARK    3  A    between atoms: C_10  and  O_11
REMARK    4  A    between atoms: C_10  and  C_12
REMARK    5  A    between atoms: C_12  and  N_13
REMARK    6  A    between atoms: N_13  and  C_14
REMARK                            x       y       z     vdW  Elec       q    Type
REMARK                         _______ _______ _______ _____ _____    ______ ____
ROOT
ATOM      1  C   UNL     1       2.997   6.160  18.593  0.00  0.00    +0.000 C 
ENDROOT
BRANCH   1   2
ATOM      2  O   UNL     1       2.283   7.191  19.279  0.00  0.00    +0.000 OA
ATOM      3  H   UNL     1       1.727   7.671  18.635  0.00  0.00    +0.000 HD
ENDBRANCH   1   2
BRANCH   1   4
ATOM      4  C   UNL     1       2.079   4.982  18.223  0.00  0.00    +0.000 C 
BRANCH   4  12
ATOM      5  O   UNL     1       3.799   2.810  17.474  0.00  0.00    +0.000 OA
ATOM      6  N   UNL     1       3.354   2.101  18.388  0.00  0.00    +0.000 N 
ATOM      7  O   UNL     1       3.623   0.898  18.543  0.00  0.00    +0.000 OA
ATOM      8  C   UNL     1       2.453   2.705  19.338  0.00  0.00    +0.000 A 
ATOM      9  N   UNL     1       1.987   2.052  20.388  0.00  0.00    +0.000 NA
ATOM     10  C   UNL     1       1.168   2.939  21.032  0.00  0.00    +0.000 A 
ATOM     11  C   UNL     1       1.136   4.142  20.367  0.00  0.00    +0.000 A 
ATOM     12  N   UNL     1       1.955   3.980  19.268  0.00  0.00    +0.000 N 
ENDBRANCH   4  12
ENDBRANCH   1   4
BRANCH   1  13
ATOM     13  C   UNL     1       4.171   5.682  19.476  0.00  0.00    +0.000 C 
BRANCH  13  14
ATOM     14  N   UNL     1       5.149   4.951  18.676  0.00  0.00    +0.000 NA
ATOM     15  H   UNL     1       4.751   4.727  17.763  0.00  0.00    +0.000 HD
BRANCH  14  16
ATOM     16  C   UNL     1       6.455   5.634  18.497  0.00  0.00    +0.000 C 
ATOM     17  C   UNL     1       7.540   4.718  17.887  0.00  0.00    +0.000 C 
ATOM     18  O   UNL     1       7.106   4.202  16.625  0.00  0.00    +0.000 OA
ATOM     19  C   UNL     1       6.923   5.228  15.651  0.00  0.00    +0.000 C 
ATOM     20  C   UNL     1       5.941   6.310  16.100  0.00  0.00    +0.000 C 
ATOM     21  C   UNL     1       6.209   6.800  17.521  0.00  0.00    +0.000 C 
ATOM     22 BR   UNL     1       7.719   8.057  17.531  0.00  0.00    +0.000 Br
ENDBRANCH  14  16
ENDBRANCH  13  14
ENDBRANCH   1  13
TORSDOF 6
ENDMDL
MODEL 4
REMARK VINA RESULT:      -6.6      1.741      1.892
REMARK  Name = 
REMARK  6 active torsions:
REMARK  status: ('A' for Active; 'I' for Inactive)
REMARK    1  A    between atoms: N_8  and  C_9
REMARK    2  A    between atoms: C_9  and  C_10
REMARK    3  A    between atoms: C_10  and  O_11
REMARK    4  A    between atoms: C_10  and  C_12
REMARK    5  A    between atoms: C_12  and  N_13
REMARK    6  A    between atoms: N_13  and  C_14
REMARK                            x       y       z     vdW  Elec       q    Type
REMARK                         _______ _______ _______ _____ _____    ______ ____
ROOT
ATOM      1  C   UNL     1       2.873   5.571  18.738  0.00  0.00    +0.000 C 
ENDROOT
BRANCH   1   2
ATOM      2  O   UNL     1       3.701   5.899  19.856  0.00  0.00    +0.000 OA
ATOM      3  H   UNL     1       3.735   6.872  19.947  0.00  0.00    +0.000 HD
ENDBRANCH   1   2
BRANCH   1   4
ATOM      4  C   UNL     1       2.503   4.077  18.723  0.00  0.00    +0.000 C 
BRANCH   4  12
ATOM      5  O   UNL     1       5.031   2.957  19.492  0.00  0.00    +0.000 OA
ATOM      6  N   UNL     1       4.526   2.422  20.489  0.00  0.00    +0.000 N 
ATOM      7  O   UNL     1       5.115   1.623  21.236  0.00  0.00    +0.000 OA
ATOM      8  C   UNL     1       3.155   2.736  20.807  0.00  0.00    +0.000 A 
ATOM      9  N   UNL     1       2.555   2.275  21.890  0.00  0.00    +0.000 NA
ATOM     10  C   UNL     1       1.280   2.772  21.837  0.00  0.00    +0.000 A 
ATOM     11  C   UNL     1       1.106   3.542  20.712  0.00  0.00    +0.000 A 
ATOM     12  N   UNL     1       2.313   3.503  20.044  0.00  0.00    +0.000 N 
ENDBRANCH   4  12
ENDBRANCH   1   4
BRANCH   1  13
ATOM     13  C   UNL     1       3.602   5.966  17.434  0.00  0.00    +0.000 C 
BRANCH  13  14
ATOM     14  N   UNL     1       4.869   6.624  17.736  0.00  0.00    +0.000 NA
ATOM     15  H   UNL     1       5.262   6.243  18.597  0.00  0.00    +0.000 HD
BRANCH  14  16
ATOM     16  C   UNL     1       5.885   6.563  16.655  0.00  0.00    +0.000 C 
ATOM     17  C   UNL     1       7.312   6.901  17.142  0.00  0.00    +0.000 C 
ATOM     18  O   UNL     1       7.700   6.019  18.200  0.00  0.00    +0.000 OA
ATOM     19  C   UNL     1       7.788   4.660  17.771  0.00  0.00    +0.000 C 
ATOM     20  C   UNL     1       6.488   4.144  17.155  0.00  0.00    +0.000 C 
ATOM     21  C   UNL     1       5.888   5.112  16.138  0.00  0.00    +0.000 C 
ATOM     22 BR   UNL     1       6.842   4.975  14.427  0.00  0.00    +0.000 Br
ENDBRANCH  14  16
ENDBRANCH  13  14
ENDBRANCH   1  13
TORSDOF 6
ENDMDL
MODEL 5
REMARK VINA RESULT:      -6.6      3.188      5.661
REMARK  Name = 
REMARK  6 active torsions:
REMARK  status: ('A' for Active; 'I' for Inactive)
REMARK    1  A    between atoms: N_8  and  C_9
REMARK    2  A    between atoms: C_9  and  C_10
REMARK    3  A    between atoms: C_10  and  O_11
REMARK    4  A    between atoms: C_10  and  C_12
REMARK    5  A    between atoms: C_12  and  N_13
REMARK    6  A    between atoms: N_13  and  C_14
REMARK                            x       y       z     vdW  Elec       q    Type
REMARK                         _______ _______ _______ _____ _____    ______ ____
ROOT
ATOM      1  C   UNL     1       3.506   6.889  18.200  0.00  0.00    +0.000 C 
ENDROOT
BRANCH   1   2
ATOM      2  O   UNL     1       3.271   8.235  17.780  0.00  0.00    +0.000 OA
ATOM      3  H   UNL     1       3.917   8.464  17.083  0.00  0.00    +0.000 HD
ENDBRANCH   1   2
BRANCH   1   4
ATOM      4  C   UNL     1       4.280   6.088  17.138  0.00  0.00    +0.000 C 
BRANCH   4  12
ATOM      5  O   UNL     1       5.753   5.762  14.697  0.00  0.00    +0.000 OA
ATOM      6  N   UNL     1       6.740   5.337  15.313  0.00  0.00    +0.000 N 
ATOM      7  O   UNL     1       7.756   4.863  14.778  0.00  0.00    +0.000 OA
ATOM      8  C   UNL     1       6.713   5.382  16.754  0.00  0.00    +0.000 A 
ATOM      9  N   UNL     1       7.746   5.022  17.495  0.00  0.00    +0.000 NA
ATOM     10  C   UNL     1       7.339   5.189  18.791  0.00  0.00    +0.000 A 
ATOM     11  C   UNL     1       6.046   5.655  18.837  0.00  0.00    +0.000 A 
ATOM     12  N   UNL     1       5.642   5.764  17.521  0.00  0.00    +0.000 N 
ENDBRANCH   4  12
ENDBRANCH   1   4
BRANCH   1  13
ATOM     13  C   UNL     1       2.152   6.213  18.515  0.00  0.00    +0.000 C 
BRANCH  13  14
ATOM     14  N   UNL     1       2.148   4.832  18.041  0.00  0.00    +0.000 NA
ATOM     15  H   UNL     1       3.091   4.558  17.761  0.00  0.00    +0.000 HD
BRANCH  14  16
ATOM     16  C   UNL     1       1.604   3.837  18.999  0.00  0.00    +0.000 C 
ATOM     17  C   UNL     1       1.382   2.444  18.368  0.00  0.00    +0.000 C 
ATOM     18  O   UNL     1       2.604   1.944  17.819  0.00  0.00    +0.000 OA
ATOM     19  C   UNL     1       3.600   1.723  18.818  0.00  0.00    +0.000 C 
ATOM     20  C   UNL     1       3.908   2.973  19.640  0.00  0.00    +0.000 C 
ATOM     21  C   UNL     1       2.650   3.692  20.121  0.00  0.00    +0.000 C 
ATOM     22 BR   UNL     1       1.891   2.763  21.676  0.00  0.00    +0.000 Br
ENDBRANCH  14  16
ENDBRANCH  13  14
ENDBRANCH   1  13
TORSDOF 6
ENDMDL
MODEL 6
REMARK VINA RESULT:      -6.5      2.113      2.766
REMARK  Name = 
REMARK  6 active torsions:
REMARK  status: ('A' for Active; 'I' for Inactive)
REMARK    1  A    between atoms: N_8  and  C_9
REMARK    2  A    between atoms: C_9  and  C_10
REMARK    3  A    between atoms: C_10  and  O_11
REMARK    4  A    between atoms: C_10  and  C_12
REMARK    5  A    between atoms: C_12  and  N_13
REMARK    6  A    between atoms: N_13  and  C_14
REMARK                            x       y       z     vdW  Elec       q    Type
REMARK                         _______ _______ _______ _____ _____    ______ ____
ROOT
ATOM      1  C   UNL     1       2.877   6.115  18.992  0.00  0.00    +0.000 C 
ENDROOT
BRANCH   1   2
ATOM      2  O   UNL     1       3.905   5.705  19.896  0.00  0.00    +0.000 OA
ATOM      3  H   UNL     1       3.690   4.814  20.234  0.00  0.00    +0.000 HD
ENDBRANCH   1   2
BRANCH   1   4
ATOM      4  C   UNL     1       1.845   4.997  18.760  0.00  0.00    +0.000 C 
BRANCH   4  12
ATOM      5  O   UNL     1       1.876   4.042  21.466  0.00  0.00    +0.000 OA
ATOM      6  N   UNL     1       2.544   3.051  21.142  0.00  0.00    +0.000 N 
ATOM      7  O   UNL     1       3.034   2.237  21.942  0.00  0.00    +0.000 OA
ATOM      8  C   UNL     1       2.781   2.821  19.738  0.00  0.00    +0.000 A 
ATOM      9  N   UNL     1       3.416   1.753  19.292  0.00  0.00    +0.000 NA
ATOM     10  C   UNL     1       3.456   1.896  17.931  0.00  0.00    +0.000 A 
ATOM     11  C   UNL     1       2.839   3.064  17.548  0.00  0.00    +0.000 A 
ATOM     12  N   UNL     1       2.419   3.663  18.719  0.00  0.00    +0.000 N 
ENDBRANCH   4  12
ENDBRANCH   1   4
BRANCH   1  13
ATOM     13  C   UNL     1       3.519   6.550  17.656  0.00  0.00    +0.000 C 
BRANCH  13  14
ATOM     14  N   UNL     1       4.896   6.989  17.869  0.00  0.00    +0.000 NA
ATOM     15  H   UNL     1       5.252   6.599  18.742  0.00  0.00    +0.000 HD
BRANCH  14  16
ATOM     16  C   UNL     1       5.836   6.677  16.763  0.00  0.00    +0.000 C 
ATOM     17  C   UNL     1       7.309   6.984  17.114  0.00  0.00    +0.000 C 
ATOM     18  O   UNL     1       7.705   6.260  18.282  0.00  0.00    +0.000 OA
ATOM     19  C   UNL     1       7.678   4.847  18.083  0.00  0.00    +0.000 C 
ATOM     20  C   UNL     1       6.312   4.334  17.630  0.00  0.00    +0.000 C 
ATOM     21  C   UNL     1       5.713   5.164  16.497  0.00  0.00    +0.000 C 
ATOM     22 BR   UNL     1       6.548   4.679  14.786  0.00  0.00    +0.000 Br
ENDBRANCH  14  16
ENDBRANCH  13  14
ENDBRANCH   1  13
TORSDOF 6
ENDMDL
MODEL 7
REMARK VINA RESULT:      -6.4      3.095      5.876
REMARK  Name = 
REMARK  6 active torsions:
REMARK  status: ('A' for Active; 'I' for Inactive)
REMARK    1  A    between atoms: N_8  and  C_9
REMARK    2  A    between atoms: C_9  and  C_10
REMARK    3  A    between atoms: C_10  and  O_11
REMARK    4  A    between atoms: C_10  and  C_12
REMARK    5  A    between atoms: C_12  and  N_13
REMARK    6  A    between atoms: N_13  and  C_14
REMARK                            x       y       z     vdW  Elec       q    Type
REMARK                         _______ _______ _______ _____ _____    ______ ____
ROOT
ATOM      1  C   UNL     1       3.775   6.255  17.579  0.00  0.00    +0.000 C 
ENDROOT
BRANCH   1   2
ATOM      2  O   UNL     1       3.532   4.926  17.115  0.00  0.00    +0.000 OA
ATOM      3  H   UNL     1       2.801   4.948  16.466  0.00  0.00    +0.000 HD
ENDBRANCH   1   2
BRANCH   1   4
ATOM      4  C   UNL     1       5.188   6.738  17.207  0.00  0.00    +0.000 C 
BRANCH   4  12
ATOM      5  O   UNL     1       6.960   5.234  18.890  0.00  0.00    +0.000 OA
ATOM      6  N   UNL     1       7.522   4.735  17.905  0.00  0.00    +0.000 N 
ATOM      7  O   UNL     1       8.544   4.030  17.958  0.00  0.00    +0.000 OA
ATOM      8  C   UNL     1       6.962   4.991  16.602  0.00  0.00    +0.000 A 
ATOM      9  N   UNL     1       7.446   4.441  15.502  0.00  0.00    +0.000 NA
ATOM     10  C   UNL     1       6.672   4.928  14.483  0.00  0.00    +0.000 A 
ATOM     11  C   UNL     1       5.710   5.782  14.969  0.00  0.00    +0.000 A 
ATOM     12  N   UNL     1       5.911   5.830  16.334  0.00  0.00    +0.000 N 
ENDBRANCH   4  12
ENDBRANCH   1   4
BRANCH   1  13
ATOM     13  C   UNL     1       3.567   6.305  19.109  0.00  0.00    +0.000 C 
BRANCH  13  14
ATOM     14  N   UNL     1       3.722   4.974  19.690  0.00  0.00    +0.000 NA
ATOM     15  H   UNL     1       4.565   4.942  20.264  0.00  0.00    +0.000 HD
BRANCH  14  16
ATOM     16  C   UNL     1       2.561   4.492  20.481  0.00  0.00    +0.000 C 
ATOM     17  C   UNL     1       1.211   4.674  19.752  0.00  0.00    +0.000 C 
ATOM     18  O   UNL     1       1.230   3.999  18.490  0.00  0.00    +0.000 OA
ATOM     19  C   UNL     1       1.366   2.585  18.631  0.00  0.00    +0.000 C 
ATOM     20  C   UNL     1       2.610   2.181  19.421  0.00  0.00    +0.000 C 
ATOM     21  C   UNL     1       2.782   2.984  20.708  0.00  0.00    +0.000 C 
ATOM     22 BR   UNL     1       1.581   2.297  22.101  0.00  0.00    +0.000 Br
ENDBRANCH  14  16
ENDBRANCH  13  14
ENDBRANCH   1  13
TORSDOF 6
ENDMDL
MODEL 8
REMARK VINA RESULT:      -6.3      3.025      6.020
REMARK  Name = 
REMARK  6 active torsions:
REMARK  status: ('A' for Active; 'I' for Inactive)
REMARK    1  A    between atoms: N_8  and  C_9
REMARK    2  A    between atoms: C_9  and  C_10
REMARK    3  A    between atoms: C_10  and  O_11
REMARK    4  A    between atoms: C_10  and  C_12
REMARK    5  A    between atoms: C_12  and  N_13
REMARK    6  A    between atoms: N_13  and  C_14
REMARK                            x       y       z     vdW  Elec       q    Type
REMARK                         _______ _______ _______ _____ _____    ______ ____
ROOT
ATOM      1  C   UNL     1       7.223   5.296  19.238  0.00  0.00    +0.000 C 
ENDROOT
BRANCH   1   2
ATOM      2  O   UNL     1       8.077   5.524  20.362  0.00  0.00    +0.000 OA
ATOM      3  H   UNL     1       7.919   4.822  21.023  0.00  0.00    +0.000 HD
ENDBRANCH   1   2
BRANCH   1   4
ATOM      4  C   UNL     1       7.470   6.323  18.119  0.00  0.00    +0.000 C 
BRANCH   4  12
ATOM      5  O   UNL     1       7.944   4.111  16.354  0.00  0.00    +0.000 OA
ATOM      6  N   UNL     1       7.072   4.509  15.569  0.00  0.00    +0.000 N 
ATOM      7  O   UNL     1       6.853   4.018  14.450  0.00  0.00    +0.000 OA
ATOM      8  C   UNL     1       6.256   5.627  15.972  0.00  0.00    +0.000 A 
ATOM      9  N   UNL     1       5.253   6.073  15.238  0.00  0.00    +0.000 NA
ATOM     10  C   UNL     1       4.737   7.133  15.935  0.00  0.00    +0.000 A 
ATOM     11  C   UNL     1       5.434   7.331  17.103  0.00  0.00    +0.000 A 
ATOM     12  N   UNL     1       6.421   6.366  17.115  0.00  0.00    +0.000 N 
ENDBRANCH   4  12
ENDBRANCH   1   4
BRANCH   1  13
ATOM     13  C   UNL     1       5.751   5.339  19.703  0.00  0.00    +0.000 C 
BRANCH  13  14
ATOM     14  N   UNL     1       5.003   4.218  19.141  0.00  0.00    +0.000 NA
ATOM     15  H   UNL     1       5.325   3.343  19.557  0.00  0.00    +0.000 HD
BRANCH  14  16
ATOM     16  C   UNL     1       3.527   4.317  19.266  0.00  0.00    +0.000 C 
ATOM     17  C   UNL     1       2.816   4.539  17.913  0.00  0.00    +0.000 C 
ATOM     18  O   UNL     1       3.138   3.485  17.000  0.00  0.00    +0.000 OA
ATOM     19  C   UNL     1       2.661   2.215  17.444  0.00  0.00    +0.000 C 
ATOM     20  C   UNL     1       3.176   1.836  18.832  0.00  0.00    +0.000 C 
ATOM     21  C   UNL     1       3.046   2.972  19.844  0.00  0.00    +0.000 C 
ATOM     22 BR   UNL     1       1.194   3.101  20.483  0.00  0.00    +0.000 Br
ENDBRANCH  14  16
ENDBRANCH  13  14
ENDBRANCH   1  13
TORSDOF 6
ENDMDL
MODEL 9
REMARK VINA RESULT:      -6.3      2.680      6.002
REMARK  Name = 
REMARK  6 active torsions:
REMARK  status: ('A' for Active; 'I' for Inactive)
REMARK    1  A    between atoms: N_8  and  C_9
REMARK    2  A    between atoms: C_9  and  C_10
REMARK    3  A    between atoms: C_10  and  O_11
REMARK    4  A    between atoms: C_10  and  C_12
REMARK    5  A    between atoms: C_12  and  N_13
REMARK    6  A    between atoms: N_13  and  C_14
REMARK                            x       y       z     vdW  Elec       q    Type
REMARK                         _______ _______ _______ _____ _____    ______ ____
ROOT
ATOM      1  C   UNL     1       7.303   5.295  19.224  0.00  0.00    +0.000 C 
ENDROOT
BRANCH   1   2
ATOM      2  O   UNL     1       7.973   5.640  20.439  0.00  0.00    +0.000 OA
ATOM      3  H   UNL     1       7.337   6.086  21.032  0.00  0.00    +0.000 HD
ENDBRANCH   1   2
BRANCH   1   4
ATOM      4  C   UNL     1       7.538   6.349  18.127  0.00  0.00    +0.000 C 
BRANCH   4  12
ATOM      5  O   UNL     1       7.965   4.145  16.339  0.00  0.00    +0.000 OA
ATOM      6  N   UNL     1       7.090   4.561  15.567  0.00  0.00    +0.000 N 
ATOM      7  O   UNL     1       6.852   4.082  14.446  0.00  0.00    +0.000 OA
ATOM      8  C   UNL     1       6.292   5.686  15.988  0.00  0.00    +0.000 A 
ATOM      9  N   UNL     1       5.288   6.151  15.267  0.00  0.00    +0.000 NA
ATOM     10  C   UNL     1       4.793   7.212  15.978  0.00  0.00    +0.000 A 
ATOM     11  C   UNL     1       5.504   7.391  17.141  0.00  0.00    +0.000 A 
ATOM     12  N   UNL     1       6.479   6.413  17.135  0.00  0.00    +0.000 N 
ENDBRANCH   4  12
ENDBRANCH   1   4
BRANCH   1  13
ATOM     13  C   UNL     1       5.793   5.129  19.507  0.00  0.00    +0.000 C 
BRANCH  13  14
ATOM     14  N   UNL     1       5.436   3.714  19.562  0.00  0.00    +0.000 NA
ATOM     15  H   UNL     1       5.418   3.399  20.533  0.00  0.00    +0.000 HD
BRANCH  14  16
ATOM     16  C   UNL     1       4.156   3.360  18.898  0.00  0.00    +0.000 C 
ATOM     17  C   UNL     1       3.448   2.150  19.550  0.00  0.00    +0.000 C 
ATOM     18  O   UNL     1       3.202   2.404  20.936  0.00  0.00    +0.000 OA
ATOM     19  C   UNL     1       2.299   3.491  21.139  0.00  0.00    +0.000 C 
ATOM     20  C   UNL     1       2.769   4.787  20.481  0.00  0.00    +0.000 C 
ATOM     21  C   UNL     1       3.235   4.586  19.041  0.00  0.00    +0.000 C 
ATOM     22 BR   UNL     1       1.686   4.448  17.840  0.00  0.00    +0.000 Br
ENDBRANCH  14  16
ENDBRANCH  13  14
ENDBRANCH   1  13
TORSDOF 6
ENDMDL
