MODEL 1
REMARK VINA RESULT:      -8.7      0.000      0.000
REMARK  Name = 
REMARK  10 active torsions:
REMARK  status: ('A' for Active; 'I' for Inactive)
REMARK    1  A    between atoms: C_1  and  C_2
REMARK    2  A    between atoms: C_4  and  C_5
REMARK    3  A    between atoms: N_6  and  C_7
REMARK    4  A    between atoms: C_10  and  C_11
REMARK    5  A    between atoms: N_13  and  C_14
REMARK    6  A    between atoms: C_17  and  C_18
REMARK    7  A    between atoms: C_19  and  S_20
REMARK    8  A    between atoms: S_20  and  N_23
REMARK    9  A    between atoms: N_23  and  C_24
REMARK   10  A    between atoms: N_23  and  C_25
REMARK                            x       y       z     vdW  Elec       q    Type
REMARK                         _______ _______ _______ _____ _____    ______ ____
ROOT
ATOM      1  C   UNL     1       1.577   7.812  20.239  0.00  0.00    +0.000 C 
ATOM      2  O   UNL     1       1.697   6.820  20.958  0.00  0.00    +0.000 OA
ATOM      3  N   UNL     1       2.206   8.003  19.015  0.00  0.00    +0.000 N 
ATOM      4  H   UNL     1       2.215   8.939  18.625  0.00  0.00    +0.000 HD
ENDROOT
BRANCH   3   5
ATOM      5  C   UNL     1       3.048   7.033  18.403  0.00  0.00    +0.000 A 
ATOM      6  C   UNL     1       3.870   7.346  17.320  0.00  0.00    +0.000 A 
ATOM      7  C   UNL     1       4.685   6.383  16.722  0.00  0.00    +0.000 A 
ATOM      8  C   UNL     1       4.705   5.062  17.181  0.00  0.00    +0.000 A 
ATOM      9  C   UNL     1       5.662   4.116  16.516  0.00  0.00    +0.000 C 
ATOM     10  C   UNL     1       3.850   4.726  18.247  0.00  0.00    +0.000 A 
ATOM     11  C   UNL     1       3.059   5.719  18.881  0.00  0.00    +0.000 A 
BRANCH  10  12
ATOM     12  S   UNL     1       3.723   3.053  18.890  0.00  0.00    +0.000 S 
ATOM     13  O   UNL     1       3.423   2.131  17.815  0.00  0.00    +0.000 OA
ATOM     14  O   UNL     1       4.882   2.837  19.732  0.00  0.00    +0.000 OA
BRANCH  12  15
ATOM     15  N   UNL     1       2.347   3.113  19.917  0.00  0.00    +0.000 NA
ATOM     16  C   UNL     1       1.129   2.435  19.413  0.00  0.00    +0.000 C 
ATOM     17  C   UNL     1       2.655   2.656  21.296  0.00  0.00    +0.000 C 
ENDBRANCH  12  15
ENDBRANCH  10  12
ENDBRANCH   3   5
BRANCH   1  21
ATOM     18  C   UNL     1      -0.783  10.904  22.060  0.00  0.00    +0.000 A 
ATOM     19  C   UNL     1      -0.137   9.925  22.817  0.00  0.00    +0.000 A 
ATOM     20  C   UNL     1       0.636   8.951  22.191  0.00  0.00    +0.000 A 
ATOM     21  C   UNL     1       0.775   8.931  20.797  0.00  0.00    +0.000 A 
ATOM     22  C   UNL     1       0.088   9.871  20.024  0.00  0.00    +0.000 A 
ATOM     23  C   UNL     1      -0.709  10.846  20.656  0.00  0.00    +0.000 A 
BRANCH  18  29
ATOM     24  C   UNL     1      -4.337  12.893  24.665  0.00  0.00    +0.000 C 
ATOM     25  C   UNL     1      -3.084  12.812  23.876  0.00  0.00    +0.000 A 
ATOM     26  C   UNL     1      -2.145  13.836  23.665  0.00  0.00    +0.000 A 
ATOM     27  C   UNL     1      -1.166  13.278  22.871  0.00  0.00    +0.000 A 
ATOM     28  C   UNL     1      -0.022  13.960  22.213  0.00  0.00    +0.000 C 
ATOM     29  N   UNL     1      -1.518  11.940  22.705  0.00  0.00    +0.000 N 
ATOM     30  N   UNL     1      -2.745  11.687  23.233  0.00  0.00    +0.000 NA
ENDBRANCH  18  29
ENDBRANCH   1  21
TORSDOF 5
ENDMDL
MODEL 2
REMARK VINA RESULT:      -8.5      1.024      1.078
REMARK  Name = 
REMARK  10 active torsions:
REMARK  status: ('A' for Active; 'I' for Inactive)
REMARK    1  A    between atoms: C_1  and  C_2
REMARK    2  A    between atoms: C_4  and  C_5
REMARK    3  A    between atoms: N_6  and  C_7
REMARK    4  A    between atoms: C_10  and  C_11
REMARK    5  A    between atoms: N_13  and  C_14
REMARK    6  A    between atoms: C_17  and  C_18
REMARK    7  A    between atoms: C_19  and  S_20
REMARK    8  A    between atoms: S_20  and  N_23
REMARK    9  A    between atoms: N_23  and  C_24
REMARK   10  A    between atoms: N_23  and  C_25
REMARK                            x       y       z     vdW  Elec       q    Type
REMARK                         _______ _______ _______ _____ _____    ______ ____
ROOT
ATOM      1  C   UNL     1       1.537   9.047  18.718  0.00  0.00    +0.000 C 
ATOM      2  O   UNL     1       1.497   9.258  17.506  0.00  0.00    +0.000 OA
ATOM      3  N   UNL     1       2.197   7.990  19.332  0.00  0.00    +0.000 N 
ATOM      4  H   UNL     1       1.975   7.789  20.301  0.00  0.00    +0.000 HD
ENDROOT
BRANCH   3   5
ATOM      5  C   UNL     1       2.966   7.025  18.625  0.00  0.00    +0.000 A 
ATOM      6  C   UNL     1       3.721   7.361  17.501  0.00  0.00    +0.000 A 
ATOM      7  C   UNL     1       4.464   6.403  16.809  0.00  0.00    +0.000 A 
ATOM      8  C   UNL     1       4.477   5.064  17.212  0.00  0.00    +0.000 A 
ATOM      9  C   UNL     1       5.358   4.122  16.444  0.00  0.00    +0.000 C 
ATOM     10  C   UNL     1       3.687   4.706  18.321  0.00  0.00    +0.000 A 
ATOM     11  C   UNL     1       2.971   5.692  19.047  0.00  0.00    +0.000 A 
BRANCH  10  12
ATOM     12  S   UNL     1       3.556   3.011  18.903  0.00  0.00    +0.000 S 
ATOM     13  O   UNL     1       3.145   2.146  17.818  0.00  0.00    +0.000 OA
ATOM     14  O   UNL     1       4.769   2.725  19.643  0.00  0.00    +0.000 OA
BRANCH  12  15
ATOM     15  N   UNL     1       2.266   3.067  20.036  0.00  0.00    +0.000 NA
ATOM     16  C   UNL     1       0.991   2.447  19.602  0.00  0.00    +0.000 C 
ATOM     17  C   UNL     1       2.664   2.543  21.367  0.00  0.00    +0.000 C 
ENDBRANCH  12  15
ENDBRANCH  10  12
ENDBRANCH   3   5
BRANCH   1  21
ATOM     18  C   UNL     1      -0.815  11.485  21.358  0.00  0.00    +0.000 A 
ATOM     19  C   UNL     1       0.111  10.557  21.839  0.00  0.00    +0.000 A 
ATOM     20  C   UNL     1       0.869   9.799  20.950  0.00  0.00    +0.000 A 
ATOM     21  C   UNL     1       0.715   9.948  19.565  0.00  0.00    +0.000 A 
ATOM     22  C   UNL     1      -0.248  10.833  19.073  0.00  0.00    +0.000 A 
ATOM     23  C   UNL     1      -1.028  11.586  19.972  0.00  0.00    +0.000 A 
BRANCH  18  29
ATOM     24  C   UNL     1      -4.329  12.687  24.453  0.00  0.00    +0.000 C 
ATOM     25  C   UNL     1      -3.090  12.827  23.651  0.00  0.00    +0.000 A 
ATOM     26  C   UNL     1      -2.157  13.876  23.705  0.00  0.00    +0.000 A 
ATOM     27  C   UNL     1      -1.191  13.557  22.775  0.00  0.00    +0.000 A 
ATOM     28  C   UNL     1      -0.060  14.396  22.304  0.00  0.00    +0.000 C 
ATOM     29  N   UNL     1      -1.542  12.308  22.267  0.00  0.00    +0.000 N 
ATOM     30  N   UNL     1      -2.759  11.915  22.728  0.00  0.00    +0.000 NA
ENDBRANCH  18  29
ENDBRANCH   1  21
TORSDOF 5
ENDMDL
MODEL 3
REMARK VINA RESULT:      -8.5      1.602      2.991
REMARK  Name = 
REMARK  10 active torsions:
REMARK  status: ('A' for Active; 'I' for Inactive)
REMARK    1  A    between atoms: C_1  and  C_2
REMARK    2  A    between atoms: C_4  and  C_5
REMARK    3  A    between atoms: N_6  and  C_7
REMARK    4  A    between atoms: C_10  and  C_11
REMARK    5  A    between atoms: N_13  and  C_14
REMARK    6  A    between atoms: C_17  and  C_18
REMARK    7  A    between atoms: C_19  and  S_20
REMARK    8  A    between atoms: S_20  and  N_23
REMARK    9  A    between atoms: N_23  and  C_24
REMARK   10  A    between atoms: N_23  and  C_25
REMARK                            x       y       z     vdW  Elec       q    Type
REMARK                         _______ _______ _______ _____ _____    ______ ____
ROOT
ATOM      1  C   UNL     1       1.719   7.812  20.172  0.00  0.00    +0.000 C 
ATOM      2  O   UNL     1       2.200   7.955  19.048  0.00  0.00    +0.000 OA
ATOM      3  N   UNL     1       1.748   6.642  20.920  0.00  0.00    +0.000 N 
ATOM      4  H   UNL     1       1.131   6.574  21.722  0.00  0.00    +0.000 HD
ENDROOT
BRANCH   3   5
ATOM      5  C   UNL     1       2.394   5.449  20.491  0.00  0.00    +0.000 A 
ATOM      6  C   UNL     1       2.026   4.194  20.976  0.00  0.00    +0.000 A 
ATOM      7  C   UNL     1       2.673   3.032  20.554  0.00  0.00    +0.000 A 
ATOM      8  C   UNL     1       3.723   3.079  19.631  0.00  0.00    +0.000 A 
ATOM      9  C   UNL     1       4.312   1.771  19.190  0.00  0.00    +0.000 C 
ATOM     10  C   UNL     1       4.129   4.343  19.165  0.00  0.00    +0.000 A 
ATOM     11  C   UNL     1       3.437   5.517  19.562  0.00  0.00    +0.000 A 
BRANCH  10  12
ATOM     12  S   UNL     1       5.508   4.556  18.032  0.00  0.00    +0.000 S 
ATOM     13  O   UNL     1       6.752   4.244  18.703  0.00  0.00    +0.000 OA
ATOM     14  O   UNL     1       5.152   3.874  16.804  0.00  0.00    +0.000 OA
BRANCH  12  15
ATOM     15  N   UNL     1       5.508   6.242  17.702  0.00  0.00    +0.000 NA
ATOM     16  C   UNL     1       6.827   6.916  17.763  0.00  0.00    +0.000 C 
ATOM     17  C   UNL     1       4.826   6.564  16.423  0.00  0.00    +0.000 C 
ENDBRANCH  12  15
ENDBRANCH  10  12
ENDBRANCH   3   5
BRANCH   1  21
ATOM     18  C   UNL     1      -0.544  11.014  21.925  0.00  0.00    +0.000 A 
ATOM     19  C   UNL     1       0.025  10.001  22.700  0.00  0.00    +0.000 A 
ATOM     20  C   UNL     1       0.769   8.991  22.096  0.00  0.00    +0.000 A 
ATOM     21  C   UNL     1       0.956   8.967  20.707  0.00  0.00    +0.000 A 
ATOM     22  C   UNL     1       0.344   9.943  19.916  0.00  0.00    +0.000 A 
ATOM     23  C   UNL     1      -0.424  10.956  20.524  0.00  0.00    +0.000 A 
BRANCH  18  29
ATOM     24  C   UNL     1      -4.028  13.157  24.501  0.00  0.00    +0.000 C 
ATOM     25  C   UNL     1      -2.783  13.024  23.707  0.00  0.00    +0.000 A 
ATOM     26  C   UNL     1      -1.819  14.017  23.467  0.00  0.00    +0.000 A 
ATOM     27  C   UNL     1      -0.860  13.416  22.681  0.00  0.00    +0.000 A 
ATOM     28  C   UNL     1       0.298  14.052  22.001  0.00  0.00    +0.000 C 
ATOM     29  N   UNL     1      -1.247  12.084  22.549  0.00  0.00    +0.000 N 
ATOM     30  N   UNL     1      -2.477  11.876  23.090  0.00  0.00    +0.000 NA
ENDBRANCH  18  29
ENDBRANCH   1  21
TORSDOF 5
ENDMDL
MODEL 4
REMARK VINA RESULT:      -8.5      1.079      1.438
REMARK  Name = 
REMARK  10 active torsions:
REMARK  status: ('A' for Active; 'I' for Inactive)
REMARK    1  A    between atoms: C_1  and  C_2
REMARK    2  A    between atoms: C_4  and  C_5
REMARK    3  A    between atoms: N_6  and  C_7
REMARK    4  A    between atoms: C_10  and  C_11
REMARK    5  A    between atoms: N_13  and  C_14
REMARK    6  A    between atoms: C_17  and  C_18
REMARK    7  A    between atoms: C_19  and  S_20
REMARK    8  A    between atoms: S_20  and  N_23
REMARK    9  A    between atoms: N_23  and  C_24
REMARK   10  A    between atoms: N_23  and  C_25
REMARK                            x       y       z     vdW  Elec       q    Type
REMARK                         _______ _______ _______ _____ _____    ______ ____
ROOT
ATOM      1  C   UNL     1       1.044   9.157  19.313  0.00  0.00    +0.000 C 
ATOM      2  O   UNL     1       0.840   9.422  18.128  0.00  0.00    +0.000 OA
ATOM      3  N   UNL     1       1.873   8.148  19.785  0.00  0.00    +0.000 N 
ATOM      4  H   UNL     1       1.788   7.878  20.758  0.00  0.00    +0.000 HD
ENDROOT
BRANCH   3   5
ATOM      5  C   UNL     1       2.646   7.306  18.939  0.00  0.00    +0.000 A 
ATOM      6  C   UNL     1       3.409   7.814  17.887  0.00  0.00    +0.000 A 
ATOM      7  C   UNL     1       4.156   6.976  17.057  0.00  0.00    +0.000 A 
ATOM      8  C   UNL     1       4.166   5.590  17.243  0.00  0.00    +0.000 A 
ATOM      9  C   UNL     1       5.051   4.780  16.342  0.00  0.00    +0.000 C 
ATOM     10  C   UNL     1       3.369   5.062  18.276  0.00  0.00    +0.000 A 
ATOM     11  C   UNL     1       2.648   5.923  19.145  0.00  0.00    +0.000 A 
BRANCH  10  12
ATOM     12  S   UNL     1       3.232   3.297  18.583  0.00  0.00    +0.000 S 
ATOM     13  O   UNL     1       2.767   2.622  17.390  0.00  0.00    +0.000 OA
ATOM     14  O   UNL     1       4.468   2.884  19.218  0.00  0.00    +0.000 OA
BRANCH  12  15
ATOM     15  N   UNL     1       1.987   3.182  19.760  0.00  0.00    +0.000 NA
ATOM     16  C   UNL     1       0.761   2.461  19.342  0.00  0.00    +0.000 C 
ATOM     17  C   UNL     1       2.484   2.643  21.052  0.00  0.00    +0.000 C 
ENDBRANCH  12  15
ENDBRANCH  10  12
ENDBRANCH   3   5
BRANCH   1  21
ATOM     18  C   UNL     1      -1.273  11.571  22.006  0.00  0.00    +0.000 A 
ATOM     19  C   UNL     1      -1.249  11.815  20.632  0.00  0.00    +0.000 A 
ATOM     20  C   UNL     1      -0.501  10.997  19.789  0.00  0.00    +0.000 A 
ATOM     21  C   UNL     1       0.241   9.924  20.300  0.00  0.00    +0.000 A 
ATOM     22  C   UNL     1       0.270   9.705  21.680  0.00  0.00    +0.000 A 
ATOM     23  C   UNL     1      -0.473  10.543  22.535  0.00  0.00    +0.000 A 
BRANCH  18  29
ATOM     24  C   UNL     1      -5.041  12.639  24.841  0.00  0.00    +0.000 C 
ATOM     25  C   UNL     1      -3.754  12.826  24.129  0.00  0.00    +0.000 A 
ATOM     26  C   UNL     1      -2.866  13.908  24.248  0.00  0.00    +0.000 A 
ATOM     27  C   UNL     1      -1.825  13.625  23.391  0.00  0.00    +0.000 A 
ATOM     28  C   UNL     1      -0.694  14.507  23.001  0.00  0.00    +0.000 C 
ATOM     29  N   UNL     1      -2.092  12.365  22.860  0.00  0.00    +0.000 N 
ATOM     30  N   UNL     1      -3.325  11.928  23.234  0.00  0.00    +0.000 NA
ENDBRANCH  18  29
ENDBRANCH   1  21
TORSDOF 5
ENDMDL
MODEL 5
REMARK VINA RESULT:      -8.4      1.810      2.814
REMARK  Name = 
REMARK  10 active torsions:
REMARK  status: ('A' for Active; 'I' for Inactive)
REMARK    1  A    between atoms: C_1  and  C_2
REMARK    2  A    between atoms: C_4  and  C_5
REMARK    3  A    between atoms: N_6  and  C_7
REMARK    4  A    between atoms: C_10  and  C_11
REMARK    5  A    between atoms: N_13  and  C_14
REMARK    6  A    between atoms: C_17  and  C_18
REMARK    7  A    between atoms: C_19  and  S_20
REMARK    8  A    between atoms: S_20  and  N_23
REMARK    9  A    between atoms: N_23  and  C_24
REMARK   10  A    between atoms: N_23  and  C_25
REMARK                            x       y       z     vdW  Elec       q    Type
REMARK                         _______ _______ _______ _____ _____    ______ ____
ROOT
ATOM      1  C   UNL     1       1.486   7.960  20.340  0.00  0.00    +0.000 C 
ATOM      2  O   UNL     1       2.011   8.163  19.245  0.00  0.00    +0.000 OA
ATOM      3  N   UNL     1       1.503   6.756  21.032  0.00  0.00    +0.000 N 
ATOM      4  H   UNL     1       0.854   6.642  21.804  0.00  0.00    +0.000 HD
ENDROOT
BRANCH   3   5
ATOM      5  C   UNL     1       2.185   5.595  20.575  0.00  0.00    +0.000 A 
ATOM      6  C   UNL     1       2.049   4.360  21.210  0.00  0.00    +0.000 A 
ATOM      7  C   UNL     1       2.731   3.229  20.757  0.00  0.00    +0.000 A 
ATOM      8  C   UNL     1       3.585   3.290  19.652  0.00  0.00    +0.000 A 
ATOM      9  C   UNL     1       4.223   2.008  19.202  0.00  0.00    +0.000 C 
ATOM     10  C   UNL     1       3.761   4.540  19.028  0.00  0.00    +0.000 A 
ATOM     11  C   UNL     1       3.029   5.675  19.464  0.00  0.00    +0.000 A 
BRANCH  10  12
ATOM     12  S   UNL     1       4.881   4.777  17.643  0.00  0.00    +0.000 S 
ATOM     13  O   UNL     1       4.674   3.739  16.656  0.00  0.00    +0.000 OA
ATOM     14  O   UNL     1       4.789   6.172  17.261  0.00  0.00    +0.000 OA
BRANCH  12  15
ATOM     15  N   UNL     1       6.437   4.534  18.329  0.00  0.00    +0.000 NA
ATOM     16  C   UNL     1       7.570   4.490  17.374  0.00  0.00    +0.000 C 
ATOM     17  C   UNL     1       6.725   5.496  19.423  0.00  0.00    +0.000 C 
ENDBRANCH  12  15
ENDBRANCH  10  12
ENDBRANCH   3   5
BRANCH   1  21
ATOM     18  C   UNL     1      -0.899  11.042  22.145  0.00  0.00    +0.000 A 
ATOM     19  C   UNL     1      -0.337  10.008  22.896  0.00  0.00    +0.000 A 
ATOM     20  C   UNL     1       0.447   9.039  22.277  0.00  0.00    +0.000 A 
ATOM     21  C   UNL     1       0.682   9.078  20.896  0.00  0.00    +0.000 A 
ATOM     22  C   UNL     1       0.078  10.076  20.125  0.00  0.00    +0.000 A 
ATOM     23  C   UNL     1      -0.729  11.047  20.749  0.00  0.00    +0.000 A 
BRANCH  18  29
ATOM     24  C   UNL     1      -4.510  13.009  24.688  0.00  0.00    +0.000 C 
ATOM     25  C   UNL     1      -3.236  12.933  23.932  0.00  0.00    +0.000 A 
ATOM     26  C   UNL     1      -2.285  13.954  23.766  0.00  0.00    +0.000 A 
ATOM     27  C   UNL     1      -1.289  13.404  22.989  0.00  0.00    +0.000 A 
ATOM     28  C   UNL     1      -0.122  14.090  22.375  0.00  0.00    +0.000 C 
ATOM     29  N   UNL     1      -1.644  12.072  22.789  0.00  0.00    +0.000 N 
ATOM     30  N   UNL     1      -2.887  11.818  23.279  0.00  0.00    +0.000 NA
ENDBRANCH  18  29
ENDBRANCH   1  21
TORSDOF 5
ENDMDL
MODEL 6
REMARK VINA RESULT:      -8.4      1.502      2.131
REMARK  Name = 
REMARK  10 active torsions:
REMARK  status: ('A' for Active; 'I' for Inactive)
REMARK    1  A    between atoms: C_1  and  C_2
REMARK    2  A    between atoms: C_4  and  C_5
REMARK    3  A    between atoms: N_6  and  C_7
REMARK    4  A    between atoms: C_10  and  C_11
REMARK    5  A    between atoms: N_13  and  C_14
REMARK    6  A    between atoms: C_17  and  C_18
REMARK    7  A    between atoms: C_19  and  S_20
REMARK    8  A    between atoms: S_20  and  N_23
REMARK    9  A    between atoms: N_23  and  C_24
REMARK   10  A    between atoms: N_23  and  C_25
REMARK                            x       y       z     vdW  Elec       q    Type
REMARK                         _______ _______ _______ _____ _____    ______ ____
ROOT
ATOM      1  C   UNL     1       0.863   9.656  19.690  0.00  0.00    +0.000 C 
ATOM      2  O   UNL     1       1.028  10.169  18.584  0.00  0.00    +0.000 OA
ATOM      3  N   UNL     1       1.395   8.440  20.104  0.00  0.00    +0.000 N 
ATOM      4  H   UNL     1       1.012   8.014  20.940  0.00  0.00    +0.000 HD
ENDROOT
BRANCH   3   5
ATOM      5  C   UNL     1       2.255   7.643  19.299  0.00  0.00    +0.000 A 
ATOM      6  C   UNL     1       2.760   8.100  18.081  0.00  0.00    +0.000 A 
ATOM      7  C   UNL     1       3.596   7.304  17.296  0.00  0.00    +0.000 A 
ATOM      8  C   UNL     1       3.956   6.013  17.695  0.00  0.00    +0.000 A 
ATOM      9  C   UNL     1       4.911   5.260  16.815  0.00  0.00    +0.000 C 
ATOM     10  C   UNL     1       3.420   5.527  18.902  0.00  0.00    +0.000 A 
ATOM     11  C   UNL     1       2.609   6.357  19.719  0.00  0.00    +0.000 A 
BRANCH  10  12
ATOM     12  S   UNL     1       3.743   3.864  19.500  0.00  0.00    +0.000 S 
ATOM     13  O   UNL     1       5.168   3.617  19.531  0.00  0.00    +0.000 OA
ATOM     14  O   UNL     1       2.947   3.686  20.699  0.00  0.00    +0.000 OA
BRANCH  12  15
ATOM     15  N   UNL     1       3.070   2.855  18.284  0.00  0.00    +0.000 NA
ATOM     16  C   UNL     1       3.512   1.440  18.295  0.00  0.00    +0.000 C 
ATOM     17  C   UNL     1       1.587   2.929  18.248  0.00  0.00    +0.000 C 
ENDBRANCH  12  15
ENDBRANCH  10  12
ENDBRANCH   3   5
BRANCH   1  21
ATOM     18  C   UNL     1      -1.843  11.885  22.170  0.00  0.00    +0.000 A 
ATOM     19  C   UNL     1      -1.726  12.129  20.800  0.00  0.00    +0.000 A 
ATOM     20  C   UNL     1      -0.852  11.370  20.026  0.00  0.00    +0.000 A 
ATOM     21  C   UNL     1      -0.073  10.359  20.603  0.00  0.00    +0.000 A 
ATOM     22  C   UNL     1      -0.140  10.144  21.983  0.00  0.00    +0.000 A 
ATOM     23  C   UNL     1      -1.011  10.923  22.769  0.00  0.00    +0.000 A 
BRANCH  18  29
ATOM     24  C   UNL     1      -6.127  12.939  24.148  0.00  0.00    +0.000 C 
ATOM     25  C   UNL     1      -4.683  13.065  23.836  0.00  0.00    +0.000 A 
ATOM     26  C   UNL     1      -3.766  13.962  24.410  0.00  0.00    +0.000 A 
ATOM     27  C   UNL     1      -2.561  13.697  23.796  0.00  0.00    +0.000 A 
ATOM     28  C   UNL     1      -1.290  14.460  23.904  0.00  0.00    +0.000 C 
ATOM     29  N   UNL     1      -2.788  12.615  22.948  0.00  0.00    +0.000 N 
ATOM     30  N   UNL     1      -4.110  12.301  22.898  0.00  0.00    +0.000 NA
ENDBRANCH  18  29
ENDBRANCH   1  21
TORSDOF 5
ENDMDL
MODEL 7
REMARK VINA RESULT:      -8.3      1.848      3.237
REMARK  Name = 
REMARK  10 active torsions:
REMARK  status: ('A' for Active; 'I' for Inactive)
REMARK    1  A    between atoms: C_1  and  C_2
REMARK    2  A    between atoms: C_4  and  C_5
REMARK    3  A    between atoms: N_6  and  C_7
REMARK    4  A    between atoms: C_10  and  C_11
REMARK    5  A    between atoms: N_13  and  C_14
REMARK    6  A    between atoms: C_17  and  C_18
REMARK    7  A    between atoms: C_19  and  S_20
REMARK    8  A    between atoms: S_20  and  N_23
REMARK    9  A    between atoms: N_23  and  C_24
REMARK   10  A    between atoms: N_23  and  C_25
REMARK                            x       y       z     vdW  Elec       q    Type
REMARK                         _______ _______ _______ _____ _____    ______ ____
ROOT
ATOM      1  C   UNL     1       1.593   8.104  19.928  0.00  0.00    +0.000 C 
ATOM      2  O   UNL     1       1.896   8.133  18.735  0.00  0.00    +0.000 OA
ATOM      3  N   UNL     1       1.725   7.006  20.768  0.00  0.00    +0.000 N 
ATOM      4  H   UNL     1       1.239   7.027  21.658  0.00  0.00    +0.000 HD
ENDROOT
BRANCH   3   5
ATOM      5  C   UNL     1       2.283   5.764  20.358  0.00  0.00    +0.000 A 
ATOM      6  C   UNL     1       1.770   4.542  20.795  0.00  0.00    +0.000 A 
ATOM      7  C   UNL     1       2.332   3.330  20.393  0.00  0.00    +0.000 A 
ATOM      8  C   UNL     1       3.439   3.290  19.538  0.00  0.00    +0.000 A 
ATOM      9  C   UNL     1       3.931   1.939  19.110  0.00  0.00    +0.000 C 
ATOM     10  C   UNL     1       3.990   4.517  19.123  0.00  0.00    +0.000 A 
ATOM     11  C   UNL     1       3.385   5.745  19.497  0.00  0.00    +0.000 A 
BRANCH  10  12
ATOM     12  S   UNL     1       5.452   4.615  18.083  0.00  0.00    +0.000 S 
ATOM     13  O   UNL     1       6.629   4.271  18.851  0.00  0.00    +0.000 OA
ATOM     14  O   UNL     1       5.146   3.900  16.860  0.00  0.00    +0.000 OA
BRANCH  12  15
ATOM     15  N   UNL     1       5.562   6.283  17.688  0.00  0.00    +0.000 NA
ATOM     16  C   UNL     1       6.922   6.871  17.723  0.00  0.00    +0.000 C 
ATOM     17  C   UNL     1       4.899   6.600  16.397  0.00  0.00    +0.000 C 
ENDBRANCH  12  15
ENDBRANCH  10  12
ENDBRANCH   3   5
BRANCH   1  21
ATOM     18  C   UNL     1      -0.474  11.476  21.603  0.00  0.00    +0.000 A 
ATOM     19  C   UNL     1      -0.500  10.218  22.209  0.00  0.00    +0.000 A 
ATOM     20  C   UNL     1       0.200   9.155  21.646  0.00  0.00    +0.000 A 
ATOM     21  C   UNL     1       0.935   9.322  20.464  0.00  0.00    +0.000 A 
ATOM     22  C   UNL     1       0.921  10.562  19.818  0.00  0.00    +0.000 A 
ATOM     23  C   UNL     1       0.199  11.633  20.378  0.00  0.00    +0.000 A 
BRANCH  18  29
ATOM     24  C   UNL     1      -1.093  15.152  24.682  0.00  0.00    +0.000 C 
ATOM     25  C   UNL     1      -1.394  14.218  23.570  0.00  0.00    +0.000 A 
ATOM     26  C   UNL     1      -2.466  14.293  22.664  0.00  0.00    +0.000 A 
ATOM     27  C   UNL     1      -2.317  13.207  21.829  0.00  0.00    +0.000 A 
ATOM     28  C   UNL     1      -3.261  12.711  20.794  0.00  0.00    +0.000 C 
ATOM     29  N   UNL     1      -1.135  12.580  22.216  0.00  0.00    +0.000 N 
ATOM     30  N   UNL     1      -0.631  13.141  23.348  0.00  0.00    +0.000 NA
ENDBRANCH  18  29
ENDBRANCH   1  21
TORSDOF 5
ENDMDL
MODEL 8
REMARK VINA RESULT:      -8.3      1.728      3.097
REMARK  Name = 
REMARK  10 active torsions:
REMARK  status: ('A' for Active; 'I' for Inactive)
REMARK    1  A    between atoms: C_1  and  C_2
REMARK    2  A    between atoms: C_4  and  C_5
REMARK    3  A    between atoms: N_6  and  C_7
REMARK    4  A    between atoms: C_10  and  C_11
REMARK    5  A    between atoms: N_13  and  C_14
REMARK    6  A    between atoms: C_17  and  C_18
REMARK    7  A    between atoms: C_19  and  S_20
REMARK    8  A    between atoms: S_20  and  N_23
REMARK    9  A    between atoms: N_23  and  C_24
REMARK   10  A    between atoms: N_23  and  C_25
REMARK                            x       y       z     vdW  Elec       q    Type
REMARK                         _______ _______ _______ _____ _____    ______ ____
ROOT
ATOM      1  C   UNL     1       1.457   8.053  20.107  0.00  0.00    +0.000 C 
ATOM      2  O   UNL     1       1.825   8.438  18.997  0.00  0.00    +0.000 OA
ATOM      3  N   UNL     1       1.635   6.774  20.619  0.00  0.00    +0.000 N 
ATOM      4  H   UNL     1       1.098   6.510  21.437  0.00  0.00    +0.000 HD
ENDROOT
BRANCH   3   5
ATOM      5  C   UNL     1       2.324   5.739  19.928  0.00  0.00    +0.000 A 
ATOM      6  C   UNL     1       1.706   4.535  19.594  0.00  0.00    +0.000 A 
ATOM      7  C   UNL     1       2.396   3.523  18.924  0.00  0.00    +0.000 A 
ATOM      8  C   UNL     1       3.739   3.673  18.566  0.00  0.00    +0.000 A 
ATOM      9  C   UNL     1       4.375   2.556  17.791  0.00  0.00    +0.000 C 
ATOM     10  C   UNL     1       4.385   4.869  18.933  0.00  0.00    +0.000 A 
ATOM     11  C   UNL     1       3.666   5.912  19.572  0.00  0.00    +0.000 A 
BRANCH  10  12
ATOM     12  S   UNL     1       6.125   5.167  18.599  0.00  0.00    +0.000 S 
ATOM     13  O   UNL     1       6.836   5.390  19.839  0.00  0.00    +0.000 OA
ATOM     14  O   UNL     1       6.562   4.129  17.686  0.00  0.00    +0.000 OA
BRANCH  12  15
ATOM     15  N   UNL     1       6.126   6.648  17.730  0.00  0.00    +0.000 NA
ATOM     16  C   UNL     1       7.448   7.293  17.543  0.00  0.00    +0.000 C 
ATOM     17  C   UNL     1       5.422   6.536  16.427  0.00  0.00    +0.000 C 
ENDBRANCH  12  15
ENDBRANCH  10  12
ENDBRANCH   3   5
BRANCH   1  21
ATOM     18  C   UNL     1      -0.813  11.024  22.221  0.00  0.00    +0.000 A 
ATOM     19  C   UNL     1      -0.690  11.040  20.830  0.00  0.00    +0.000 A 
ATOM     20  C   UNL     1       0.038  10.047  20.180  0.00  0.00    +0.000 A 
ATOM     21  C   UNL     1       0.662   9.022  20.903  0.00  0.00    +0.000 A 
ATOM     22  C   UNL     1       0.594   9.028  22.299  0.00  0.00    +0.000 A 
ATOM     23  C   UNL     1      -0.128  10.043  22.959  0.00  0.00    +0.000 A 
BRANCH  18  29
ATOM     24  C   UNL     1      -4.515  12.745  24.811  0.00  0.00    +0.000 C 
ATOM     25  C   UNL     1      -3.246  12.753  24.044  0.00  0.00    +0.000 A 
ATOM     26  C   UNL     1      -2.360  13.832  23.880  0.00  0.00    +0.000 A 
ATOM     27  C   UNL     1      -1.339  13.350  23.089  0.00  0.00    +0.000 A 
ATOM     28  C   UNL     1      -0.222  14.111  22.473  0.00  0.00    +0.000 C 
ATOM     29  N   UNL     1      -1.614  12.001  22.880  0.00  0.00    +0.000 N 
ATOM     30  N   UNL     1      -2.835  11.667  23.378  0.00  0.00    +0.000 NA
ENDBRANCH  18  29
ENDBRANCH   1  21
TORSDOF 5
ENDMDL
MODEL 9
REMARK VINA RESULT:      -8.3      1.028      1.551
REMARK  Name = 
REMARK  10 active torsions:
REMARK  status: ('A' for Active; 'I' for Inactive)
REMARK    1  A    between atoms: C_1  and  C_2
REMARK    2  A    between atoms: C_4  and  C_5
REMARK    3  A    between atoms: N_6  and  C_7
REMARK    4  A    between atoms: C_10  and  C_11
REMARK    5  A    between atoms: N_13  and  C_14
REMARK    6  A    between atoms: C_17  and  C_18
REMARK    7  A    between atoms: C_19  and  S_20
REMARK    8  A    between atoms: S_20  and  N_23
REMARK    9  A    between atoms: N_23  and  C_24
REMARK   10  A    between atoms: N_23  and  C_25
REMARK                            x       y       z     vdW  Elec       q    Type
REMARK                         _______ _______ _______ _____ _____    ______ ____
ROOT
ATOM      1  C   UNL     1       1.520   7.926  20.314  0.00  0.00    +0.000 C 
ATOM      2  O   UNL     1       1.532   6.897  20.990  0.00  0.00    +0.000 OA
ATOM      3  N   UNL     1       2.205   8.116  19.121  0.00  0.00    +0.000 N 
ATOM      4  H   UNL     1       2.305   9.064  18.776  0.00  0.00    +0.000 HD
ENDROOT
BRANCH   3   5
ATOM      5  C   UNL     1       2.986   7.107  18.493  0.00  0.00    +0.000 A 
ATOM      6  C   UNL     1       3.794   7.379  17.388  0.00  0.00    +0.000 A 
ATOM      7  C   UNL     1       4.548   6.378  16.774  0.00  0.00    +0.000 A 
ATOM      8  C   UNL     1       4.520   5.059  17.237  0.00  0.00    +0.000 A 
ATOM      9  C   UNL     1       5.415   4.068  16.552  0.00  0.00    +0.000 C 
ATOM     10  C   UNL     1       3.678   4.765  18.326  0.00  0.00    +0.000 A 
ATOM     11  C   UNL     1       2.950   5.796  18.976  0.00  0.00    +0.000 A 
BRANCH  10  12
ATOM     12  S   UNL     1       3.491   3.101  18.980  0.00  0.00    +0.000 S 
ATOM     13  O   UNL     1       3.033   2.209  17.937  0.00  0.00    +0.000 OA
ATOM     14  O   UNL     1       4.703   2.800  19.716  0.00  0.00    +0.000 OA
BRANCH  12  15
ATOM     15  N   UNL     1       2.219   3.253  20.125  0.00  0.00    +0.000 NA
ATOM     16  C   UNL     1       0.893   2.752  19.693  0.00  0.00    +0.000 C 
ATOM     17  C   UNL     1       2.581   2.677  21.445  0.00  0.00    +0.000 C 
ENDBRANCH  12  15
ENDBRANCH  10  12
ENDBRANCH   3   5
BRANCH   1  21
ATOM     18  C   UNL     1      -0.429  11.423  21.869  0.00  0.00    +0.000 A 
ATOM     19  C   UNL     1       0.266  11.442  20.658  0.00  0.00    +0.000 A 
ATOM     20  C   UNL     1       0.868  10.282  20.178  0.00  0.00    +0.000 A 
ATOM     21  C   UNL     1       0.793   9.082  20.898  0.00  0.00    +0.000 A 
ATOM     22  C   UNL     1       0.148   9.064  22.138  0.00  0.00    +0.000 A 
ATOM     23  C   UNL     1      -0.445  10.242  22.633  0.00  0.00    +0.000 A 
BRANCH  18  29
ATOM     24  C   UNL     1      -1.194  15.358  24.572  0.00  0.00    +0.000 C 
ATOM     25  C   UNL     1      -1.425  14.344  23.514  0.00  0.00    +0.000 A 
ATOM     26  C   UNL     1      -2.405  14.375  22.508  0.00  0.00    +0.000 A 
ATOM     27  C   UNL     1      -2.220  13.219  21.780  0.00  0.00    +0.000 A 
ATOM     28  C   UNL     1      -3.083  12.667  20.704  0.00  0.00    +0.000 C 
ATOM     29  N   UNL     1      -1.102  12.593  22.327  0.00  0.00    +0.000 N 
ATOM     30  N   UNL     1      -0.684  13.231  23.452  0.00  0.00    +0.000 NA
ENDBRANCH  18  29
ENDBRANCH   1  21
TORSDOF 5
ENDMDL
