MODEL 1
REMARK VINA RESULT:      -8.4      0.000      0.000
REMARK  Name = 
REMARK  8 active torsions:
REMARK  status: ('A' for Active; 'I' for Inactive)
REMARK    1  A    between atoms: C_1  and  O_2
REMARK    2  A    between atoms: O_2  and  C_3
REMARK    3  A    between atoms: C_6  and  C_7
REMARK    4  A    between atoms: C_9  and  C_10
REMARK    5  A    between atoms: N_12  and  C_13
REMARK    6  A    between atoms: C_16  and  C_17
REMARK    7  A    between atoms: C_30  and  O_31
REMARK    8  A    between atoms: O_31  and  C_32
REMARK                            x       y       z     vdW  Elec       q    Type
REMARK                         _______ _______ _______ _____ _____    ______ ____
ROOT
ATOM      1  C   UNL     1       4.112   4.370  17.712  0.00  0.00    +0.000 A 
ATOM      2  C   UNL     1       2.936   5.094  17.592  0.00  0.00    +0.000 A 
ATOM      3  C   UNL     1       2.161   5.261  18.718  0.00  0.00    +0.000 A 
ATOM      4  C   UNL     1       2.174   4.256  19.672  0.00  0.00    +0.000 A 
ATOM      5  C   UNL     1       1.093   4.085  20.567  0.00  0.00    +0.000 A 
ATOM      6  C   UNL     1       1.139   3.102  21.540  0.00  0.00    +0.000 A 
ATOM      7  C   UNL     1       2.287   2.324  21.640  0.00  0.00    +0.000 A 
ATOM      8  C   UNL     1       3.357   2.498  20.743  0.00  0.00    +0.000 A 
ATOM      9  C   UNL     1       3.312   3.428  19.706  0.00  0.00    +0.000 A 
ATOM     10  N   UNL     1       4.314   3.560  18.786  0.00  0.00    +0.000 NA
ENDROOT
BRANCH   1  14
ATOM     11  C   UNL     1       7.194   5.146  14.734  0.00  0.00    +0.000 A 
ATOM     12  C   UNL     1       6.256   4.111  14.549  0.00  0.00    +0.000 A 
ATOM     13  C   UNL     1       5.265   3.816  15.509  0.00  0.00    +0.000 A 
ATOM     14  C   UNL     1       5.179   4.548  16.691  0.00  0.00    +0.000 A 
ATOM     15  C   UNL     1       6.188   5.518  16.888  0.00  0.00    +0.000 A 
ATOM     16  C   UNL     1       7.174   5.841  15.944  0.00  0.00    +0.000 A 
BRANCH  11  18
ATOM     17  C   UNL     1       7.786   5.237  12.433  0.00  0.00    +0.000 C 
ATOM     18  O   UNL     1       8.129   5.489  13.794  0.00  0.00    +0.000 OA
ENDBRANCH  11  18
BRANCH  16  19
ATOM     19  O   UNL     1       7.951   6.875  16.388  0.00  0.00    +0.000 OA
ATOM     20  C   UNL     1       7.600   7.585  17.562  0.00  0.00    +0.000 C 
ENDBRANCH  16  19
ENDBRANCH   1  14
BRANCH   3  21
ATOM     21  C   UNL     1       2.026   6.658  19.271  0.00  0.00    +0.000 C 
ATOM     22  O   UNL     1       2.541   6.914  20.357  0.00  0.00    +0.000 OA
ATOM     23  N   UNL     1       1.393   7.608  18.481  0.00  0.00    +0.000 N 
ATOM     24  H   UNL     1       0.794   7.299  17.730  0.00  0.00    +0.000 HD
BRANCH  23  25
ATOM     25  C   UNL     1       1.432   9.002  18.723  0.00  0.00    +0.000 A 
ATOM     26  C   UNL     1       0.753   9.610  19.785  0.00  0.00    +0.000 A 
ATOM     27  C   UNL     1       0.779  10.998  19.963  0.00  0.00    +0.000 A 
ATOM     28  C   UNL     1       1.502  11.805  19.081  0.00  0.00    +0.000 A 
ATOM     29  C   UNL     1       2.219  11.195  18.044  0.00  0.00    +0.000 A 
ATOM     30  C   UNL     1       2.200   9.802  17.874  0.00  0.00    +0.000 A 
BRANCH  28  31
ATOM     31  C   UNL     1       1.546  13.292  19.192  0.00  0.00    +0.000 C 
ATOM     32  N   UNL     1       0.361  13.982  19.097  0.00  0.00    +0.000 N 
ATOM     33  O   UNL     1       2.596  13.892  19.366  0.00  0.00    +0.000 OA
ATOM     34  H   UNL     1      -0.537  13.578  18.972  0.00  0.00    +0.000 HD
ATOM     35  H   UNL     1       0.429  14.990  19.166  0.00  0.00    +0.000 HD
ENDBRANCH  28  31
ENDBRANCH  23  25
ENDBRANCH   3  21
TORSDOF 6
ENDMDL
MODEL 2
REMARK VINA RESULT:      -8.3      1.531      1.784
REMARK  Name = 
REMARK  8 active torsions:
REMARK  status: ('A' for Active; 'I' for Inactive)
REMARK    1  A    between atoms: C_1  and  O_2
REMARK    2  A    between atoms: O_2  and  C_3
REMARK    3  A    between atoms: C_6  and  C_7
REMARK    4  A    between atoms: C_9  and  C_10
REMARK    5  A    between atoms: N_12  and  C_13
REMARK    6  A    between atoms: C_16  and  C_17
REMARK    7  A    between atoms: C_30  and  O_31
REMARK    8  A    between atoms: O_31  and  C_32
REMARK                            x       y       z     vdW  Elec       q    Type
REMARK                         _______ _______ _______ _____ _____    ______ ____
ROOT
ATOM      1  C   UNL     1       4.153   4.379  17.828  0.00  0.00    +0.000 A 
ATOM      2  C   UNL     1       3.009   5.161  17.778  0.00  0.00    +0.000 A 
ATOM      3  C   UNL     1       2.272   5.303  18.933  0.00  0.00    +0.000 A 
ATOM      4  C   UNL     1       2.263   4.250  19.834  0.00  0.00    +0.000 A 
ATOM      5  C   UNL     1       1.200   4.082  20.749  0.00  0.00    +0.000 A 
ATOM      6  C   UNL     1       1.225   3.049  21.669  0.00  0.00    +0.000 A 
ATOM      7  C   UNL     1       2.337   2.216  21.697  0.00  0.00    +0.000 A 
ATOM      8  C   UNL     1       3.391   2.388  20.780  0.00  0.00    +0.000 A 
ATOM      9  C   UNL     1       3.363   3.372  19.793  0.00  0.00    +0.000 A 
ATOM     10  N   UNL     1       4.345   3.506  18.853  0.00  0.00    +0.000 NA
ENDROOT
BRANCH   1  14
ATOM     11  C   UNL     1       7.175   5.168  14.791  0.00  0.00    +0.000 A 
ATOM     12  C   UNL     1       6.246   4.120  14.631  0.00  0.00    +0.000 A 
ATOM     13  C   UNL     1       5.276   3.821  15.610  0.00  0.00    +0.000 A 
ATOM     14  C   UNL     1       5.200   4.562  16.787  0.00  0.00    +0.000 A 
ATOM     15  C   UNL     1       6.200   5.546  16.959  0.00  0.00    +0.000 A 
ATOM     16  C   UNL     1       7.166   5.873  15.996  0.00  0.00    +0.000 A 
BRANCH  11  18
ATOM     17  C   UNL     1       7.758   5.182  12.487  0.00  0.00    +0.000 C 
ATOM     18  O   UNL     1       8.089   5.515  13.833  0.00  0.00    +0.000 OA
ENDBRANCH  11  18
BRANCH  16  19
ATOM     19  O   UNL     1       7.937   6.921  16.418  0.00  0.00    +0.000 OA
ATOM     20  C   UNL     1       7.651   7.578  17.640  0.00  0.00    +0.000 C 
ENDBRANCH  16  19
ENDBRANCH   1  14
BRANCH   3  21
ATOM     21  C   UNL     1       2.217   6.675  19.560  0.00  0.00    +0.000 C 
ATOM     22  O   UNL     1       3.025   7.524  19.192  0.00  0.00    +0.000 OA
ATOM     23  N   UNL     1       1.198   6.930  20.468  0.00  0.00    +0.000 N 
ATOM     24  H   UNL     1       0.725   6.152  20.904  0.00  0.00    +0.000 HD
BRANCH  23  25
ATOM     25  C   UNL     1       0.840   8.221  20.924  0.00  0.00    +0.000 A 
ATOM     26  C   UNL     1       0.705   8.540  22.280  0.00  0.00    +0.000 A 
ATOM     27  C   UNL     1       0.304   9.817  22.688  0.00  0.00    +0.000 A 
ATOM     28  C   UNL     1       0.042  10.807  21.739  0.00  0.00    +0.000 A 
ATOM     29  C   UNL     1       0.221  10.504  20.383  0.00  0.00    +0.000 A 
ATOM     30  C   UNL     1       0.633   9.226  19.976  0.00  0.00    +0.000 A 
BRANCH  28  31
ATOM     31  C   UNL     1      -0.420  12.179  22.103  0.00  0.00    +0.000 C 
ATOM     32  N   UNL     1      -1.700  12.323  22.583  0.00  0.00    +0.000 N 
ATOM     33  O   UNL     1       0.307  13.153  21.986  0.00  0.00    +0.000 OA
ATOM     34  H   UNL     1      -2.352  11.587  22.724  0.00  0.00    +0.000 HD
ATOM     35  H   UNL     1      -1.984  13.267  22.809  0.00  0.00    +0.000 HD
ENDBRANCH  28  31
ENDBRANCH  23  25
ENDBRANCH   3  21
TORSDOF 6
ENDMDL
MODEL 3
REMARK VINA RESULT:      -8.2      0.608      1.044
REMARK  Name = 
REMARK  8 active torsions:
REMARK  status: ('A' for Active; 'I' for Inactive)
REMARK    1  A    between atoms: C_1  and  O_2
REMARK    2  A    between atoms: O_2  and  C_3
REMARK    3  A    between atoms: C_6  and  C_7
REMARK    4  A    between atoms: C_9  and  C_10
REMARK    5  A    between atoms: N_12  and  C_13
REMARK    6  A    between atoms: C_16  and  C_17
REMARK    7  A    between atoms: C_30  and  O_31
REMARK    8  A    between atoms: O_31  and  C_32
REMARK                            x       y       z     vdW  Elec       q    Type
REMARK                         _______ _______ _______ _____ _____    ______ ____
ROOT
ATOM      1  C   UNL     1       4.141   4.470  17.673  0.00  0.00    +0.000 A 
ATOM      2  C   UNL     1       2.976   5.212  17.549  0.00  0.00    +0.000 A 
ATOM      3  C   UNL     1       2.193   5.381  18.670  0.00  0.00    +0.000 A 
ATOM      4  C   UNL     1       2.183   4.367  19.615  0.00  0.00    +0.000 A 
ATOM      5  C   UNL     1       1.092   4.205  20.499  0.00  0.00    +0.000 A 
ATOM      6  C   UNL     1       1.114   3.214  21.464  0.00  0.00    +0.000 A 
ATOM      7  C   UNL     1       2.249   2.418  21.567  0.00  0.00    +0.000 A 
ATOM      8  C   UNL     1       3.331   2.584  20.682  0.00  0.00    +0.000 A 
ATOM      9  C   UNL     1       3.309   3.523  19.652  0.00  0.00    +0.000 A 
ATOM     10  N   UNL     1       4.321   3.648  18.742  0.00  0.00    +0.000 NA
ENDROOT
BRANCH   1  14
ATOM     11  C   UNL     1       7.260   5.225  14.729  0.00  0.00    +0.000 A 
ATOM     12  C   UNL     1       6.311   4.202  14.530  0.00  0.00    +0.000 A 
ATOM     13  C   UNL     1       5.308   3.914  15.479  0.00  0.00    +0.000 A 
ATOM     14  C   UNL     1       5.219   4.641  16.664  0.00  0.00    +0.000 A 
ATOM     15  C   UNL     1       6.238   5.597  16.876  0.00  0.00    +0.000 A 
ATOM     16  C   UNL     1       7.236   5.914  15.943  0.00  0.00    +0.000 A 
BRANCH  11  18
ATOM     17  C   UNL     1       7.848   5.390  12.432  0.00  0.00    +0.000 C 
ATOM     18  O   UNL     1       8.208   5.563  13.801  0.00  0.00    +0.000 OA
ENDBRANCH  11  18
BRANCH  16  19
ATOM     19  O   UNL     1       8.021   6.937  16.400  0.00  0.00    +0.000 OA
ATOM     20  C   UNL     1       7.685   7.623  17.593  0.00  0.00    +0.000 C 
ENDBRANCH  16  19
ENDBRANCH   1  14
BRANCH   3  21
ATOM     21  C   UNL     1       2.074   6.775  19.234  0.00  0.00    +0.000 C 
ATOM     22  O   UNL     1       2.670   7.043  20.275  0.00  0.00    +0.000 OA
ATOM     23  N   UNL     1       1.359   7.711  18.499  0.00  0.00    +0.000 N 
ATOM     24  H   UNL     1       0.708   7.388  17.798  0.00  0.00    +0.000 HD
BRANCH  23  25
ATOM     25  C   UNL     1       1.388   9.105  18.739  0.00  0.00    +0.000 A 
ATOM     26  C   UNL     1       2.127   9.998  17.954  0.00  0.00    +0.000 A 
ATOM     27  C   UNL     1       2.167  11.365  18.253  0.00  0.00    +0.000 A 
ATOM     28  C   UNL     1       1.451  11.866  19.343  0.00  0.00    +0.000 A 
ATOM     29  C   UNL     1       0.675  10.982  20.102  0.00  0.00    +0.000 A 
ATOM     30  C   UNL     1       0.629   9.613  19.795  0.00  0.00    +0.000 A 
BRANCH  28  31
ATOM     31  C   UNL     1       1.475  13.305  19.737  0.00  0.00    +0.000 C 
ATOM     32  N   UNL     1       2.692  13.943  19.780  0.00  0.00    +0.000 N 
ATOM     33  O   UNL     1       0.451  13.912  20.012  0.00  0.00    +0.000 OA
ATOM     34  H   UNL     1       3.569  13.533  19.559  0.00  0.00    +0.000 HD
ATOM     35  H   UNL     1       2.673  14.914  20.062  0.00  0.00    +0.000 HD
ENDBRANCH  28  31
ENDBRANCH  23  25
ENDBRANCH   3  21
TORSDOF 6
ENDMDL
MODEL 4
REMARK VINA RESULT:      -8.0      2.843      6.230
REMARK  Name = 
REMARK  8 active torsions:
REMARK  status: ('A' for Active; 'I' for Inactive)
REMARK    1  A    between atoms: C_1  and  O_2
REMARK    2  A    between atoms: O_2  and  C_3
REMARK    3  A    between atoms: C_6  and  C_7
REMARK    4  A    between atoms: C_9  and  C_10
REMARK    5  A    between atoms: N_12  and  C_13
REMARK    6  A    between atoms: C_16  and  C_17
REMARK    7  A    between atoms: C_30  and  O_31
REMARK    8  A    between atoms: O_31  and  C_32
REMARK                            x       y       z     vdW  Elec       q    Type
REMARK                         _______ _______ _______ _____ _____    ______ ____
ROOT
ATOM      1  C   UNL     1       1.216   8.931  19.572  0.00  0.00    +0.000 A 
ATOM      2  C   UNL     1       0.658   9.878  18.729  0.00  0.00    +0.000 A 
ATOM      3  C   UNL     1       0.174  11.040  19.290  0.00  0.00    +0.000 A 
ATOM      4  C   UNL     1      -0.339  10.976  20.576  0.00  0.00    +0.000 A 
ATOM      5  C   UNL     1      -1.277  11.929  21.035  0.00  0.00    +0.000 A 
ATOM      6  C   UNL     1      -1.750  11.876  22.334  0.00  0.00    +0.000 A 
ATOM      7  C   UNL     1      -1.246  10.895  23.181  0.00  0.00    +0.000 A 
ATOM      8  C   UNL     1      -0.314   9.948  22.716  0.00  0.00    +0.000 A 
ATOM      9  C   UNL     1       0.126   9.929  21.394  0.00  0.00    +0.000 A 
ATOM     10  N   UNL     1       0.975   8.974  20.911  0.00  0.00    +0.000 NA
ENDROOT
BRANCH   1  14
ATOM     11  C   UNL     1       4.025   5.922  18.149  0.00  0.00    +0.000 A 
ATOM     12  C   UNL     1       3.808   7.109  17.421  0.00  0.00    +0.000 A 
ATOM     13  C   UNL     1       2.883   8.088  17.840  0.00  0.00    +0.000 A 
ATOM     14  C   UNL     1       2.141   7.913  19.006  0.00  0.00    +0.000 A 
ATOM     15  C   UNL     1       2.314   6.674  19.664  0.00  0.00    +0.000 A 
ATOM     16  C   UNL     1       3.238   5.691  19.277  0.00  0.00    +0.000 A 
BRANCH  11  18
ATOM     17  C   UNL     1       4.910   4.516  16.448  0.00  0.00    +0.000 C 
ATOM     18  O   UNL     1       4.957   4.983  17.795  0.00  0.00    +0.000 OA
ENDBRANCH  11  18
BRANCH  16  19
ATOM     19  O   UNL     1       3.232   4.646  20.159  0.00  0.00    +0.000 OA
ATOM     20  C   UNL     1       2.176   4.498  21.092  0.00  0.00    +0.000 C 
ENDBRANCH  16  19
ENDBRANCH   1  14
BRANCH   3  21
ATOM     21  C   UNL     1       0.887  12.326  18.955  0.00  0.00    +0.000 C 
ATOM     22  O   UNL     1       0.268  13.206  18.362  0.00  0.00    +0.000 OA
ATOM     23  N   UNL     1       2.190  12.481  19.409  0.00  0.00    +0.000 N 
ATOM     24  H   UNL     1       2.717  11.660  19.672  0.00  0.00    +0.000 HD
BRANCH  23  25
ATOM     25  C   UNL     1       2.889  13.711  19.426  0.00  0.00    +0.000 A 
ATOM     26  C   UNL     1       3.433  14.294  18.276  0.00  0.00    +0.000 A 
ATOM     27  C   UNL     1       4.158  15.489  18.341  0.00  0.00    +0.000 A 
ATOM     28  C   UNL     1       4.341  16.132  19.568  0.00  0.00    +0.000 A 
ATOM     29  C   UNL     1       3.759  15.575  20.713  0.00  0.00    +0.000 A 
ATOM     30  C   UNL     1       3.024  14.382  20.643  0.00  0.00    +0.000 A 
BRANCH  28  31
ATOM     31  C   UNL     1       5.129  17.390  19.715  0.00  0.00    +0.000 C 
ATOM     32  N   UNL     1       4.839  18.214  20.777  0.00  0.00    +0.000 N 
ATOM     33  O   UNL     1       6.011  17.692  18.926  0.00  0.00    +0.000 OA
ATOM     34  H   UNL     1       4.152  18.041  21.473  0.00  0.00    +0.000 HD
ATOM     35  H   UNL     1       5.385  19.063  20.840  0.00  0.00    +0.000 HD
ENDBRANCH  28  31
ENDBRANCH  23  25
ENDBRANCH   3  21
TORSDOF 6
ENDMDL
MODEL 5
REMARK VINA RESULT:      -7.6      3.277      6.929
REMARK  Name = 
REMARK  8 active torsions:
REMARK  status: ('A' for Active; 'I' for Inactive)
REMARK    1  A    between atoms: C_1  and  O_2
REMARK    2  A    between atoms: O_2  and  C_3
REMARK    3  A    between atoms: C_6  and  C_7
REMARK    4  A    between atoms: C_9  and  C_10
REMARK    5  A    between atoms: N_12  and  C_13
REMARK    6  A    between atoms: C_16  and  C_17
REMARK    7  A    between atoms: C_30  and  O_31
REMARK    8  A    between atoms: O_31  and  C_32
REMARK                            x       y       z     vdW  Elec       q    Type
REMARK                         _______ _______ _______ _____ _____    ______ ____
ROOT
ATOM      1  C   UNL     1       1.107   9.609  19.854  0.00  0.00    +0.000 A 
ATOM      2  C   UNL     1       1.068  10.836  19.211  0.00  0.00    +0.000 A 
ATOM      3  C   UNL     1       0.763  11.951  19.962  0.00  0.00    +0.000 A 
ATOM      4  C   UNL     1      -0.086  11.793  21.047  0.00  0.00    +0.000 A 
ATOM      5  C   UNL     1      -0.836  12.880  21.550  0.00  0.00    +0.000 A 
ATOM      6  C   UNL     1      -1.648  12.716  22.658  0.00  0.00    +0.000 A 
ATOM      7  C   UNL     1      -1.669  11.475  23.284  0.00  0.00    +0.000 A 
ATOM      8  C   UNL     1      -0.921  10.396  22.775  0.00  0.00    +0.000 A 
ATOM      9  C   UNL     1      -0.152  10.508  21.618  0.00  0.00    +0.000 A 
ATOM     10  N   UNL     1       0.523   9.452  21.074  0.00  0.00    +0.000 NA
ENDROOT
BRANCH   1  14
ATOM     11  C   UNL     1       3.436   6.299  18.245  0.00  0.00    +0.000 A 
ATOM     12  C   UNL     1       3.225   7.469  17.488  0.00  0.00    +0.000 A 
ATOM     13  C   UNL     1       2.450   8.545  17.970  0.00  0.00    +0.000 A 
ATOM     14  C   UNL     1       1.858   8.488  19.229  0.00  0.00    +0.000 A 
ATOM     15  C   UNL     1       2.012   7.268  19.926  0.00  0.00    +0.000 A 
ATOM     16  C   UNL     1       2.790   6.190  19.477  0.00  0.00    +0.000 A 
BRANCH  11  18
ATOM     17  C   UNL     1       5.556   5.228  18.346  0.00  0.00    +0.000 C 
ATOM     18  O   UNL     1       4.229   5.266  17.825  0.00  0.00    +0.000 OA
ENDBRANCH  11  18
BRANCH  16  19
ATOM     19  O   UNL     1       2.813   5.188  20.407  0.00  0.00    +0.000 OA
ATOM     20  C   UNL     1       1.634   4.467  20.718  0.00  0.00    +0.000 C 
ENDBRANCH  16  19
ENDBRANCH   1  14
BRANCH   3  21
ATOM     21  C   UNL     1       1.847  12.983  20.150  0.00  0.00    +0.000 C 
ATOM     22  O   UNL     1       2.505  12.964  21.188  0.00  0.00    +0.000 OA
ATOM     23  N   UNL     1       2.100  13.854  19.099  0.00  0.00    +0.000 N 
ATOM     24  H   UNL     1       1.394  13.982  18.389  0.00  0.00    +0.000 HD
BRANCH  23  25
ATOM     25  C   UNL     1       3.246  14.678  19.004  0.00  0.00    +0.000 A 
ATOM     26  C   UNL     1       4.374  14.332  18.250  0.00  0.00    +0.000 A 
ATOM     27  C   UNL     1       5.506  15.154  18.220  0.00  0.00    +0.000 A 
ATOM     28  C   UNL     1       5.524  16.351  18.939  0.00  0.00    +0.000 A 
ATOM     29  C   UNL     1       4.380  16.722  19.657  0.00  0.00    +0.000 A 
ATOM     30  C   UNL     1       3.242  15.901  19.678  0.00  0.00    +0.000 A 
BRANCH  28  31
ATOM     31  C   UNL     1       6.709  17.258  18.977  0.00  0.00    +0.000 C 
ATOM     32  N   UNL     1       7.816  16.903  18.244  0.00  0.00    +0.000 N 
ATOM     33  O   UNL     1       6.708  18.288  19.632  0.00  0.00    +0.000 OA
ATOM     34  H   UNL     1       7.899  16.095  17.672  0.00  0.00    +0.000 HD
ATOM     35  H   UNL     1       8.605  17.535  18.300  0.00  0.00    +0.000 HD
ENDBRANCH  28  31
ENDBRANCH  23  25
ENDBRANCH   3  21
TORSDOF 6
ENDMDL
MODEL 6
REMARK VINA RESULT:      -7.6      2.382      8.016
REMARK  Name = 
REMARK  8 active torsions:
REMARK  status: ('A' for Active; 'I' for Inactive)
REMARK    1  A    between atoms: C_1  and  O_2
REMARK    2  A    between atoms: O_2  and  C_3
REMARK    3  A    between atoms: C_6  and  C_7
REMARK    4  A    between atoms: C_9  and  C_10
REMARK    5  A    between atoms: N_12  and  C_13
REMARK    6  A    between atoms: C_16  and  C_17
REMARK    7  A    between atoms: C_30  and  O_31
REMARK    8  A    between atoms: O_31  and  C_32
REMARK                            x       y       z     vdW  Elec       q    Type
REMARK                         _______ _______ _______ _____ _____    ______ ____
ROOT
ATOM      1  C   UNL     1       2.245   6.859  19.824  0.00  0.00    +0.000 A 
ATOM      2  C   UNL     1       3.539   6.523  19.460  0.00  0.00    +0.000 A 
ATOM      3  C   UNL     1       3.848   5.186  19.329  0.00  0.00    +0.000 A 
ATOM      4  C   UNL     1       3.177   4.281  20.135  0.00  0.00    +0.000 A 
ATOM      5  C   UNL     1       3.739   3.020  20.440  0.00  0.00    +0.000 A 
ATOM      6  C   UNL     1       3.039   2.111  21.214  0.00  0.00    +0.000 A 
ATOM      7  C   UNL     1       1.761   2.452  21.640  0.00  0.00    +0.000 A 
ATOM      8  C   UNL     1       1.209   3.711  21.334  0.00  0.00    +0.000 A 
ATOM      9  C   UNL     1       1.917   4.677  20.621  0.00  0.00    +0.000 A 
ATOM     10  N   UNL     1       1.422   5.927  20.377  0.00  0.00    +0.000 NA
ENDROOT
BRANCH   1  14
ATOM     11  C   UNL     1       0.550  10.799  19.071  0.00  0.00    +0.000 A 
ATOM     12  C   UNL     1       1.342  10.157  18.099  0.00  0.00    +0.000 A 
ATOM     13  C   UNL     1       1.930   8.894  18.325  0.00  0.00    +0.000 A 
ATOM     14  C   UNL     1       1.744   8.229  19.535  0.00  0.00    +0.000 A 
ATOM     15  C   UNL     1       1.021   8.938  20.521  0.00  0.00    +0.000 A 
ATOM     16  C   UNL     1       0.414  10.186  20.317  0.00  0.00    +0.000 A 
BRANCH  11  18
ATOM     17  C   UNL     1      -1.426  11.937  18.395  0.00  0.00    +0.000 C 
ATOM     18  O   UNL     1      -0.078  11.997  18.856  0.00  0.00    +0.000 OA
ENDBRANCH  11  18
BRANCH  16  19
ATOM     19  O   UNL     1      -0.283  10.574  21.428  0.00  0.00    +0.000 OA
ATOM     20  C   UNL     1      -0.241   9.797  22.611  0.00  0.00    +0.000 C 
ENDBRANCH  16  19
ENDBRANCH   1  14
BRANCH   3  21
ATOM     21  C   UNL     1       4.180   4.680  17.947  0.00  0.00    +0.000 C 
ATOM     22  O   UNL     1       3.259   4.358  17.200  0.00  0.00    +0.000 OA
ATOM     23  N   UNL     1       5.514   4.682  17.560  0.00  0.00    +0.000 N 
ATOM     24  H   UNL     1       6.229   4.726  18.272  0.00  0.00    +0.000 HD
BRANCH  23  25
ATOM     25  C   UNL     1       5.959   4.510  16.229  0.00  0.00    +0.000 A 
ATOM     26  C   UNL     1       7.042   5.214  15.690  0.00  0.00    +0.000 A 
ATOM     27  C   UNL     1       7.422   5.050  14.353  0.00  0.00    +0.000 A 
ATOM     28  C   UNL     1       6.726   4.161  13.530  0.00  0.00    +0.000 A 
ATOM     29  C   UNL     1       5.671   3.422  14.079  0.00  0.00    +0.000 A 
ATOM     30  C   UNL     1       5.298   3.581  15.422  0.00  0.00    +0.000 A 
BRANCH  28  31
ATOM     31  C   UNL     1       7.057   3.961  12.089  0.00  0.00    +0.000 C 
ATOM     32  N   UNL     1       7.045   2.678  11.596  0.00  0.00    +0.000 N 
ATOM     33  O   UNL     1       7.329   4.900  11.356  0.00  0.00    +0.000 OA
ATOM     34  H   UNL     1       6.822   1.860  12.114  0.00  0.00    +0.000 HD
ATOM     35  H   UNL     1       7.284   2.577  10.618  0.00  0.00    +0.000 HD
ENDBRANCH  28  31
ENDBRANCH  23  25
ENDBRANCH   3  21
TORSDOF 6
ENDMDL
MODEL 7
REMARK VINA RESULT:      -7.6      3.006      6.590
REMARK  Name = 
REMARK  8 active torsions:
REMARK  status: ('A' for Active; 'I' for Inactive)
REMARK    1  A    between atoms: C_1  and  O_2
REMARK    2  A    between atoms: O_2  and  C_3
REMARK    3  A    between atoms: C_6  and  C_7
REMARK    4  A    between atoms: C_9  and  C_10
REMARK    5  A    between atoms: N_12  and  C_13
REMARK    6  A    between atoms: C_16  and  C_17
REMARK    7  A    between atoms: C_30  and  O_31
REMARK    8  A    between atoms: O_31  and  C_32
REMARK                            x       y       z     vdW  Elec       q    Type
REMARK                         _______ _______ _______ _____ _____    ______ ____
ROOT
ATOM      1  C   UNL     1       0.940   9.207  19.776  0.00  0.00    +0.000 A 
ATOM      2  C   UNL     1       0.516  10.193  18.899  0.00  0.00    +0.000 A 
ATOM      3  C   UNL     1       0.077  11.387  19.429  0.00  0.00    +0.000 A 
ATOM      4  C   UNL     1      -0.533  11.361  20.673  0.00  0.00    +0.000 A 
ATOM      5  C   UNL     1      -1.431  12.379  21.067  0.00  0.00    +0.000 A 
ATOM      6  C   UNL     1      -2.002  12.360  22.327  0.00  0.00    +0.000 A 
ATOM      7  C   UNL     1      -1.635  11.345  23.204  0.00  0.00    +0.000 A 
ATOM      8  C   UNL     1      -0.742  10.333  22.804  0.00  0.00    +0.000 A 
ATOM      9  C   UNL     1      -0.208  10.281  21.517  0.00  0.00    +0.000 A 
ATOM     10  N   UNL     1       0.604   9.267  21.093  0.00  0.00    +0.000 NA
ENDROOT
BRANCH   1  14
ATOM     11  C   UNL     1       3.640   6.020  18.542  0.00  0.00    +0.000 A 
ATOM     12  C   UNL     1       3.463   7.167  17.742  0.00  0.00    +0.000 A 
ATOM     13  C   UNL     1       2.573   8.202  18.100  0.00  0.00    +0.000 A 
ATOM     14  C   UNL     1       1.827   8.125  19.274  0.00  0.00    +0.000 A 
ATOM     15  C   UNL     1       1.958   6.923  20.007  0.00  0.00    +0.000 A 
ATOM     16  C   UNL     1       2.846   5.887  19.682  0.00  0.00    +0.000 A 
BRANCH  11  18
ATOM     17  C   UNL     1       5.850   5.178  18.785  0.00  0.00    +0.000 C 
ATOM     18  O   UNL     1       4.537   5.030  18.247  0.00  0.00    +0.000 OA
ENDBRANCH  11  18
BRANCH  16  19
ATOM     19  O   UNL     1       2.805   4.899  20.627  0.00  0.00    +0.000 OA
ATOM     20  C   UNL     1       1.719   3.991  20.671  0.00  0.00    +0.000 C 
ENDBRANCH  16  19
ENDBRANCH   1  14
BRANCH   3  21
ATOM     21  C   UNL     1       0.905  12.618  19.155  0.00  0.00    +0.000 C 
ATOM     22  O   UNL     1       0.376  13.569  18.585  0.00  0.00    +0.000 OA
ATOM     23  N   UNL     1       2.206  12.642  19.637  0.00  0.00    +0.000 N 
ATOM     24  H   UNL     1       2.656  11.770  19.877  0.00  0.00    +0.000 HD
BRANCH  23  25
ATOM     25  C   UNL     1       3.008  13.806  19.712  0.00  0.00    +0.000 A 
ATOM     26  C   UNL     1       3.300  14.454  20.917  0.00  0.00    +0.000 A 
ATOM     27  C   UNL     1       4.059  15.630  20.944  0.00  0.00    +0.000 A 
ATOM     28  C   UNL     1       4.551  16.174  19.755  0.00  0.00    +0.000 A 
ATOM     29  C   UNL     1       4.299  15.503  18.553  0.00  0.00    +0.000 A 
ATOM     30  C   UNL     1       3.547  14.318  18.530  0.00  0.00    +0.000 A 
BRANCH  28  31
ATOM     31  C   UNL     1       5.339  17.441  19.708  0.00  0.00    +0.000 C 
ATOM     32  N   UNL     1       5.160  18.350  20.723  0.00  0.00    +0.000 N 
ATOM     33  O   UNL     1       6.124  17.675  18.802  0.00  0.00    +0.000 OA
ATOM     34  H   UNL     1       4.557  18.237  21.503  0.00  0.00    +0.000 HD
ATOM     35  H   UNL     1       5.701  19.203  20.654  0.00  0.00    +0.000 HD
ENDBRANCH  28  31
ENDBRANCH  23  25
ENDBRANCH   3  21
TORSDOF 6
ENDMDL
MODEL 8
REMARK VINA RESULT:      -7.5      2.465      4.303
REMARK  Name = 
REMARK  8 active torsions:
REMARK  status: ('A' for Active; 'I' for Inactive)
REMARK    1  A    between atoms: C_1  and  O_2
REMARK    2  A    between atoms: O_2  and  C_3
REMARK    3  A    between atoms: C_6  and  C_7
REMARK    4  A    between atoms: C_9  and  C_10
REMARK    5  A    between atoms: N_12  and  C_13
REMARK    6  A    between atoms: C_16  and  C_17
REMARK    7  A    between atoms: C_30  and  O_31
REMARK    8  A    between atoms: O_31  and  C_32
REMARK                            x       y       z     vdW  Elec       q    Type
REMARK                         _______ _______ _______ _____ _____    ______ ____
ROOT
ATOM      1  C   UNL     1       2.481   7.368  18.679  0.00  0.00    +0.000 A 
ATOM      2  C   UNL     1       1.771   8.285  17.918  0.00  0.00    +0.000 A 
ATOM      3  C   UNL     1       1.210   9.365  18.564  0.00  0.00    +0.000 A 
ATOM      4  C   UNL     1       0.795   9.195  19.875  0.00  0.00    +0.000 A 
ATOM      5  C   UNL     1      -0.202  10.024  20.437  0.00  0.00    +0.000 A 
ATOM      6  C   UNL     1      -0.578   9.869  21.760  0.00  0.00    +0.000 A 
ATOM      7  C   UNL     1       0.081   8.914  22.526  0.00  0.00    +0.000 A 
ATOM      8  C   UNL     1       1.072   8.091  21.958  0.00  0.00    +0.000 A 
ATOM      9  C   UNL     1       1.420   8.171  20.611  0.00  0.00    +0.000 A 
ATOM     10  N   UNL     1       2.329   7.332  20.030  0.00  0.00    +0.000 NA
ENDROOT
BRANCH   1  14
ATOM     11  C   UNL     1       5.394   4.944  16.531  0.00  0.00    +0.000 A 
ATOM     12  C   UNL     1       4.192   4.379  17.003  0.00  0.00    +0.000 A 
ATOM     13  C   UNL     1       3.243   5.131  17.728  0.00  0.00    +0.000 A 
ATOM     14  C   UNL     1       3.465   6.478  18.007  0.00  0.00    +0.000 A 
ATOM     15  C   UNL     1       4.717   6.992  17.600  0.00  0.00    +0.000 A 
ATOM     16  C   UNL     1       5.671   6.271  16.865  0.00  0.00    +0.000 A 
BRANCH  11  18
ATOM     17  C   UNL     1       6.147   4.327  14.363  0.00  0.00    +0.000 C 
ATOM     18  O   UNL     1       6.304   4.253  15.778  0.00  0.00    +0.000 OA
ENDBRANCH  11  18
BRANCH  16  19
ATOM     19  O   UNL     1       6.739   7.063  16.549  0.00  0.00    +0.000 OA
ATOM     20  C   UNL     1       7.538   7.634  17.569  0.00  0.00    +0.000 C 
ENDBRANCH  16  19
ENDBRANCH   1  14
BRANCH   3  21
ATOM     21  C   UNL     1       1.762  10.732  18.245  0.00  0.00    +0.000 C 
ATOM     22  O   UNL     1       2.394  10.884  17.202  0.00  0.00    +0.000 OA
ATOM     23  N   UNL     1       1.455  11.772  19.112  0.00  0.00    +0.000 N 
ATOM     24  H   UNL     1       1.148  11.553  20.049  0.00  0.00    +0.000 HD
BRANCH  23  25
ATOM     25  C   UNL     1       1.651  13.141  18.817  0.00  0.00    +0.000 A 
ATOM     26  C   UNL     1       2.887  13.666  18.422  0.00  0.00    +0.000 A 
ATOM     27  C   UNL     1       3.051  15.036  18.184  0.00  0.00    +0.000 A 
ATOM     28  C   UNL     1       1.969  15.907  18.326  0.00  0.00    +0.000 A 
ATOM     29  C   UNL     1       0.721  15.378  18.677  0.00  0.00    +0.000 A 
ATOM     30  C   UNL     1       0.556  14.003  18.905  0.00  0.00    +0.000 A 
BRANCH  28  31
ATOM     31  C   UNL     1       2.081  17.381  18.120  0.00  0.00    +0.000 C 
ATOM     32  N   UNL     1       1.534  18.209  19.071  0.00  0.00    +0.000 N 
ATOM     33  O   UNL     1       2.642  17.852  17.143  0.00  0.00    +0.000 OA
ATOM     34  H   UNL     1       1.076  17.915  19.902  0.00  0.00    +0.000 HD
ATOM     35  H   UNL     1       1.618  19.202  18.895  0.00  0.00    +0.000 HD
ENDBRANCH  28  31
ENDBRANCH  23  25
ENDBRANCH   3  21
TORSDOF 6
ENDMDL
MODEL 9
REMARK VINA RESULT:      -7.5      2.516      5.067
REMARK  Name = 
REMARK  8 active torsions:
REMARK  status: ('A' for Active; 'I' for Inactive)
REMARK    1  A    between atoms: C_1  and  O_2
REMARK    2  A    between atoms: O_2  and  C_3
REMARK    3  A    between atoms: C_6  and  C_7
REMARK    4  A    between atoms: C_9  and  C_10
REMARK    5  A    between atoms: N_12  and  C_13
REMARK    6  A    between atoms: C_16  and  C_17
REMARK    7  A    between atoms: C_30  and  O_31
REMARK    8  A    between atoms: O_31  and  C_32
REMARK                            x       y       z     vdW  Elec       q    Type
REMARK                         _______ _______ _______ _____ _____    ______ ____
ROOT
ATOM      1  C   UNL     1       2.161   7.817  18.957  0.00  0.00    +0.000 A 
ATOM      2  C   UNL     1       1.426   8.756  18.249  0.00  0.00    +0.000 A 
ATOM      3  C   UNL     1       0.906   9.827  18.942  0.00  0.00    +0.000 A 
ATOM      4  C   UNL     1       0.552   9.635  20.268  0.00  0.00    +0.000 A 
ATOM      5  C   UNL     1      -0.409  10.461  20.893  0.00  0.00    +0.000 A 
ATOM      6  C   UNL     1      -0.723  10.282  22.229  0.00  0.00    +0.000 A 
ATOM      7  C   UNL     1      -0.039   9.306  22.944  0.00  0.00    +0.000 A 
ATOM      8  C   UNL     1       0.916   8.485  22.313  0.00  0.00    +0.000 A 
ATOM      9  C   UNL     1       1.201   8.590  20.953  0.00  0.00    +0.000 A 
ATOM     10  N   UNL     1       2.072   7.755  20.313  0.00  0.00    +0.000 NA
ENDROOT
BRANCH   1  14
ATOM     11  C   UNL     1       4.980   5.114  17.029  0.00  0.00    +0.000 A 
ATOM     12  C   UNL     1       4.951   6.484  16.698  0.00  0.00    +0.000 A 
ATOM     13  C   UNL     1       4.030   7.378  17.283  0.00  0.00    +0.000 A 
ATOM     14  C   UNL     1       3.103   6.932  18.221  0.00  0.00    +0.000 A 
ATOM     15  C   UNL     1       3.096   5.540  18.465  0.00  0.00    +0.000 A 
ATOM     16  C   UNL     1       4.011   4.632  17.909  0.00  0.00    +0.000 A 
BRANCH  11  18
ATOM     17  C   UNL     1       7.273   4.578  16.699  0.00  0.00    +0.000 C 
ATOM     18  O   UNL     1       5.900   4.238  16.519  0.00  0.00    +0.000 OA
ENDBRANCH  11  18
BRANCH  16  19
ATOM     19  O   UNL     1       3.803   3.373  18.401  0.00  0.00    +0.000 OA
ATOM     20  C   UNL     1       2.890   2.495  17.767  0.00  0.00    +0.000 C 
ENDBRANCH  16  19
ENDBRANCH   1  14
BRANCH   3  21
ATOM     21  C   UNL     1       1.457  11.196  18.625  0.00  0.00    +0.000 C 
ATOM     22  O   UNL     1       2.183  11.326  17.643  0.00  0.00    +0.000 OA
ATOM     23  N   UNL     1       1.045  12.258  19.418  0.00  0.00    +0.000 N 
ATOM     24  H   UNL     1       0.654  12.066  20.329  0.00  0.00    +0.000 HD
BRANCH  23  25
ATOM     25  C   UNL     1       1.239  13.621  19.091  0.00  0.00    +0.000 A 
ATOM     26  C   UNL     1       2.504  14.216  19.024  0.00  0.00    +0.000 A 
ATOM     27  C   UNL     1       2.651  15.579  18.742  0.00  0.00    +0.000 A 
ATOM     28  C   UNL     1       1.526  16.372  18.508  0.00  0.00    +0.000 A 
ATOM     29  C   UNL     1       0.261  15.770  18.529  0.00  0.00    +0.000 A 
ATOM     30  C   UNL     1       0.117  14.401  18.802  0.00  0.00    +0.000 A 
BRANCH  28  31
ATOM     31  C   UNL     1       1.607  17.837  18.234  0.00  0.00    +0.000 C 
ATOM     32  N   UNL     1       1.252  18.280  16.982  0.00  0.00    +0.000 N 
ATOM     33  O   UNL     1       1.974  18.630  19.087  0.00  0.00    +0.000 OA
ATOM     34  H   UNL     1       0.930  17.710  16.235  0.00  0.00    +0.000 HD
ATOM     35  H   UNL     1       1.330  19.277  16.827  0.00  0.00    +0.000 HD
ENDBRANCH  28  31
ENDBRANCH  23  25
ENDBRANCH   3  21
TORSDOF 6
ENDMDL
