MODEL 1
REMARK VINA RESULT:      -8.4      0.000      0.000
REMARK  Name = 
REMARK  11 active torsions:
REMARK  status: ('A' for Active; 'I' for Inactive)
REMARK    1  A    between atoms: O_1  and  C_2
REMARK    2  A    between atoms: C_2  and  C_3
REMARK    3  A    between atoms: C_5  and  C_6
REMARK    4  A    between atoms: C_6  and  C_7
REMARK    5  A    between atoms: C_7  and  O_8
REMARK    6  A    between atoms: O_8  and  C_9
REMARK    7  A    between atoms: C_9  and  C_10
REMARK    8  A    between atoms: C_16  and  O_17
REMARK    9  A    between atoms: O_17  and  C_18
REMARK   10  A    between atoms: C_18  and  C_19
REMARK   11  A    between atoms: C_26  and  O_27
REMARK                            x       y       z     vdW  Elec       q    Type
REMARK                         _______ _______ _______ _____ _____    ______ ____
ROOT
ATOM      1  C   UNL     1       7.071   4.702  14.745  0.00  0.00    +0.000 C 
ATOM      2  O   UNL     1       7.565   5.555  15.777  0.00  0.00    +0.000 OA
ATOM      3  C   UNL     1       7.088   5.252  17.098  0.00  0.00    +0.000 C 
ATOM      4  C   UNL     1       5.534   5.377  17.155  0.00  0.00    +0.000 C 
ATOM      5  C   UNL     1       4.915   4.541  16.019  0.00  0.00    +0.000 C 
ATOM      6  C   UNL     1       5.547   4.835  14.664  0.00  0.00    +0.000 C 
ENDROOT
BRANCH   6   7
ATOM      7  O   UNL     1       5.001   3.964  13.675  0.00  0.00    +0.000 OA
ATOM      8  H   UNL     1       5.725   3.437  13.295  0.00  0.00    +0.000 HD
ENDBRANCH   6   7
BRANCH   1   9
ATOM      9  C   UNL     1       7.727   5.143  13.428  0.00  0.00    +0.000 C 
BRANCH   9  10
ATOM     10  O   UNL     1       8.830   6.015  13.693  0.00  0.00    +0.000 OA
ATOM     11  H   UNL     1       9.619   5.451  13.761  0.00  0.00    +0.000 HD
ENDBRANCH   9  10
ENDBRANCH   1   9
BRANCH   3  12
ATOM     12  C   UNL     1       7.884   6.242  17.968  0.00  0.00    +0.000 C 
BRANCH  12  13
ATOM     13  C   UNL     1       7.581   7.683  17.573  0.00  0.00    +0.000 C 
BRANCH  13  14
ATOM     14  O   UNL     1       8.408   8.534  18.367  0.00  0.00    +0.000 OA
BRANCH  14  15
ATOM     15  C   UNL     1       8.325   9.889  17.929  0.00  0.00    +0.000 C 
BRANCH  15  16
ATOM     16  C   UNL     1       9.391  10.696  18.620  0.00  0.00    +0.000 A 
ATOM     17  C   UNL     1       9.373  10.866  20.011  0.00  0.00    +0.000 A 
ATOM     18  C   UNL     1      10.384  11.589  20.647  0.00  0.00    +0.000 A 
ATOM     19  C   UNL     1      11.422  12.146  19.901  0.00  0.00    +0.000 A 
ATOM     20  C   UNL     1      11.448  11.986  18.519  0.00  0.00    +0.000 A 
ATOM     21  C   UNL     1      10.439  11.262  17.881  0.00  0.00    +0.000 A 
ENDBRANCH  15  16
ENDBRANCH  14  15
ENDBRANCH  13  14
ENDBRANCH  12  13
ENDBRANCH   3  12
BRANCH   4  22
ATOM     22  O   UNL     1       4.899   4.863  18.343  0.00  0.00    +0.000 OA
BRANCH  22  23
ATOM     23  C   UNL     1       4.034   3.764  18.114  0.00  0.00    +0.000 C 
BRANCH  23  24
ATOM     24  C   UNL     1       3.101   3.492  19.255  0.00  0.00    +0.000 A 
ATOM     25  C   UNL     1       1.768   3.926  19.143  0.00  0.00    +0.000 A 
ATOM     26  C   UNL     1       0.852   3.678  20.159  0.00  0.00    +0.000 A 
ATOM     27  C   UNL     1       1.264   2.983  21.294  0.00  0.00    +0.000 A 
ATOM     28  C   UNL     1       2.578   2.532  21.405  0.00  0.00    +0.000 A 
ATOM     29  C   UNL     1       3.500   2.783  20.392  0.00  0.00    +0.000 A 
ENDBRANCH  23  24
ENDBRANCH  22  23
ENDBRANCH   4  22
TORSDOF 11
ENDMDL
MODEL 2
REMARK VINA RESULT:      -8.2      3.699      6.245
REMARK  Name = 
REMARK  11 active torsions:
REMARK  status: ('A' for Active; 'I' for Inactive)
REMARK    1  A    between atoms: O_1  and  C_2
REMARK    2  A    between atoms: C_2  and  C_3
REMARK    3  A    between atoms: C_5  and  C_6
REMARK    4  A    between atoms: C_6  and  C_7
REMARK    5  A    between atoms: C_7  and  O_8
REMARK    6  A    between atoms: O_8  and  C_9
REMARK    7  A    between atoms: C_9  and  C_10
REMARK    8  A    between atoms: C_16  and  O_17
REMARK    9  A    between atoms: O_17  and  C_18
REMARK   10  A    between atoms: C_18  and  C_19
REMARK   11  A    between atoms: C_26  and  O_27
REMARK                            x       y       z     vdW  Elec       q    Type
REMARK                         _______ _______ _______ _____ _____    ______ ____
ROOT
ATOM      1  C   UNL     1       6.696   5.998  17.801  0.00  0.00    +0.000 C 
ATOM      2  O   UNL     1       5.426   6.641  17.908  0.00  0.00    +0.000 OA
ATOM      3  C   UNL     1       4.302   5.753  18.013  0.00  0.00    +0.000 C 
ATOM      4  C   UNL     1       4.209   4.842  16.750  0.00  0.00    +0.000 C 
ATOM      5  C   UNL     1       5.571   4.163  16.513  0.00  0.00    +0.000 C 
ATOM      6  C   UNL     1       6.730   5.151  16.525  0.00  0.00    +0.000 C 
ENDROOT
BRANCH   6   7
ATOM      7  O   UNL     1       7.966   4.450  16.399  0.00  0.00    +0.000 OA
ATOM      8  H   UNL     1       8.101   4.229  15.461  0.00  0.00    +0.000 HD
ENDBRANCH   6   7
BRANCH   1   9
ATOM      9  C   UNL     1       7.768   7.098  17.754  0.00  0.00    +0.000 C 
BRANCH   9  10
ATOM     10  O   UNL     1       7.206   8.314  17.252  0.00  0.00    +0.000 OA
ATOM     11  H   UNL     1       7.900   8.744  16.725  0.00  0.00    +0.000 HD
ENDBRANCH   9  10
ENDBRANCH   1   9
BRANCH   3  12
ATOM     12  C   UNL     1       3.133   6.731  18.235  0.00  0.00    +0.000 C 
BRANCH  12  13
ATOM     13  C   UNL     1       2.608   6.641  19.663  0.00  0.00    +0.000 C 
BRANCH  13  14
ATOM     14  O   UNL     1       1.867   7.831  19.930  0.00  0.00    +0.000 OA
BRANCH  14  15
ATOM     15  C   UNL     1       1.211   7.758  21.194  0.00  0.00    +0.000 C 
BRANCH  15  16
ATOM     16  C   UNL     1       0.467   9.044  21.439  0.00  0.00    +0.000 A 
ATOM     17  C   UNL     1       0.235   9.948  20.394  0.00  0.00    +0.000 A 
ATOM     18  C   UNL     1      -0.485  11.122  20.623  0.00  0.00    +0.000 A 
ATOM     19  C   UNL     1      -0.981  11.403  21.895  0.00  0.00    +0.000 A 
ATOM     20  C   UNL     1      -0.754  10.512  22.941  0.00  0.00    +0.000 A 
ATOM     21  C   UNL     1      -0.036   9.338  22.714  0.00  0.00    +0.000 A 
ENDBRANCH  15  16
ENDBRANCH  14  15
ENDBRANCH  13  14
ENDBRANCH  12  13
ENDBRANCH   3  12
BRANCH   4  22
ATOM     22  O   UNL     1       3.285   3.740  16.827  0.00  0.00    +0.000 OA
BRANCH  22  23
ATOM     23  C   UNL     1       3.625   2.760  17.792  0.00  0.00    +0.000 C 
BRANCH  23  24
ATOM     24  C   UNL     1       2.778   2.821  19.029  0.00  0.00    +0.000 A 
ATOM     25  C   UNL     1       3.399   2.605  20.272  0.00  0.00    +0.000 A 
ATOM     26  C   UNL     1       2.668   2.675  21.452  0.00  0.00    +0.000 A 
ATOM     27  C   UNL     1       1.308   2.971  21.397  0.00  0.00    +0.000 A 
ATOM     28  C   UNL     1       0.689   3.206  20.170  0.00  0.00    +0.000 A 
ATOM     29  C   UNL     1       1.416   3.132  18.985  0.00  0.00    +0.000 A 
ENDBRANCH  23  24
ENDBRANCH  22  23
ENDBRANCH   4  22
TORSDOF 11
ENDMDL
MODEL 3
REMARK VINA RESULT:      -8.2      0.930      1.484
REMARK  Name = 
REMARK  11 active torsions:
REMARK  status: ('A' for Active; 'I' for Inactive)
REMARK    1  A    between atoms: O_1  and  C_2
REMARK    2  A    between atoms: C_2  and  C_3
REMARK    3  A    between atoms: C_5  and  C_6
REMARK    4  A    between atoms: C_6  and  C_7
REMARK    5  A    between atoms: C_7  and  O_8
REMARK    6  A    between atoms: O_8  and  C_9
REMARK    7  A    between atoms: C_9  and  C_10
REMARK    8  A    between atoms: C_16  and  O_17
REMARK    9  A    between atoms: O_17  and  C_18
REMARK   10  A    between atoms: C_18  and  C_19
REMARK   11  A    between atoms: C_26  and  O_27
REMARK                            x       y       z     vdW  Elec       q    Type
REMARK                         _______ _______ _______ _____ _____    ______ ____
ROOT
ATOM      1  C   UNL     1       7.032   4.901  15.029  0.00  0.00    +0.000 C 
ATOM      2  O   UNL     1       7.545   5.783  16.028  0.00  0.00    +0.000 OA
ATOM      3  C   UNL     1       6.955   5.636  17.330  0.00  0.00    +0.000 C 
ATOM      4  C   UNL     1       5.422   5.919  17.265  0.00  0.00    +0.000 C 
ATOM      5  C   UNL     1       4.793   5.060  16.151  0.00  0.00    +0.000 C 
ATOM      6  C   UNL     1       5.538   5.179  14.828  0.00  0.00    +0.000 C 
ENDROOT
BRANCH   6   7
ATOM      7  O   UNL     1       4.969   4.290  13.870  0.00  0.00    +0.000 OA
ATOM      8  H   UNL     1       5.439   3.439  13.920  0.00  0.00    +0.000 HD
ENDBRANCH   6   7
BRANCH   1   9
ATOM      9  C   UNL     1       7.814   5.167  13.734  0.00  0.00    +0.000 C 
BRANCH   9  10
ATOM     10  O   UNL     1       7.247   4.422  12.652  0.00  0.00    +0.000 OA
ATOM     11  H   UNL     1       7.488   4.892  11.836  0.00  0.00    +0.000 HD
ENDBRANCH   9  10
ENDBRANCH   1   9
BRANCH   3  12
ATOM     12  C   UNL     1       7.793   6.610  18.180  0.00  0.00    +0.000 C 
BRANCH  12  13
ATOM     13  C   UNL     1       7.686   8.033  17.645  0.00  0.00    +0.000 C 
BRANCH  13  14
ATOM     14  O   UNL     1       8.566   8.853  18.414  0.00  0.00    +0.000 OA
BRANCH  14  15
ATOM     15  C   UNL     1       8.551  10.202  17.951  0.00  0.00    +0.000 C 
BRANCH  15  16
ATOM     16  C   UNL     1       9.676  10.960  18.604  0.00  0.00    +0.000 A 
ATOM     17  C   UNL     1      10.694  11.537  17.832  0.00  0.00    +0.000 A 
ATOM     18  C   UNL     1      11.715  12.267  18.443  0.00  0.00    +0.000 A 
ATOM     19  C   UNL     1      11.729  12.429  19.828  0.00  0.00    +0.000 A 
ATOM     20  C   UNL     1      10.724  11.857  20.604  0.00  0.00    +0.000 A 
ATOM     21  C   UNL     1       9.701  11.129  19.995  0.00  0.00    +0.000 A 
ENDBRANCH  15  16
ENDBRANCH  14  15
ENDBRANCH  13  14
ENDBRANCH  12  13
ENDBRANCH   3  12
BRANCH   4  22
ATOM     22  O   UNL     1       4.661   5.570  18.438  0.00  0.00    +0.000 OA
BRANCH  22  23
ATOM     23  C   UNL     1       3.256   5.604  18.254  0.00  0.00    +0.000 C 
BRANCH  23  24
ATOM     24  C   UNL     1       2.517   4.634  19.127  0.00  0.00    +0.000 A 
ATOM     25  C   UNL     1       2.723   4.700  20.517  0.00  0.00    +0.000 A 
ATOM     26  C   UNL     1       2.044   3.843  21.376  0.00  0.00    +0.000 A 
ATOM     27  C   UNL     1       1.146   2.918  20.849  0.00  0.00    +0.000 A 
ATOM     28  C   UNL     1       0.922   2.860  19.474  0.00  0.00    +0.000 A 
ATOM     29  C   UNL     1       1.603   3.713  18.610  0.00  0.00    +0.000 A 
ENDBRANCH  23  24
ENDBRANCH  22  23
ENDBRANCH   4  22
TORSDOF 11
ENDMDL
MODEL 4
REMARK VINA RESULT:      -8.1      1.024      1.238
REMARK  Name = 
REMARK  11 active torsions:
REMARK  status: ('A' for Active; 'I' for Inactive)
REMARK    1  A    between atoms: O_1  and  C_2
REMARK    2  A    between atoms: C_2  and  C_3
REMARK    3  A    between atoms: C_5  and  C_6
REMARK    4  A    between atoms: C_6  and  C_7
REMARK    5  A    between atoms: C_7  and  O_8
REMARK    6  A    between atoms: O_8  and  C_9
REMARK    7  A    between atoms: C_9  and  C_10
REMARK    8  A    between atoms: C_16  and  O_17
REMARK    9  A    between atoms: O_17  and  C_18
REMARK   10  A    between atoms: C_18  and  C_19
REMARK   11  A    between atoms: C_26  and  O_27
REMARK                            x       y       z     vdW  Elec       q    Type
REMARK                         _______ _______ _______ _____ _____    ______ ____
ROOT
ATOM      1  C   UNL     1       7.198   4.933  14.729  0.00  0.00    +0.000 C 
ATOM      2  O   UNL     1       7.587   5.995  15.600  0.00  0.00    +0.000 OA
ATOM      3  C   UNL     1       7.083   5.897  16.942  0.00  0.00    +0.000 C 
ATOM      4  C   UNL     1       5.522   5.904  16.937  0.00  0.00    +0.000 C 
ATOM      5  C   UNL     1       5.012   4.831  15.956  0.00  0.00    +0.000 C 
ATOM      6  C   UNL     1       5.672   4.927  14.587  0.00  0.00    +0.000 C 
ENDROOT
BRANCH   6   7
ATOM      7  O   UNL     1       5.232   3.852  13.760  0.00  0.00    +0.000 OA
ATOM      8  H   UNL     1       5.970   3.227  13.648  0.00  0.00    +0.000 HD
ENDBRANCH   6   7
BRANCH   1   9
ATOM      9  C   UNL     1       7.870   5.183  13.371  0.00  0.00    +0.000 C 
BRANCH   9  10
ATOM     10  O   UNL     1       8.959   6.099  13.518  0.00  0.00    +0.000 OA
ATOM     11  H   UNL     1       9.699   5.735  13.003  0.00  0.00    +0.000 HD
ENDBRANCH   9  10
ENDBRANCH   1   9
BRANCH   3  12
ATOM     12  C   UNL     1       7.768   7.088  17.637  0.00  0.00    +0.000 C 
BRANCH  12  13
ATOM     13  C   UNL     1       6.939   8.358  17.488  0.00  0.00    +0.000 C 
BRANCH  13  14
ATOM     14  O   UNL     1       7.795   9.469  17.757  0.00  0.00    +0.000 OA
BRANCH  14  15
ATOM     15  C   UNL     1       8.776   9.140  18.738  0.00  0.00    +0.000 C 
BRANCH  15  16
ATOM     16  C   UNL     1       9.492  10.395  19.160  0.00  0.00    +0.000 A 
ATOM     17  C   UNL     1       9.386  10.873  20.473  0.00  0.00    +0.000 A 
ATOM     18  C   UNL     1      10.081  12.019  20.865  0.00  0.00    +0.000 A 
ATOM     19  C   UNL     1      10.888  12.695  19.952  0.00  0.00    +0.000 A 
ATOM     20  C   UNL     1      10.998  12.230  18.644  0.00  0.00    +0.000 A 
ATOM     21  C   UNL     1      10.306  11.084  18.251  0.00  0.00    +0.000 A 
ENDBRANCH  15  16
ENDBRANCH  14  15
ENDBRANCH  13  14
ENDBRANCH  12  13
ENDBRANCH   3  12
BRANCH   4  22
ATOM     22  O   UNL     1       4.881   5.563  18.182  0.00  0.00    +0.000 OA
BRANCH  22  23
ATOM     23  C   UNL     1       3.540   6.009  18.289  0.00  0.00    +0.000 C 
BRANCH  23  24
ATOM     24  C   UNL     1       2.610   4.973  18.847  0.00  0.00    +0.000 A 
ATOM     25  C   UNL     1       2.302   5.025  20.218  0.00  0.00    +0.000 A 
ATOM     26  C   UNL     1       1.426   4.106  20.784  0.00  0.00    +0.000 A 
ATOM     27  C   UNL     1       0.843   3.131  19.977  0.00  0.00    +0.000 A 
ATOM     28  C   UNL     1       1.129   3.085  18.613  0.00  0.00    +0.000 A 
ATOM     29  C   UNL     1       2.010   4.000  18.043  0.00  0.00    +0.000 A 
ENDBRANCH  23  24
ENDBRANCH  22  23
ENDBRANCH   4  22
TORSDOF 11
ENDMDL
MODEL 5
REMARK VINA RESULT:      -8.0      3.534      5.790
REMARK  Name = 
REMARK  11 active torsions:
REMARK  status: ('A' for Active; 'I' for Inactive)
REMARK    1  A    between atoms: O_1  and  C_2
REMARK    2  A    between atoms: C_2  and  C_3
REMARK    3  A    between atoms: C_5  and  C_6
REMARK    4  A    between atoms: C_6  and  C_7
REMARK    5  A    between atoms: C_7  and  O_8
REMARK    6  A    between atoms: O_8  and  C_9
REMARK    7  A    between atoms: C_9  and  C_10
REMARK    8  A    between atoms: C_16  and  O_17
REMARK    9  A    between atoms: O_17  and  C_18
REMARK   10  A    between atoms: C_18  and  C_19
REMARK   11  A    between atoms: C_26  and  O_27
REMARK                            x       y       z     vdW  Elec       q    Type
REMARK                         _______ _______ _______ _____ _____    ______ ____
ROOT
ATOM      1  C   UNL     1       6.658   5.888  17.697  0.00  0.00    +0.000 C 
ATOM      2  O   UNL     1       5.372   6.441  17.978  0.00  0.00    +0.000 OA
ATOM      3  C   UNL     1       4.314   5.479  18.115  0.00  0.00    +0.000 C 
ATOM      4  C   UNL     1       4.145   4.667  16.793  0.00  0.00    +0.000 C 
ATOM      5  C   UNL     1       5.511   4.095  16.370  0.00  0.00    +0.000 C 
ATOM      6  C   UNL     1       6.610   5.149  16.356  0.00  0.00    +0.000 C 
ENDROOT
BRANCH   6   7
ATOM      7  O   UNL     1       7.863   4.540  16.053  0.00  0.00    +0.000 OA
ATOM      8  H   UNL     1       8.485   5.235  15.772  0.00  0.00    +0.000 HD
ENDBRANCH   6   7
BRANCH   1   9
ATOM      9  C   UNL     1       7.658   7.054  17.641  0.00  0.00    +0.000 C 
BRANCH   9  10
ATOM     10  O   UNL     1       8.379   7.147  18.873  0.00  0.00    +0.000 OA
ATOM     11  H   UNL     1       8.601   8.085  18.994  0.00  0.00    +0.000 HD
ENDBRANCH   9  10
ENDBRANCH   1   9
BRANCH   3  12
ATOM     12  C   UNL     1       3.122   6.361  18.530  0.00  0.00    +0.000 C 
BRANCH  12  13
ATOM     13  C   UNL     1       3.091   7.654  17.724  0.00  0.00    +0.000 C 
BRANCH  13  14
ATOM     14  O   UNL     1       1.769   8.186  17.807  0.00  0.00    +0.000 OA
BRANCH  14  15
ATOM     15  C   UNL     1       1.790   9.563  18.176  0.00  0.00    +0.000 C 
BRANCH  15  16
ATOM     16  C   UNL     1       1.040   9.739  19.469  0.00  0.00    +0.000 A 
ATOM     17  C   UNL     1       0.200  10.843  19.666  0.00  0.00    +0.000 A 
ATOM     18  C   UNL     1      -0.518  10.981  20.856  0.00  0.00    +0.000 A 
ATOM     19  C   UNL     1      -0.405  10.017  21.857  0.00  0.00    +0.000 A 
ATOM     20  C   UNL     1       0.429   8.918  21.673  0.00  0.00    +0.000 A 
ATOM     21  C   UNL     1       1.146   8.778  20.484  0.00  0.00    +0.000 A 
ENDBRANCH  15  16
ENDBRANCH  14  15
ENDBRANCH  13  14
ENDBRANCH  12  13
ENDBRANCH   3  12
BRANCH   4  22
ATOM     22  O   UNL     1       3.294   3.506  16.865  0.00  0.00    +0.000 OA
BRANCH  22  23
ATOM     23  C   UNL     1       3.665   2.571  17.863  0.00  0.00    +0.000 C 
BRANCH  23  24
ATOM     24  C   UNL     1       2.858   2.691  19.122  0.00  0.00    +0.000 A 
ATOM     25  C   UNL     1       1.473   2.908  19.005  0.00  0.00    +0.000 A 
ATOM     26  C   UNL     1       0.672   3.001  20.138  0.00  0.00    +0.000 A 
ATOM     27  C   UNL     1       1.251   2.869  21.398  0.00  0.00    +0.000 A 
ATOM     28  C   UNL     1       2.620   2.636  21.521  0.00  0.00    +0.000 A 
ATOM     29  C   UNL     1       3.427   2.546  20.389  0.00  0.00    +0.000 A 
ENDBRANCH  23  24
ENDBRANCH  22  23
ENDBRANCH   4  22
TORSDOF 11
ENDMDL
MODEL 6
REMARK VINA RESULT:      -8.0      3.714      6.136
REMARK  Name = 
REMARK  11 active torsions:
REMARK  status: ('A' for Active; 'I' for Inactive)
REMARK    1  A    between atoms: O_1  and  C_2
REMARK    2  A    between atoms: C_2  and  C_3
REMARK    3  A    between atoms: C_5  and  C_6
REMARK    4  A    between atoms: C_6  and  C_7
REMARK    5  A    between atoms: C_7  and  O_8
REMARK    6  A    between atoms: O_8  and  C_9
REMARK    7  A    between atoms: C_9  and  C_10
REMARK    8  A    between atoms: C_16  and  O_17
REMARK    9  A    between atoms: O_17  and  C_18
REMARK   10  A    between atoms: C_18  and  C_19
REMARK   11  A    between atoms: C_26  and  O_27
REMARK                            x       y       z     vdW  Elec       q    Type
REMARK                         _______ _______ _______ _____ _____    ______ ____
ROOT
ATOM      1  C   UNL     1       6.196   6.174  17.710  0.00  0.00    +0.000 C 
ATOM      2  O   UNL     1       4.838   6.614  17.668  0.00  0.00    +0.000 OA
ATOM      3  C   UNL     1       3.858   5.576  17.832  0.00  0.00    +0.000 C 
ATOM      4  C   UNL     1       3.994   4.516  16.695  0.00  0.00    +0.000 C 
ATOM      5  C   UNL     1       5.457   4.041  16.617  0.00  0.00    +0.000 C 
ATOM      6  C   UNL     1       6.447   5.196  16.558  0.00  0.00    +0.000 C 
ENDROOT
BRANCH   6   7
ATOM      7  O   UNL     1       7.782   4.693  16.585  0.00  0.00    +0.000 OA
ATOM      8  H   UNL     1       8.219   5.020  17.391  0.00  0.00    +0.000 HD
ENDBRANCH   6   7
BRANCH   1   9
ATOM      9  C   UNL     1       7.087   7.418  17.572  0.00  0.00    +0.000 C 
BRANCH   9  10
ATOM     10  O   UNL     1       8.242   7.294  18.408  0.00  0.00    +0.000 OA
ATOM     11  H   UNL     1       9.013   7.287  17.816  0.00  0.00    +0.000 HD
ENDBRANCH   9  10
ENDBRANCH   1   9
BRANCH   3  12
ATOM     12  C   UNL     1       2.541   6.373  17.868  0.00  0.00    +0.000 C 
BRANCH  12  13
ATOM     13  C   UNL     1       2.790   7.824  18.265  0.00  0.00    +0.000 C 
BRANCH  13  14
ATOM     14  O   UNL     1       1.977   8.108  19.403  0.00  0.00    +0.000 OA
BRANCH  14  15
ATOM     15  C   UNL     1       1.232   9.310  19.217  0.00  0.00    +0.000 C 
BRANCH  15  16
ATOM     16  C   UNL     1       0.587   9.698  20.521  0.00  0.00    +0.000 A 
ATOM     17  C   UNL     1      -0.192  10.858  20.617  0.00  0.00    +0.000 A 
ATOM     18  C   UNL     1      -0.814  11.192  21.822  0.00  0.00    +0.000 A 
ATOM     19  C   UNL     1      -0.665  10.371  22.939  0.00  0.00    +0.000 A 
ATOM     20  C   UNL     1       0.110   9.217  22.854  0.00  0.00    +0.000 A 
ATOM     21  C   UNL     1       0.730   8.881  21.651  0.00  0.00    +0.000 A 
ENDBRANCH  15  16
ENDBRANCH  14  15
ENDBRANCH  13  14
ENDBRANCH  12  13
ENDBRANCH   3  12
BRANCH   4  22
ATOM     22  O   UNL     1       3.246   3.297  16.869  0.00  0.00    +0.000 OA
BRANCH  22  23
ATOM     23  C   UNL     1       3.668   2.505  17.966  0.00  0.00    +0.000 C 
BRANCH  23  24
ATOM     24  C   UNL     1       2.794   2.647  19.176  0.00  0.00    +0.000 A 
ATOM     25  C   UNL     1       3.389   2.520  20.444  0.00  0.00    +0.000 A 
ATOM     26  C   UNL     1       2.632   2.668  21.601  0.00  0.00    +0.000 A 
ATOM     27  C   UNL     1       1.272   2.953  21.496  0.00  0.00    +0.000 A 
ATOM     28  C   UNL     1       0.679   3.099  20.243  0.00  0.00    +0.000 A 
ATOM     29  C   UNL     1       1.433   2.947  19.081  0.00  0.00    +0.000 A 
ENDBRANCH  23  24
ENDBRANCH  22  23
ENDBRANCH   4  22
TORSDOF 11
ENDMDL
MODEL 7
REMARK VINA RESULT:      -8.0      3.984      5.912
REMARK  Name = 
REMARK  11 active torsions:
REMARK  status: ('A' for Active; 'I' for Inactive)
REMARK    1  A    between atoms: O_1  and  C_2
REMARK    2  A    between atoms: C_2  and  C_3
REMARK    3  A    between atoms: C_5  and  C_6
REMARK    4  A    between atoms: C_6  and  C_7
REMARK    5  A    between atoms: C_7  and  O_8
REMARK    6  A    between atoms: O_8  and  C_9
REMARK    7  A    between atoms: C_9  and  C_10
REMARK    8  A    between atoms: C_16  and  O_17
REMARK    9  A    between atoms: O_17  and  C_18
REMARK   10  A    between atoms: C_18  and  C_19
REMARK   11  A    between atoms: C_26  and  O_27
REMARK                            x       y       z     vdW  Elec       q    Type
REMARK                         _______ _______ _______ _____ _____    ______ ____
ROOT
ATOM      1  C   UNL     1       6.688   6.129  17.761  0.00  0.00    +0.000 C 
ATOM      2  O   UNL     1       5.408   6.761  17.746  0.00  0.00    +0.000 OA
ATOM      3  C   UNL     1       4.290   5.872  17.901  0.00  0.00    +0.000 C 
ATOM      4  C   UNL     1       4.260   4.829  16.741  0.00  0.00    +0.000 C 
ATOM      5  C   UNL     1       5.638   4.149  16.634  0.00  0.00    +0.000 C 
ATOM      6  C   UNL     1       6.785   5.150  16.587  0.00  0.00    +0.000 C 
ENDROOT
BRANCH   6   7
ATOM      7  O   UNL     1       8.032   4.460  16.587  0.00  0.00    +0.000 OA
ATOM      8  H   UNL     1       8.653   4.943  16.014  0.00  0.00    +0.000 HD
ENDBRANCH   6   7
BRANCH   1   9
ATOM      9  C   UNL     1       7.749   7.234  17.638  0.00  0.00    +0.000 C 
BRANCH   9  10
ATOM     10  O   UNL     1       8.459   7.378  18.872  0.00  0.00    +0.000 OA
ATOM     11  H   UNL     1       9.383   7.567  18.639  0.00  0.00    +0.000 HD
ENDBRANCH   9  10
ENDBRANCH   1   9
BRANCH   3  12
ATOM     12  C   UNL     1       3.102   6.851  17.969  0.00  0.00    +0.000 C 
BRANCH  12  13
ATOM     13  C   UNL     1       2.596   6.999  19.399  0.00  0.00    +0.000 C 
BRANCH  13  14
ATOM     14  O   UNL     1       1.805   8.185  19.459  0.00  0.00    +0.000 OA
BRANCH  14  15
ATOM     15  C   UNL     1       1.703   8.803  18.178  0.00  0.00    +0.000 C 
BRANCH  15  16
ATOM     16  C   UNL     1       0.789   9.995  18.276  0.00  0.00    +0.000 A 
ATOM     17  C   UNL     1      -0.556   9.900  17.894  0.00  0.00    +0.000 A 
ATOM     18  C   UNL     1      -1.406  11.001  18.020  0.00  0.00    +0.000 A 
ATOM     19  C   UNL     1      -0.920  12.205  18.530  0.00  0.00    +0.000 A 
ATOM     20  C   UNL     1       0.415  12.310  18.909  0.00  0.00    +0.000 A 
ATOM     21  C   UNL     1       1.264  11.211  18.786  0.00  0.00    +0.000 A 
ENDBRANCH  15  16
ENDBRANCH  14  15
ENDBRANCH  13  14
ENDBRANCH  12  13
ENDBRANCH   3  12
BRANCH   4  22
ATOM     22  O   UNL     1       3.345   3.728  16.899  0.00  0.00    +0.000 OA
BRANCH  22  23
ATOM     23  C   UNL     1       3.742   2.775  17.870  0.00  0.00    +0.000 C 
BRANCH  23  24
ATOM     24  C   UNL     1       2.937   2.839  19.133  0.00  0.00    +0.000 A 
ATOM     25  C   UNL     1       1.569   3.153  19.035  0.00  0.00    +0.000 A 
ATOM     26  C   UNL     1       0.769   3.201  20.171  0.00  0.00    +0.000 A 
ATOM     27  C   UNL     1       1.331   2.926  21.416  0.00  0.00    +0.000 A 
ATOM     28  C   UNL     1       2.682   2.595  21.519  0.00  0.00    +0.000 A 
ATOM     29  C   UNL     1       3.488   2.550  20.385  0.00  0.00    +0.000 A 
ENDBRANCH  23  24
ENDBRANCH  22  23
ENDBRANCH   4  22
TORSDOF 11
ENDMDL
MODEL 8
REMARK VINA RESULT:      -8.0      4.275      7.787
REMARK  Name = 
REMARK  11 active torsions:
REMARK  status: ('A' for Active; 'I' for Inactive)
REMARK    1  A    between atoms: O_1  and  C_2
REMARK    2  A    between atoms: C_2  and  C_3
REMARK    3  A    between atoms: C_5  and  C_6
REMARK    4  A    between atoms: C_6  and  C_7
REMARK    5  A    between atoms: C_7  and  O_8
REMARK    6  A    between atoms: O_8  and  C_9
REMARK    7  A    between atoms: C_9  and  C_10
REMARK    8  A    between atoms: C_16  and  O_17
REMARK    9  A    between atoms: O_17  and  C_18
REMARK   10  A    between atoms: C_18  and  C_19
REMARK   11  A    between atoms: C_26  and  O_27
REMARK                            x       y       z     vdW  Elec       q    Type
REMARK                         _______ _______ _______ _____ _____    ______ ____
ROOT
ATOM      1  C   UNL     1       1.563   3.855  18.995  0.00  0.00    +0.000 C 
ATOM      2  O   UNL     1       2.236   5.114  18.964  0.00  0.00    +0.000 OA
ATOM      3  C   UNL     1       2.943   5.395  17.745  0.00  0.00    +0.000 C 
ATOM      4  C   UNL     1       4.047   4.320  17.498  0.00  0.00    +0.000 C 
ATOM      5  C   UNL     1       3.419   2.917  17.592  0.00  0.00    +0.000 C 
ATOM      6  C   UNL     1       2.591   2.728  18.857  0.00  0.00    +0.000 C 
ENDROOT
BRANCH   6   7
ATOM      7  O   UNL     1       1.960   1.449  18.837  0.00  0.00    +0.000 OA
ATOM      8  H   UNL     1       1.064   1.541  19.207  0.00  0.00    +0.000 HD
ENDBRANCH   6   7
BRANCH   1   9
ATOM      9  C   UNL     1       0.828   3.760  20.341  0.00  0.00    +0.000 C 
BRANCH   9  10
ATOM     10  O   UNL     1       1.583   2.967  21.262  0.00  0.00    +0.000 OA
ATOM     11  H   UNL     1       2.087   2.328  20.729  0.00  0.00    +0.000 HD
ENDBRANCH   9  10
ENDBRANCH   1   9
BRANCH   3  12
ATOM     12  C   UNL     1       3.434   6.836  17.977  0.00  0.00    +0.000 C 
BRANCH  12  13
ATOM     13  C   UNL     1       2.384   7.660  18.712  0.00  0.00    +0.000 C 
BRANCH  13  14
ATOM     14  O   UNL     1       1.804   8.565  17.771  0.00  0.00    +0.000 OA
BRANCH  14  15
ATOM     15  C   UNL     1       1.781   9.896  18.282  0.00  0.00    +0.000 C 
BRANCH  15  16
ATOM     16  C   UNL     1       0.354  10.365  18.370  0.00  0.00    +0.000 A 
ATOM     17  C   UNL     1      -0.660   9.716  17.652  0.00  0.00    +0.000 A 
ATOM     18  C   UNL     1      -1.986  10.137  17.765  0.00  0.00    +0.000 A 
ATOM     19  C   UNL     1      -2.313  11.207  18.597  0.00  0.00    +0.000 A 
ATOM     20  C   UNL     1      -1.313  11.860  19.313  0.00  0.00    +0.000 A 
ATOM     21  C   UNL     1       0.013  11.440  19.203  0.00  0.00    +0.000 A 
ENDBRANCH  15  16
ENDBRANCH  14  15
ENDBRANCH  13  14
ENDBRANCH  12  13
ENDBRANCH   3  12
BRANCH   4  22
ATOM     22  O   UNL     1       4.666   4.332  16.197  0.00  0.00    +0.000 OA
BRANCH  22  23
ATOM     23  C   UNL     1       6.070   4.148  16.217  0.00  0.00    +0.000 C 
BRANCH  23  24
ATOM     24  C   UNL     1       6.792   5.150  17.069  0.00  0.00    +0.000 A 
ATOM     25  C   UNL     1       6.880   6.475  16.606  0.00  0.00    +0.000 A 
ATOM     26  C   UNL     1       7.514   7.451  17.366  0.00  0.00    +0.000 A 
ATOM     27  C   UNL     1       8.058   7.108  18.602  0.00  0.00    +0.000 A 
ATOM     28  C   UNL     1       7.958   5.801  19.076  0.00  0.00    +0.000 A 
ATOM     29  C   UNL     1       7.328   4.819  18.316  0.00  0.00    +0.000 A 
ENDBRANCH  23  24
ENDBRANCH  22  23
ENDBRANCH   4  22
TORSDOF 11
ENDMDL
MODEL 9
REMARK VINA RESULT:      -7.9      1.059      1.367
REMARK  Name = 
REMARK  11 active torsions:
REMARK  status: ('A' for Active; 'I' for Inactive)
REMARK    1  A    between atoms: O_1  and  C_2
REMARK    2  A    between atoms: C_2  and  C_3
REMARK    3  A    between atoms: C_5  and  C_6
REMARK    4  A    between atoms: C_6  and  C_7
REMARK    5  A    between atoms: C_7  and  O_8
REMARK    6  A    between atoms: O_8  and  C_9
REMARK    7  A    between atoms: C_9  and  C_10
REMARK    8  A    between atoms: C_16  and  O_17
REMARK    9  A    between atoms: O_17  and  C_18
REMARK   10  A    between atoms: C_18  and  C_19
REMARK   11  A    between atoms: C_26  and  O_27
REMARK                            x       y       z     vdW  Elec       q    Type
REMARK                         _______ _______ _______ _____ _____    ______ ____
ROOT
ATOM      1  C   UNL     1       6.716   4.622  15.626  0.00  0.00    +0.000 C 
ATOM      2  O   UNL     1       7.360   5.546  16.502  0.00  0.00    +0.000 OA
ATOM      3  C   UNL     1       6.905   5.511  17.864  0.00  0.00    +0.000 C 
ATOM      4  C   UNL     1       5.384   5.851  17.937  0.00  0.00    +0.000 C 
ATOM      5  C   UNL     1       4.614   4.945  16.957  0.00  0.00    +0.000 C 
ATOM      6  C   UNL     1       5.219   4.946  15.559  0.00  0.00    +0.000 C 
ENDROOT
BRANCH   6   7
ATOM      7  O   UNL     1       4.524   4.018  14.729  0.00  0.00    +0.000 OA
ATOM      8  H   UNL     1       4.913   4.049  13.837  0.00  0.00    +0.000 HD
ENDBRANCH   6   7
BRANCH   1   9
ATOM      9  C   UNL     1       7.366   4.769  14.242  0.00  0.00    +0.000 C 
BRANCH   9  10
ATOM     10  O   UNL     1       6.842   3.789  13.342  0.00  0.00    +0.000 OA
ATOM     11  H   UNL     1       6.068   4.192  12.913  0.00  0.00    +0.000 HD
ENDBRANCH   9  10
ENDBRANCH   1   9
BRANCH   3  12
ATOM     12  C   UNL     1       7.859   6.504  18.553  0.00  0.00    +0.000 C 
BRANCH  12  13
ATOM     13  C   UNL     1       7.855   7.851  17.839  0.00  0.00    +0.000 C 
BRANCH  13  14
ATOM     14  O   UNL     1       8.739   8.721  18.548  0.00  0.00    +0.000 OA
BRANCH  14  15
ATOM     15  C   UNL     1       8.507  10.084  18.202  0.00  0.00    +0.000 C 
BRANCH  15  16
ATOM     16  C   UNL     1       9.628  10.929  18.745  0.00  0.00    +0.000 A 
ATOM     17  C   UNL     1       9.742  11.169  20.121  0.00  0.00    +0.000 A 
ATOM     18  C   UNL     1      10.804  11.926  20.620  0.00  0.00    +0.000 A 
ATOM     19  C   UNL     1      11.762  12.446  19.751  0.00  0.00    +0.000 A 
ATOM     20  C   UNL     1      11.657  12.215  18.383  0.00  0.00    +0.000 A 
ATOM     21  C   UNL     1      10.598  11.458  17.882  0.00  0.00    +0.000 A 
ENDBRANCH  15  16
ENDBRANCH  14  15
ENDBRANCH  13  14
ENDBRANCH  12  13
ENDBRANCH   3  12
BRANCH   4  22
ATOM     22  O   UNL     1       4.739   5.611  19.203  0.00  0.00    +0.000 OA
BRANCH  22  23
ATOM     23  C   UNL     1       3.347   5.876  19.209  0.00  0.00    +0.000 C 
BRANCH  23  24
ATOM     24  C   UNL     1       2.525   4.734  19.728  0.00  0.00    +0.000 A 
ATOM     25  C   UNL     1       2.621   4.412  21.094  0.00  0.00    +0.000 A 
ATOM     26  C   UNL     1       1.862   3.380  21.635  0.00  0.00    +0.000 A 
ATOM     27  C   UNL     1       0.994   2.666  20.811  0.00  0.00    +0.000 A 
ATOM     28  C   UNL     1       0.879   2.992  19.461  0.00  0.00    +0.000 A 
ATOM     29  C   UNL     1       1.641   4.021  18.914  0.00  0.00    +0.000 A 
ENDBRANCH  23  24
ENDBRANCH  22  23
ENDBRANCH   4  22
TORSDOF 11
ENDMDL
