MODEL 1
REMARK VINA RESULT:      -7.7      0.000      0.000
REMARK  Name = 
REMARK  4 active torsions:
REMARK  status: ('A' for Active; 'I' for Inactive)
REMARK    1  A    between atoms: C_1  and  C_2
REMARK    2  A    between atoms: N_4  and  C_5
REMARK    3  A    between atoms: C_10  and  C_11
REMARK    4  A    between atoms: N_13  and  C_14
REMARK                            x       y       z     vdW  Elec       q    Type
REMARK                         _______ _______ _______ _____ _____    ______ ____
ROOT
ATOM      1  C   UNL     1      -0.930  11.433  22.556  0.00  0.00    +0.000 A 
ATOM      2  C   UNL     1      -0.602  10.281  23.263  0.00  0.00    +0.000 A 
ATOM      3  C   UNL     1       0.045   9.207  22.637  0.00  0.00    +0.000 A 
ATOM      4  C   UNL     1       0.404   9.288  21.273  0.00  0.00    +0.000 A 
ATOM      5  C   UNL     1       1.193   8.408  20.463  0.00  0.00    +0.000 A 
ATOM      6  C   UNL     1       1.405   8.882  19.182  0.00  0.00    +0.000 A 
ATOM      7  S   UNL     1       0.493  10.301  18.906  0.00  0.00    +0.000 S 
ATOM      8  C   UNL     1      -0.004  10.412  20.554  0.00  0.00    +0.000 A 
ATOM      9  C   UNL     1      -0.701  11.475  21.173  0.00  0.00    +0.000 A 
ENDROOT
BRANCH   1  13
ATOM     10  C   UNL     1      -3.013  14.129  24.191  0.00  0.00    +0.000 C 
ATOM     11  C   UNL     1      -2.787  12.794  23.526  0.00  0.00    +0.000 C 
ATOM     12  O   UNL     1      -3.720  12.019  23.357  0.00  0.00    +0.000 OA
ATOM     13  N   UNL     1      -1.461  12.591  23.172  0.00  0.00    +0.000 N 
ATOM     14  H   UNL     1      -0.790  13.265  23.515  0.00  0.00    +0.000 HD
ENDBRANCH   1  13
BRANCH   6  15
ATOM     15  C   UNL     1       2.304   8.306  18.176  0.00  0.00    +0.000 C 
ATOM     16  O   UNL     1       2.528   8.854  17.100  0.00  0.00    +0.000 OA
ATOM     17  N   UNL     1       2.865   7.088  18.503  0.00  0.00    +0.000 N 
ATOM     18  H   UNL     1       2.578   6.666  19.376  0.00  0.00    +0.000 HD
BRANCH  17  19
ATOM     19  C   UNL     1       3.640   6.287  17.561  0.00  0.00    +0.000 C 
ATOM     20  C   UNL     1       5.128   6.732  17.526  0.00  0.00    +0.000 C 
ATOM     21  N   UNL     1       6.059   5.636  17.895  0.00  0.00    +0.000 NA
ATOM     22  C   UNL     1       5.701   5.137  19.240  0.00  0.00    +0.000 C 
ATOM     23  C   UNL     1       4.279   4.554  19.277  0.00  0.00    +0.000 C 
ATOM     24  C   UNL     1       3.598   4.779  17.916  0.00  0.00    +0.000 C 
ATOM     25  C   UNL     1       4.448   4.023  16.873  0.00  0.00    +0.000 C 
ATOM     26  C   UNL     1       5.897   4.535  16.919  0.00  0.00    +0.000 C 
ENDBRANCH  17  19
ENDBRANCH   6  15
TORSDOF 3
ENDMDL
MODEL 2
REMARK VINA RESULT:      -7.7      1.716      2.115
REMARK  Name = 
REMARK  4 active torsions:
REMARK  status: ('A' for Active; 'I' for Inactive)
REMARK    1  A    between atoms: C_1  and  C_2
REMARK    2  A    between atoms: N_4  and  C_5
REMARK    3  A    between atoms: C_10  and  C_11
REMARK    4  A    between atoms: N_13  and  C_14
REMARK                            x       y       z     vdW  Elec       q    Type
REMARK                         _______ _______ _______ _____ _____    ______ ____
ROOT
ATOM      1  C   UNL     1      -0.646  11.705  22.278  0.00  0.00    +0.000 A 
ATOM      2  C   UNL     1      -0.730  10.641  23.170  0.00  0.00    +0.000 A 
ATOM      3  C   UNL     1      -0.268   9.366  22.821  0.00  0.00    +0.000 A 
ATOM      4  C   UNL     1       0.323   9.143  21.557  0.00  0.00    +0.000 A 
ATOM      5  C   UNL     1       0.998   7.992  21.034  0.00  0.00    +0.000 A 
ATOM      6  C   UNL     1       1.530   8.193  19.774  0.00  0.00    +0.000 A 
ATOM      7  S   UNL     1       1.049   9.710  19.152  0.00  0.00    +0.000 S 
ATOM      8  C   UNL     1       0.326  10.194  20.640  0.00  0.00    +0.000 A 
ATOM      9  C   UNL     1      -0.186  11.470  20.974  0.00  0.00    +0.000 A 
ENDROOT
BRANCH   1  13
ATOM     10  C   UNL     1      -2.254  14.995  23.214  0.00  0.00    +0.000 C 
ATOM     11  C   UNL     1      -2.255  13.540  22.814  0.00  0.00    +0.000 C 
ATOM     12  O   UNL     1      -3.310  12.931  22.692  0.00  0.00    +0.000 OA
ATOM     13  N   UNL     1      -0.975  13.036  22.631  0.00  0.00    +0.000 N 
ATOM     14  H   UNL     1      -0.208  13.628  22.915  0.00  0.00    +0.000 HD
ENDBRANCH   1  13
BRANCH   6  15
ATOM     15  C   UNL     1       2.417   7.280  19.046  0.00  0.00    +0.000 C 
ATOM     16  O   UNL     1       3.179   7.663  18.163  0.00  0.00    +0.000 OA
ATOM     17  N   UNL     1       2.323   5.948  19.397  0.00  0.00    +0.000 N 
ATOM     18  H   UNL     1       1.623   5.698  20.083  0.00  0.00    +0.000 HD
BRANCH  17  19
ATOM     19  C   UNL     1       2.996   4.879  18.666  0.00  0.00    +0.000 C 
ATOM     20  C   UNL     1       3.819   3.968  19.618  0.00  0.00    +0.000 C 
ATOM     21  N   UNL     1       3.378   2.552  19.571  0.00  0.00    +0.000 NA
ATOM     22  C   UNL     1       1.940   2.486  19.909  0.00  0.00    +0.000 C 
ATOM     23  C   UNL     1       1.077   3.260  18.900  0.00  0.00    +0.000 C 
ATOM     24  C   UNL     1       1.990   3.985  17.896  0.00  0.00    +0.000 C 
ATOM     25  C   UNL     1       2.793   2.888  17.166  0.00  0.00    +0.000 C 
ATOM     26  C   UNL     1       3.568   2.046  18.194  0.00  0.00    +0.000 C 
ENDBRANCH  17  19
ENDBRANCH   6  15
TORSDOF 3
ENDMDL
MODEL 3
REMARK VINA RESULT:      -7.7      1.820      2.118
REMARK  Name = 
REMARK  4 active torsions:
REMARK  status: ('A' for Active; 'I' for Inactive)
REMARK    1  A    between atoms: C_1  and  C_2
REMARK    2  A    between atoms: N_4  and  C_5
REMARK    3  A    between atoms: C_10  and  C_11
REMARK    4  A    between atoms: N_13  and  C_14
REMARK                            x       y       z     vdW  Elec       q    Type
REMARK                         _______ _______ _______ _____ _____    ______ ____
ROOT
ATOM      1  C   UNL     1      -1.107  11.854  22.346  0.00  0.00    +0.000 A 
ATOM      2  C   UNL     1      -1.030  10.796  23.246  0.00  0.00    +0.000 A 
ATOM      3  C   UNL     1      -0.450   9.575  22.878  0.00  0.00    +0.000 A 
ATOM      4  C   UNL     1       0.096   9.405  21.587  0.00  0.00    +0.000 A 
ATOM      5  C   UNL     1       0.866   8.329  21.034  0.00  0.00    +0.000 A 
ATOM      6  C   UNL     1       1.308   8.575  19.747  0.00  0.00    +0.000 A 
ATOM      7  S   UNL     1       0.633  10.024  19.145  0.00  0.00    +0.000 S 
ATOM      8  C   UNL     1      -0.061  10.442  20.666  0.00  0.00    +0.000 A 
ATOM      9  C   UNL     1      -0.691  11.657  21.021  0.00  0.00    +0.000 A 
ENDROOT
BRANCH   1  13
ATOM     10  C   UNL     1      -1.574  15.498  23.235  0.00  0.00    +0.000 C 
ATOM     11  C   UNL     1      -0.771  14.274  22.870  0.00  0.00    +0.000 C 
ATOM     12  O   UNL     1       0.445  14.346  22.738  0.00  0.00    +0.000 OA
ATOM     13  N   UNL     1      -1.561  13.145  22.710  0.00  0.00    +0.000 N 
ATOM     14  H   UNL     1      -2.561  13.286  22.708  0.00  0.00    +0.000 HD
ENDBRANCH   1  13
BRANCH   6  15
ATOM     15  C   UNL     1       2.251   7.756  18.978  0.00  0.00    +0.000 C 
ATOM     16  O   UNL     1       2.910   8.207  18.045  0.00  0.00    +0.000 OA
ATOM     17  N   UNL     1       2.333   6.429  19.351  0.00  0.00    +0.000 N 
ATOM     18  H   UNL     1       1.709   6.114  20.081  0.00  0.00    +0.000 HD
BRANCH  17  19
ATOM     19  C   UNL     1       3.082   5.431  18.594  0.00  0.00    +0.000 C 
ATOM     20  C   UNL     1       4.011   4.595  19.517  0.00  0.00    +0.000 C 
ATOM     21  N   UNL     1       3.702   3.144  19.470  0.00  0.00    +0.000 NA
ATOM     22  C   UNL     1       2.285   2.944  19.846  0.00  0.00    +0.000 C 
ATOM     23  C   UNL     1       1.328   3.641  18.866  0.00  0.00    +0.000 C 
ATOM     24  C   UNL     1       2.143   4.452  17.844  0.00  0.00    +0.000 C 
ATOM     25  C   UNL     1       3.023   3.438  17.084  0.00  0.00    +0.000 C 
ATOM     26  C   UNL     1       3.900   2.666  18.084  0.00  0.00    +0.000 C 
ENDBRANCH  17  19
ENDBRANCH   6  15
TORSDOF 3
ENDMDL
MODEL 4
REMARK VINA RESULT:      -7.7      1.878      2.471
REMARK  Name = 
REMARK  4 active torsions:
REMARK  status: ('A' for Active; 'I' for Inactive)
REMARK    1  A    between atoms: C_1  and  C_2
REMARK    2  A    between atoms: N_4  and  C_5
REMARK    3  A    between atoms: C_10  and  C_11
REMARK    4  A    between atoms: N_13  and  C_14
REMARK                            x       y       z     vdW  Elec       q    Type
REMARK                         _______ _______ _______ _____ _____    ______ ____
ROOT
ATOM      1  C   UNL     1      -1.320  11.774  22.383  0.00  0.00    +0.000 A 
ATOM      2  C   UNL     1      -1.209  12.491  21.196  0.00  0.00    +0.000 A 
ATOM      3  C   UNL     1      -0.410  12.027  20.144  0.00  0.00    +0.000 A 
ATOM      4  C   UNL     1       0.279  10.799  20.258  0.00  0.00    +0.000 A 
ATOM      5  C   UNL     1       1.017  10.049  19.285  0.00  0.00    +0.000 A 
ATOM      6  C   UNL     1       1.470   8.832  19.757  0.00  0.00    +0.000 A 
ATOM      7  S   UNL     1       1.162   8.683  21.431  0.00  0.00    +0.000 S 
ATOM      8  C   UNL     1       0.227  10.131  21.482  0.00  0.00    +0.000 A 
ATOM      9  C   UNL     1      -0.539  10.624  22.564  0.00  0.00    +0.000 A 
ENDROOT
BRANCH   1  13
ATOM     10  C   UNL     1      -4.244  12.700  24.592  0.00  0.00    +0.000 C 
ATOM     11  C   UNL     1      -3.576  12.364  23.282  0.00  0.00    +0.000 C 
ATOM     12  O   UNL     1      -4.230  12.312  22.247  0.00  0.00    +0.000 OA
ATOM     13  N   UNL     1      -2.215  12.133  23.420  0.00  0.00    +0.000 N 
ATOM     14  H   UNL     1      -1.858  12.070  24.363  0.00  0.00    +0.000 HD
ENDBRANCH   1  13
BRANCH   6  15
ATOM     15  C   UNL     1       2.100   7.769  18.967  0.00  0.00    +0.000 C 
ATOM     16  O   UNL     1       2.485   7.943  17.814  0.00  0.00    +0.000 OA
ATOM     17  N   UNL     1       2.212   6.544  19.594  0.00  0.00    +0.000 N 
ATOM     18  H   UNL     1       1.809   6.458  20.517  0.00  0.00    +0.000 HD
BRANCH  17  19
ATOM     19  C   UNL     1       2.650   5.332  18.908  0.00  0.00    +0.000 C 
ATOM     20  C   UNL     1       3.808   4.634  19.671  0.00  0.00    +0.000 C 
ATOM     21  N   UNL     1       3.466   3.247  20.076  0.00  0.00    +0.000 NA
ATOM     22  C   UNL     1       2.244   3.279  20.908  0.00  0.00    +0.000 C 
ATOM     23  C   UNL     1       1.037   3.833  20.135  0.00  0.00    +0.000 C 
ATOM     24  C   UNL     1       1.495   4.312  18.746  0.00  0.00    +0.000 C 
ATOM     25  C   UNL     1       2.057   3.071  18.021  0.00  0.00    +0.000 C 
ATOM     26  C   UNL     1       3.193   2.456  18.857  0.00  0.00    +0.000 C 
ENDBRANCH  17  19
ENDBRANCH   6  15
TORSDOF 3
ENDMDL
MODEL 5
REMARK VINA RESULT:      -7.7      2.090      2.721
REMARK  Name = 
REMARK  4 active torsions:
REMARK  status: ('A' for Active; 'I' for Inactive)
REMARK    1  A    between atoms: C_1  and  C_2
REMARK    2  A    between atoms: N_4  and  C_5
REMARK    3  A    between atoms: C_10  and  C_11
REMARK    4  A    between atoms: N_13  and  C_14
REMARK                            x       y       z     vdW  Elec       q    Type
REMARK                         _______ _______ _______ _____ _____    ______ ____
ROOT
ATOM      1  C   UNL     1      -1.071  11.518  21.111  0.00  0.00    +0.000 A 
ATOM      2  C   UNL     1      -0.847  12.079  19.858  0.00  0.00    +0.000 A 
ATOM      3  C   UNL     1       0.042  11.490  18.950  0.00  0.00    +0.000 A 
ATOM      4  C   UNL     1       0.710  10.291  19.282  0.00  0.00    +0.000 A 
ATOM      5  C   UNL     1       1.530   9.428  18.483  0.00  0.00    +0.000 A 
ATOM      6  C   UNL     1       1.930   8.282  19.145  0.00  0.00    +0.000 A 
ATOM      7  S   UNL     1       1.469   8.345  20.789  0.00  0.00    +0.000 S 
ATOM      8  C   UNL     1       0.543   9.782  20.570  0.00  0.00    +0.000 A 
ATOM      9  C   UNL     1      -0.316  10.404  21.506  0.00  0.00    +0.000 A 
ENDROOT
BRANCH   1  13
ATOM     10  C   UNL     1      -3.105  13.190  23.821  0.00  0.00    +0.000 C 
ATOM     11  C   UNL     1      -1.835  12.847  23.084  0.00  0.00    +0.000 C 
ATOM     12  O   UNL     1      -0.761  13.310  23.449  0.00  0.00    +0.000 OA
ATOM     13  N   UNL     1      -2.054  12.000  22.008  0.00  0.00    +0.000 N 
ATOM     14  H   UNL     1      -3.017  11.829  21.752  0.00  0.00    +0.000 HD
ENDBRANCH   1  13
BRANCH   6  15
ATOM     15  C   UNL     1       2.624   7.132  18.556  0.00  0.00    +0.000 C 
ATOM     16  O   UNL     1       3.411   7.243  17.621  0.00  0.00    +0.000 OA
ATOM     17  N   UNL     1       2.315   5.903  19.105  0.00  0.00    +0.000 N 
ATOM     18  H   UNL     1       1.605   5.883  19.824  0.00  0.00    +0.000 HD
BRANCH  17  19
ATOM     19  C   UNL     1       2.771   4.637  18.538  0.00  0.00    +0.000 C 
ATOM     20  C   UNL     1       3.919   4.018  19.381  0.00  0.00    +0.000 C 
ATOM     21  N   UNL     1       3.576   2.670  19.903  0.00  0.00    +0.000 NA
ATOM     22  C   UNL     1       2.340   2.769  20.707  0.00  0.00    +0.000 C 
ATOM     23  C   UNL     1       1.144   3.244  19.866  0.00  0.00    +0.000 C 
ATOM     24  C   UNL     1       1.624   3.599  18.448  0.00  0.00    +0.000 C 
ATOM     25  C   UNL     1       2.205   2.302  17.847  0.00  0.00    +0.000 C 
ATOM     26  C   UNL     1       3.329   1.771  18.755  0.00  0.00    +0.000 C 
ENDBRANCH  17  19
ENDBRANCH   6  15
TORSDOF 3
ENDMDL
MODEL 6
REMARK VINA RESULT:      -7.4      2.638      3.014
REMARK  Name = 
REMARK  4 active torsions:
REMARK  status: ('A' for Active; 'I' for Inactive)
REMARK    1  A    between atoms: C_1  and  C_2
REMARK    2  A    between atoms: N_4  and  C_5
REMARK    3  A    between atoms: C_10  and  C_11
REMARK    4  A    between atoms: N_13  and  C_14
REMARK                            x       y       z     vdW  Elec       q    Type
REMARK                         _______ _______ _______ _____ _____    ______ ____
ROOT
ATOM      1  C   UNL     1       0.155  12.394  20.914  0.00  0.00    +0.000 A 
ATOM      2  C   UNL     1      -0.113  11.499  21.945  0.00  0.00    +0.000 A 
ATOM      3  C   UNL     1       0.174  10.134  21.809  0.00  0.00    +0.000 A 
ATOM      4  C   UNL     1       0.770   9.644  20.627  0.00  0.00    +0.000 A 
ATOM      5  C   UNL     1       1.292   8.346  20.314  0.00  0.00    +0.000 A 
ATOM      6  C   UNL     1       1.891   8.280  19.070  0.00  0.00    +0.000 A 
ATOM      7  S   UNL     1       1.654   9.737  18.209  0.00  0.00    +0.000 S 
ATOM      8  C   UNL     1       0.957  10.535  19.569  0.00  0.00    +0.000 A 
ATOM      9  C   UNL     1       0.622  11.904  19.686  0.00  0.00    +0.000 A 
ENDROOT
BRANCH   1  13
ATOM     10  C   UNL     1       0.476  16.100  21.580  0.00  0.00    +0.000 C 
ATOM     11  C   UNL     1       0.933  14.663  21.615  0.00  0.00    +0.000 C 
ATOM     12  O   UNL     1       2.020  14.369  22.096  0.00  0.00    +0.000 OA
ATOM     13  N   UNL     1       0.008  13.795  21.052  0.00  0.00    +0.000 N 
ATOM     14  H   UNL     1      -0.773  14.215  20.567  0.00  0.00    +0.000 HD
ENDBRANCH   1  13
BRANCH   6  15
ATOM     15  C   UNL     1       2.663   7.155  18.532  0.00  0.00    +0.000 C 
ATOM     16  O   UNL     1       3.508   7.294  17.652  0.00  0.00    +0.000 OA
ATOM     17  N   UNL     1       2.360   5.916  19.060  0.00  0.00    +0.000 N 
ATOM     18  H   UNL     1       1.604   5.870  19.729  0.00  0.00    +0.000 HD
BRANCH  17  19
ATOM     19  C   UNL     1       2.897   4.667  18.527  0.00  0.00    +0.000 C 
ATOM     20  C   UNL     1       3.866   3.989  19.535  0.00  0.00    +0.000 C 
ATOM     21  N   UNL     1       3.419   2.628  19.924  0.00  0.00    +0.000 NA
ATOM     22  C   UNL     1       2.057   2.716  20.494  0.00  0.00    +0.000 C 
ATOM     23  C   UNL     1       1.040   3.250  19.474  0.00  0.00    +0.000 C 
ATOM     24  C   UNL     1       1.774   3.656  18.184  0.00  0.00    +0.000 C 
ATOM     25  C   UNL     1       2.440   2.375  17.639  0.00  0.00    +0.000 C 
ATOM     26  C   UNL     1       3.374   1.784  18.709  0.00  0.00    +0.000 C 
ENDBRANCH  17  19
ENDBRANCH   6  15
TORSDOF 3
ENDMDL
MODEL 7
REMARK VINA RESULT:      -7.4      1.094      1.094
REMARK  Name = 
REMARK  4 active torsions:
REMARK  status: ('A' for Active; 'I' for Inactive)
REMARK    1  A    between atoms: C_1  and  C_2
REMARK    2  A    between atoms: N_4  and  C_5
REMARK    3  A    between atoms: C_10  and  C_11
REMARK    4  A    between atoms: N_13  and  C_14
REMARK                            x       y       z     vdW  Elec       q    Type
REMARK                         _______ _______ _______ _____ _____    ______ ____
ROOT
ATOM      1  C   UNL     1      -0.896  10.942  22.405  0.00  0.00    +0.000 A 
ATOM      2  C   UNL     1      -0.367   9.891  23.148  0.00  0.00    +0.000 A 
ATOM      3  C   UNL     1       0.421   8.903  22.543  0.00  0.00    +0.000 A 
ATOM      4  C   UNL     1       0.719   8.972  21.164  0.00  0.00    +0.000 A 
ATOM      5  C   UNL     1       1.611   8.188  20.362  0.00  0.00    +0.000 A 
ATOM      6  C   UNL     1       1.704   8.627  19.055  0.00  0.00    +0.000 A 
ATOM      7  S   UNL     1       0.570   9.869  18.754  0.00  0.00    +0.000 S 
ATOM      8  C   UNL     1       0.115   9.982  20.413  0.00  0.00    +0.000 A 
ATOM      9  C   UNL     1      -0.722  10.952  21.013  0.00  0.00    +0.000 A 
ENDROOT
BRANCH   1  13
ATOM     10  C   UNL     1      -2.104  14.255  23.763  0.00  0.00    +0.000 C 
ATOM     11  C   UNL     1      -1.106  13.329  23.114  0.00  0.00    +0.000 C 
ATOM     12  O   UNL     1      -0.014  13.748  22.753  0.00  0.00    +0.000 OA
ATOM     13  N   UNL     1      -1.584  12.031  22.991  0.00  0.00    +0.000 N 
ATOM     14  H   UNL     1      -2.561  11.884  23.203  0.00  0.00    +0.000 HD
ENDBRANCH   1  13
BRANCH   6  15
ATOM     15  C   UNL     1       2.649   8.150  18.040  0.00  0.00    +0.000 C 
ATOM     16  O   UNL     1       2.817   8.729  16.970  0.00  0.00    +0.000 OA
ATOM     17  N   UNL     1       3.324   6.986  18.351  0.00  0.00    +0.000 N 
ATOM     18  H   UNL     1       3.081   6.529  19.219  0.00  0.00    +0.000 HD
BRANCH  17  19
ATOM     19  C   UNL     1       4.168   6.273  17.397  0.00  0.00    +0.000 C 
ATOM     20  C   UNL     1       5.660   6.297  17.830  0.00  0.00    +0.000 C 
ATOM     21  N   UNL     1       6.216   4.935  18.028  0.00  0.00    +0.000 NA
ATOM     22  C   UNL     1       5.397   4.225  19.035  0.00  0.00    +0.000 C 
ATOM     23  C   UNL     1       3.941   4.056  18.574  0.00  0.00    +0.000 C 
ATOM     24  C   UNL     1       3.737   4.793  17.239  0.00  0.00    +0.000 C 
ATOM     25  C   UNL     1       4.688   4.128  16.223  0.00  0.00    +0.000 C 
ATOM     26  C   UNL     1       6.134   4.203  16.745  0.00  0.00    +0.000 C 
ENDBRANCH  17  19
ENDBRANCH   6  15
TORSDOF 3
ENDMDL
MODEL 8
REMARK VINA RESULT:      -7.3      2.669      9.458
REMARK  Name = 
REMARK  4 active torsions:
REMARK  status: ('A' for Active; 'I' for Inactive)
REMARK    1  A    between atoms: C_1  and  C_2
REMARK    2  A    between atoms: N_4  and  C_5
REMARK    3  A    between atoms: C_10  and  C_11
REMARK    4  A    between atoms: N_13  and  C_14
REMARK                            x       y       z     vdW  Elec       q    Type
REMARK                         _______ _______ _______ _____ _____    ______ ____
ROOT
ATOM      1  C   UNL     1       5.158   4.616  15.941  0.00  0.00    +0.000 A 
ATOM      2  C   UNL     1       5.066   3.668  16.955  0.00  0.00    +0.000 A 
ATOM      3  C   UNL     1       4.458   3.975  18.179  0.00  0.00    +0.000 A 
ATOM      4  C   UNL     1       3.899   5.253  18.397  0.00  0.00    +0.000 A 
ATOM      5  C   UNL     1       3.103   5.751  19.481  0.00  0.00    +0.000 A 
ATOM      6  C   UNL     1       2.655   7.044  19.285  0.00  0.00    +0.000 A 
ATOM      7  S   UNL     1       3.355   7.717  17.879  0.00  0.00    +0.000 S 
ATOM      8  C   UNL     1       4.070   6.221  17.407  0.00  0.00    +0.000 A 
ATOM      9  C   UNL     1       4.727   5.927  16.189  0.00  0.00    +0.000 A 
ENDROOT
BRANCH   1  13
ATOM     10  C   UNL     1       7.077   4.200  12.712  0.00  0.00    +0.000 C 
ATOM     11  C   UNL     1       6.858   4.716  14.112  0.00  0.00    +0.000 C 
ATOM     12  O   UNL     1       7.711   5.403  14.661  0.00  0.00    +0.000 OA
ATOM     13  N   UNL     1       5.641   4.315  14.645  0.00  0.00    +0.000 N 
ATOM     14  H   UNL     1       5.118   3.628  14.119  0.00  0.00    +0.000 HD
ENDBRANCH   1  13
BRANCH   6  15
ATOM     15  C   UNL     1       1.690   7.768  20.118  0.00  0.00    +0.000 C 
ATOM     16  O   UNL     1       1.198   7.283  21.133  0.00  0.00    +0.000 OA
ATOM     17  N   UNL     1       1.343   9.029  19.674  0.00  0.00    +0.000 N 
ATOM     18  H   UNL     1       1.735   9.332  18.793  0.00  0.00    +0.000 HD
BRANCH  17  19
ATOM     19  C   UNL     1       0.275   9.822  20.273  0.00  0.00    +0.000 C 
ATOM     20  C   UNL     1       0.770  10.584  21.532  0.00  0.00    +0.000 C 
ATOM     21  N   UNL     1       0.617  12.055  21.402  0.00  0.00    +0.000 NA
ATOM     22  C   UNL     1       1.351  12.509  20.202  0.00  0.00    +0.000 C 
ATOM     23  C   UNL     1       0.791  11.882  18.915  0.00  0.00    +0.000 C 
ATOM     24  C   UNL     1      -0.301  10.860  19.277  0.00  0.00    +0.000 C 
ATOM     25  C   UNL     1      -1.412  11.648  20.003  0.00  0.00    +0.000 C 
ATOM     26  C   UNL     1      -0.819  12.364  21.228  0.00  0.00    +0.000 C 
ENDBRANCH  17  19
ENDBRANCH   6  15
TORSDOF 3
ENDMDL
MODEL 9
REMARK VINA RESULT:      -7.1      2.289      2.962
REMARK  Name = 
REMARK  4 active torsions:
REMARK  status: ('A' for Active; 'I' for Inactive)
REMARK    1  A    between atoms: C_1  and  C_2
REMARK    2  A    between atoms: N_4  and  C_5
REMARK    3  A    between atoms: C_10  and  C_11
REMARK    4  A    between atoms: N_13  and  C_14
REMARK                            x       y       z     vdW  Elec       q    Type
REMARK                         _______ _______ _______ _____ _____    ______ ____
ROOT
ATOM      1  C   UNL     1      -1.253  11.687  20.449  0.00  0.00    +0.000 A 
ATOM      2  C   UNL     1      -1.047  12.090  19.134  0.00  0.00    +0.000 A 
ATOM      3  C   UNL     1      -0.123  11.432  18.312  0.00  0.00    +0.000 A 
ATOM      4  C   UNL     1       0.601  10.321  18.800  0.00  0.00    +0.000 A 
ATOM      5  C   UNL     1       1.469   9.404  18.122  0.00  0.00    +0.000 A 
ATOM      6  C   UNL     1       1.920   8.376  18.929  0.00  0.00    +0.000 A 
ATOM      7  S   UNL     1       1.444   8.630  20.550  0.00  0.00    +0.000 S 
ATOM      8  C   UNL     1       0.449   9.978  20.143  0.00  0.00    +0.000 A 
ATOM      9  C   UNL     1      -0.448  10.673  20.988  0.00  0.00    +0.000 A 
ENDROOT
BRANCH   1  13
ATOM     10  C   UNL     1      -4.381  13.134  22.000  0.00  0.00    +0.000 C 
ATOM     11  C   UNL     1      -3.535  12.618  20.863  0.00  0.00    +0.000 C 
ATOM     12  O   UNL     1      -3.987  12.567  19.726  0.00  0.00    +0.000 OA
ATOM     13  N   UNL     1      -2.267  12.232  21.273  0.00  0.00    +0.000 N 
ATOM     14  H   UNL     1      -2.102  12.198  22.269  0.00  0.00    +0.000 HD
ENDBRANCH   1  13
BRANCH   6  15
ATOM     15  C   UNL     1       2.675   7.195  18.498  0.00  0.00    +0.000 C 
ATOM     16  O   UNL     1       3.679   7.273  17.796  0.00  0.00    +0.000 OA
ATOM     17  N   UNL     1       2.168   5.978  18.910  0.00  0.00    +0.000 N 
ATOM     18  H   UNL     1       1.299   5.990  19.426  0.00  0.00    +0.000 HD
BRANCH  17  19
ATOM     19  C   UNL     1       2.681   4.697  18.436  0.00  0.00    +0.000 C 
ATOM     20  C   UNL     1       3.798   4.151  19.368  0.00  0.00    +0.000 C 
ATOM     21  N   UNL     1       3.459   2.825  19.944  0.00  0.00    +0.000 NA
ATOM     22  C   UNL     1       2.180   2.935  20.678  0.00  0.00    +0.000 C 
ATOM     23  C   UNL     1       1.019   3.335  19.753  0.00  0.00    +0.000 C 
ATOM     24  C   UNL     1       1.565   3.626  18.344  0.00  0.00    +0.000 C 
ATOM     25  C   UNL     1       2.205   2.315  17.844  0.00  0.00    +0.000 C 
ATOM     26  C   UNL     1       3.291   1.861  18.835  0.00  0.00    +0.000 C 
ENDBRANCH  17  19
ENDBRANCH   6  15
TORSDOF 3
ENDMDL
