MODEL 1
REMARK VINA RESULT:      -7.6      0.000      0.000
REMARK  Name = 
REMARK  5 active torsions:
REMARK  status: ('A' for Active; 'I' for Inactive)
REMARK    1  A    between atoms: C_1  and  O_2
REMARK    2  A    between atoms: O_2  and  C_3
REMARK    3  A    between atoms: C_8  and  N_9
REMARK    4  A    between atoms: C_10  and  C_12
REMARK    5  A    between atoms: C_13  and  C_14
REMARK                            x       y       z     vdW  Elec       q    Type
REMARK                         _______ _______ _______ _____ _____    ______ ____
ROOT
ATOM      1  N   UNL     1       3.880   4.861  17.886  0.00  0.00    +0.000 N 
ATOM      2  C   UNL     1       5.247   4.691  18.091  0.00  0.00    +0.000 C 
ATOM      3  O   UNL     1       5.727   4.075  19.039  0.00  0.00    +0.000 OA
ATOM      4  H   UNL     1       3.555   5.171  16.976  0.00  0.00    +0.000 HD
ENDROOT
BRANCH   2   5
ATOM      5  C   UNL     1       6.162   5.191  17.068  0.00  0.00    +0.000 A 
ATOM      6  C   UNL     1       7.186   6.130  17.145  0.00  0.00    +0.000 A 
ATOM      7  C   UNL     1       7.812   6.925  18.228  0.00  0.00    +0.000 C 
ATOM      8  O   UNL     1       7.791   6.283  15.922  0.00  0.00    +0.000 OA
ATOM      9  C   UNL     1       7.209   5.396  15.088  0.00  0.00    +0.000 A 
ATOM     10  C   UNL     1       6.258   4.655  15.741  0.00  0.00    +0.000 A 
ATOM     11  C   UNL     1       5.507   3.553  15.069  0.00  0.00    +0.000 C 
ATOM     12  C   UNL     1       6.105   3.225  13.682  0.00  0.00    +0.000 C 
ATOM     13  C   UNL     1       6.546   4.486  12.911  0.00  0.00    +0.000 C 
ATOM     14  C   UNL     1       7.632   5.276  13.675  0.00  0.00    +0.000 C 
ENDBRANCH   2   5
BRANCH   1  20
ATOM     15  C   UNL     1       2.306   3.136  18.689  0.00  0.00    +0.000 A 
ATOM     16  C   UNL     1       1.278   2.745  19.567  0.00  0.00    +0.000 A 
ATOM     17  C   UNL     1       0.845   3.587  20.589  0.00  0.00    +0.000 A 
ATOM     18  C   UNL     1       1.412   4.843  20.723  0.00  0.00    +0.000 A 
ATOM     19  C   UNL     1       2.390   5.264  19.822  0.00  0.00    +0.000 A 
ATOM     20  C   UNL     1       2.866   4.432  18.797  0.00  0.00    +0.000 A 
BRANCH  15  22
ATOM     21  C   UNL     1       3.686   1.278  18.215  0.00  0.00    +0.000 C 
ATOM     22  O   UNL     1       2.815   2.301  17.719  0.00  0.00    +0.000 OA
ENDBRANCH  15  22
ENDBRANCH   1  20
TORSDOF 3
ENDMDL
MODEL 2
REMARK VINA RESULT:      -7.5      0.965      2.007
REMARK  Name = 
REMARK  5 active torsions:
REMARK  status: ('A' for Active; 'I' for Inactive)
REMARK    1  A    between atoms: C_1  and  O_2
REMARK    2  A    between atoms: O_2  and  C_3
REMARK    3  A    between atoms: C_8  and  N_9
REMARK    4  A    between atoms: C_10  and  C_12
REMARK    5  A    between atoms: C_13  and  C_14
REMARK                            x       y       z     vdW  Elec       q    Type
REMARK                         _______ _______ _______ _____ _____    ______ ____
ROOT
ATOM      1  N   UNL     1       3.769   4.693  17.586  0.00  0.00    +0.000 N 
ATOM      2  C   UNL     1       5.125   4.492  17.826  0.00  0.00    +0.000 C 
ATOM      3  O   UNL     1       5.566   3.812  18.748  0.00  0.00    +0.000 OA
ATOM      4  H   UNL     1       3.478   5.063  16.688  0.00  0.00    +0.000 HD
ENDROOT
BRANCH   2   5
ATOM      5  C   UNL     1       6.080   5.041  16.865  0.00  0.00    +0.000 A 
ATOM      6  C   UNL     1       7.099   5.974  17.030  0.00  0.00    +0.000 A 
ATOM      7  C   UNL     1       7.682   6.713  18.174  0.00  0.00    +0.000 C 
ATOM      8  O   UNL     1       7.753   6.186  15.841  0.00  0.00    +0.000 OA
ATOM      9  C   UNL     1       7.204   5.342  14.941  0.00  0.00    +0.000 A 
ATOM     10  C   UNL     1       6.230   4.571  15.518  0.00  0.00    +0.000 A 
ATOM     11  C   UNL     1       5.506   3.505  14.763  0.00  0.00    +0.000 C 
ATOM     12  C   UNL     1       6.159   3.246  13.386  0.00  0.00    +0.000 C 
ATOM     13  C   UNL     1       6.629   4.543  12.697  0.00  0.00    +0.000 C 
ATOM     14  C   UNL     1       7.683   5.293  13.541  0.00  0.00    +0.000 C 
ENDBRANCH   2   5
BRANCH   1  20
ATOM     15  C   UNL     1       2.359   4.947  19.597  0.00  0.00    +0.000 A 
ATOM     16  C   UNL     1       1.354   4.449  20.447  0.00  0.00    +0.000 A 
ATOM     17  C   UNL     1       0.656   3.286  20.130  0.00  0.00    +0.000 A 
ATOM     18  C   UNL     1       0.978   2.590  18.977  0.00  0.00    +0.000 A 
ATOM     19  C   UNL     1       2.014   3.043  18.159  0.00  0.00    +0.000 A 
ATOM     20  C   UNL     1       2.719   4.223  18.436  0.00  0.00    +0.000 A 
BRANCH  15  22
ATOM     21  C   UNL     1       2.277   7.305  19.461  0.00  0.00    +0.000 C 
ATOM     22  O   UNL     1       3.014   6.136  19.837  0.00  0.00    +0.000 OA
ENDBRANCH  15  22
ENDBRANCH   1  20
TORSDOF 3
ENDMDL
MODEL 3
REMARK VINA RESULT:      -7.4      1.461      1.701
REMARK  Name = 
REMARK  5 active torsions:
REMARK  status: ('A' for Active; 'I' for Inactive)
REMARK    1  A    between atoms: C_1  and  O_2
REMARK    2  A    between atoms: O_2  and  C_3
REMARK    3  A    between atoms: C_8  and  N_9
REMARK    4  A    between atoms: C_10  and  C_12
REMARK    5  A    between atoms: C_13  and  C_14
REMARK                            x       y       z     vdW  Elec       q    Type
REMARK                         _______ _______ _______ _____ _____    ______ ____
ROOT
ATOM      1  N   UNL     1       4.375   3.777  17.459  0.00  0.00    +0.000 N 
ATOM      2  C   UNL     1       4.577   5.058  16.952  0.00  0.00    +0.000 C 
ATOM      3  O   UNL     1       3.853   6.018  17.201  0.00  0.00    +0.000 OA
ATOM      4  H   UNL     1       5.129   3.102  17.403  0.00  0.00    +0.000 HD
ENDROOT
BRANCH   2   5
ATOM      5  C   UNL     1       5.777   5.298  16.153  0.00  0.00    +0.000 A 
ATOM      6  C   UNL     1       6.965   5.948  16.472  0.00  0.00    +0.000 A 
ATOM      7  C   UNL     1       7.537   6.569  17.690  0.00  0.00    +0.000 C 
ATOM      8  O   UNL     1       7.826   5.929  15.402  0.00  0.00    +0.000 OA
ATOM      9  C   UNL     1       7.222   5.210  14.432  0.00  0.00    +0.000 A 
ATOM     10  C   UNL     1       6.004   4.741  14.851  0.00  0.00    +0.000 A 
ATOM     11  C   UNL     1       5.154   3.859  13.997  0.00  0.00    +0.000 C 
ATOM     12  C   UNL     1       5.920   3.375  12.745  0.00  0.00    +0.000 C 
ATOM     13  C   UNL     1       6.810   4.475  12.131  0.00  0.00    +0.000 C 
ATOM     14  C   UNL     1       7.880   4.972  13.128  0.00  0.00    +0.000 C 
ENDBRANCH   2   5
BRANCH   1  20
ATOM     15  C   UNL     1       3.434   2.844  19.542  0.00  0.00    +0.000 A 
ATOM     16  C   UNL     1       2.317   2.427  20.290  0.00  0.00    +0.000 A 
ATOM     17  C   UNL     1       1.022   2.605  19.809  0.00  0.00    +0.000 A 
ATOM     18  C   UNL     1       0.830   3.170  18.561  0.00  0.00    +0.000 A 
ATOM     19  C   UNL     1       1.933   3.532  17.786  0.00  0.00    +0.000 A 
ATOM     20  C   UNL     1       3.248   3.390  18.250  0.00  0.00    +0.000 A 
BRANCH  15  22
ATOM     21  C   UNL     1       5.009   1.554  20.743  0.00  0.00    +0.000 C 
ATOM     22  O   UNL     1       4.723   2.758  20.020  0.00  0.00    +0.000 OA
ENDBRANCH  15  22
ENDBRANCH   1  20
TORSDOF 3
ENDMDL
MODEL 4
REMARK VINA RESULT:      -7.2      1.065      1.205
REMARK  Name = 
REMARK  5 active torsions:
REMARK  status: ('A' for Active; 'I' for Inactive)
REMARK    1  A    between atoms: C_1  and  O_2
REMARK    2  A    between atoms: O_2  and  C_3
REMARK    3  A    between atoms: C_8  and  N_9
REMARK    4  A    between atoms: C_10  and  C_12
REMARK    5  A    between atoms: C_13  and  C_14
REMARK                            x       y       z     vdW  Elec       q    Type
REMARK                         _______ _______ _______ _____ _____    ______ ____
ROOT
ATOM      1  N   UNL     1       4.543   4.967  18.295  0.00  0.00    +0.000 N 
ATOM      2  C   UNL     1       4.595   4.618  16.948  0.00  0.00    +0.000 C 
ATOM      3  O   UNL     1       3.685   4.050  16.351  0.00  0.00    +0.000 OA
ATOM      4  H   UNL     1       5.220   5.631  18.656  0.00  0.00    +0.000 HD
ENDROOT
BRANCH   2   5
ATOM      5  C   UNL     1       5.760   5.039  16.174  0.00  0.00    +0.000 A 
ATOM      6  C   UNL     1       6.861   5.811  16.536  0.00  0.00    +0.000 A 
ATOM      7  C   UNL     1       7.348   6.435  17.788  0.00  0.00    +0.000 C 
ATOM      8  O   UNL     1       7.721   5.948  15.475  0.00  0.00    +0.000 OA
ATOM      9  C   UNL     1       7.212   5.210  14.465  0.00  0.00    +0.000 A 
ATOM     10  C   UNL     1       6.058   4.578  14.849  0.00  0.00    +0.000 A 
ATOM     11  C   UNL     1       5.324   3.644  13.945  0.00  0.00    +0.000 C 
ATOM     12  C   UNL     1       6.147   3.318  12.679  0.00  0.00    +0.000 C 
ATOM     13  C   UNL     1       6.901   4.545  12.127  0.00  0.00    +0.000 C 
ATOM     14  C   UNL     1       7.900   5.117  13.158  0.00  0.00    +0.000 C 
ENDBRANCH   2   5
BRANCH   1  20
ATOM     15  C   UNL     1       3.317   3.289  19.628  0.00  0.00    +0.000 A 
ATOM     16  C   UNL     1       2.234   2.957  20.463  0.00  0.00    +0.000 A 
ATOM     17  C   UNL     1       1.348   3.933  20.915  0.00  0.00    +0.000 A 
ATOM     18  C   UNL     1       1.516   5.246  20.509  0.00  0.00    +0.000 A 
ATOM     19  C   UNL     1       2.551   5.575  19.633  0.00  0.00    +0.000 A 
ATOM     20  C   UNL     1       3.474   4.622  19.179  0.00  0.00    +0.000 A 
BRANCH  15  22
ATOM     21  C   UNL     1       3.727   1.262  18.485  0.00  0.00    +0.000 C 
ATOM     22  O   UNL     1       4.258   2.366  19.227  0.00  0.00    +0.000 OA
ENDBRANCH  15  22
ENDBRANCH   1  20
TORSDOF 3
ENDMDL
MODEL 5
REMARK VINA RESULT:      -7.2      1.393      2.286
REMARK  Name = 
REMARK  5 active torsions:
REMARK  status: ('A' for Active; 'I' for Inactive)
REMARK    1  A    between atoms: C_1  and  O_2
REMARK    2  A    between atoms: O_2  and  C_3
REMARK    3  A    between atoms: C_8  and  N_9
REMARK    4  A    between atoms: C_10  and  C_12
REMARK    5  A    between atoms: C_13  and  C_14
REMARK                            x       y       z     vdW  Elec       q    Type
REMARK                         _______ _______ _______ _____ _____    ______ ____
ROOT
ATOM      1  N   UNL     1       4.644   4.682  18.357  0.00  0.00    +0.000 N 
ATOM      2  C   UNL     1       4.627   4.484  16.979  0.00  0.00    +0.000 C 
ATOM      3  O   UNL     1       3.672   4.019  16.363  0.00  0.00    +0.000 OA
ATOM      4  H   UNL     1       5.360   5.277  18.759  0.00  0.00    +0.000 HD
ENDROOT
BRANCH   2   5
ATOM      5  C   UNL     1       5.776   4.949  16.205  0.00  0.00    +0.000 A 
ATOM      6  C   UNL     1       6.857   5.745  16.572  0.00  0.00    +0.000 A 
ATOM      7  C   UNL     1       7.335   6.364  17.831  0.00  0.00    +0.000 C 
ATOM      8  O   UNL     1       7.708   5.920  15.509  0.00  0.00    +0.000 OA
ATOM      9  C   UNL     1       7.213   5.184  14.491  0.00  0.00    +0.000 A 
ATOM     10  C   UNL     1       6.079   4.515  14.871  0.00  0.00    +0.000 A 
ATOM     11  C   UNL     1       5.365   3.575  13.958  0.00  0.00    +0.000 C 
ATOM     12  C   UNL     1       6.190   3.289  12.682  0.00  0.00    +0.000 C 
ATOM     13  C   UNL     1       6.906   4.545  12.145  0.00  0.00    +0.000 C 
ATOM     14  C   UNL     1       7.895   5.129  13.179  0.00  0.00    +0.000 C 
ENDBRANCH   2   5
BRANCH   1  20
ATOM     15  C   UNL     1       2.617   5.206  19.666  0.00  0.00    +0.000 A 
ATOM     16  C   UNL     1       1.620   4.803  20.574  0.00  0.00    +0.000 A 
ATOM     17  C   UNL     1       1.539   3.484  21.015  0.00  0.00    +0.000 A 
ATOM     18  C   UNL     1       2.474   2.561  20.580  0.00  0.00    +0.000 A 
ATOM     19  C   UNL     1       3.502   2.964  19.726  0.00  0.00    +0.000 A 
ATOM     20  C   UNL     1       3.598   4.277  19.244  0.00  0.00    +0.000 A 
BRANCH  15  22
ATOM     21  C   UNL     1       2.070   7.485  19.966  0.00  0.00    +0.000 C 
ATOM     22  O   UNL     1       2.679   6.480  19.147  0.00  0.00    +0.000 OA
ENDBRANCH  15  22
ENDBRANCH   1  20
TORSDOF 3
ENDMDL
MODEL 6
REMARK VINA RESULT:      -7.1      2.873      6.738
REMARK  Name = 
REMARK  5 active torsions:
REMARK  status: ('A' for Active; 'I' for Inactive)
REMARK    1  A    between atoms: C_1  and  O_2
REMARK    2  A    between atoms: O_2  and  C_3
REMARK    3  A    between atoms: C_8  and  N_9
REMARK    4  A    between atoms: C_10  and  C_12
REMARK    5  A    between atoms: C_13  and  C_14
REMARK                            x       y       z     vdW  Elec       q    Type
REMARK                         _______ _______ _______ _____ _____    ______ ____
ROOT
ATOM      1  N   UNL     1       4.503   6.238  17.811  0.00  0.00    +0.000 N 
ATOM      2  C   UNL     1       3.208   5.799  18.072  0.00  0.00    +0.000 C 
ATOM      3  O   UNL     1       2.711   4.793  17.573  0.00  0.00    +0.000 OA
ATOM      4  H   UNL     1       4.921   6.928  18.426  0.00  0.00    +0.000 HD
ENDROOT
BRANCH   2   5
ATOM      5  C   UNL     1       2.428   6.521  19.074  0.00  0.00    +0.000 A 
ATOM      6  C   UNL     1       2.013   6.143  20.348  0.00  0.00    +0.000 A 
ATOM      7  C   UNL     1       2.226   4.967  21.224  0.00  0.00    +0.000 C 
ATOM      8  O   UNL     1       1.298   7.154  20.940  0.00  0.00    +0.000 OA
ATOM      9  C   UNL     1       1.317   8.196  20.082  0.00  0.00    +0.000 A 
ATOM     10  C   UNL     1       2.045   7.898  18.960  0.00  0.00    +0.000 A 
ATOM     11  C   UNL     1       2.284   8.899  17.878  0.00  0.00    +0.000 C 
ATOM     12  C   UNL     1       1.829  10.313  18.303  0.00  0.00    +0.000 C 
ATOM     13  C   UNL     1       0.514  10.297  19.108  0.00  0.00    +0.000 C 
ATOM     14  C   UNL     1       0.646   9.474  20.410  0.00  0.00    +0.000 C 
ENDBRANCH   2   5
BRANCH   1  20
ATOM     15  C   UNL     1       6.528   4.927  17.285  0.00  0.00    +0.000 A 
ATOM     16  C   UNL     1       7.407   4.381  16.332  0.00  0.00    +0.000 A 
ATOM     17  C   UNL     1       7.136   4.470  14.968  0.00  0.00    +0.000 A 
ATOM     18  C   UNL     1       6.000   5.136  14.542  0.00  0.00    +0.000 A 
ATOM     19  C   UNL     1       5.152   5.732  15.476  0.00  0.00    +0.000 A 
ATOM     20  C   UNL     1       5.384   5.640  16.856  0.00  0.00    +0.000 A 
BRANCH  15  22
ATOM     21  C   UNL     1       7.735   5.643  19.186  0.00  0.00    +0.000 C 
ATOM     22  O   UNL     1       6.722   4.788  18.642  0.00  0.00    +0.000 OA
ENDBRANCH  15  22
ENDBRANCH   1  20
TORSDOF 3
ENDMDL
MODEL 7
REMARK VINA RESULT:      -6.8      1.267      1.345
REMARK  Name = 
REMARK  5 active torsions:
REMARK  status: ('A' for Active; 'I' for Inactive)
REMARK    1  A    between atoms: C_1  and  O_2
REMARK    2  A    between atoms: O_2  and  C_3
REMARK    3  A    between atoms: C_8  and  N_9
REMARK    4  A    between atoms: C_10  and  C_12
REMARK    5  A    between atoms: C_13  and  C_14
REMARK                            x       y       z     vdW  Elec       q    Type
REMARK                         _______ _______ _______ _____ _____    ______ ____
ROOT
ATOM      1  N   UNL     1       4.195   4.360  18.369  0.00  0.00    +0.000 N 
ATOM      2  C   UNL     1       5.269   5.219  18.585  0.00  0.00    +0.000 C 
ATOM      3  O   UNL     1       5.587   5.657  19.687  0.00  0.00    +0.000 OA
ATOM      4  H   UNL     1       4.135   3.861  17.488  0.00  0.00    +0.000 HD
ENDROOT
BRANCH   2   5
ATOM      5  C   UNL     1       6.129   5.542  17.448  0.00  0.00    +0.000 A 
ATOM      6  C   UNL     1       7.197   6.427  17.339  0.00  0.00    +0.000 A 
ATOM      7  C   UNL     1       7.936   7.311  18.270  0.00  0.00    +0.000 C 
ATOM      8  O   UNL     1       7.718   6.398  16.069  0.00  0.00    +0.000 OA
ATOM      9  C   UNL     1       7.036   5.450  15.392  0.00  0.00    +0.000 A 
ATOM     10  C   UNL     1       6.103   4.845  16.194  0.00  0.00    +0.000 A 
ATOM     11  C   UNL     1       5.256   3.713  15.716  0.00  0.00    +0.000 C 
ATOM     12  C   UNL     1       5.735   3.188  14.343  0.00  0.00    +0.000 C 
ATOM     13  C   UNL     1       6.175   4.321  13.395  0.00  0.00    +0.000 C 
ATOM     14  C   UNL     1       7.349   5.138  13.979  0.00  0.00    +0.000 C 
ENDBRANCH   2   5
BRANCH   1  20
ATOM     15  C   UNL     1       3.563   2.872  20.235  0.00  0.00    +0.000 A 
ATOM     16  C   UNL     1       2.619   2.462  21.195  0.00  0.00    +0.000 A 
ATOM     17  C   UNL     1       1.420   3.150  21.365  0.00  0.00    +0.000 A 
ATOM     18  C   UNL     1       1.136   4.235  20.554  0.00  0.00    +0.000 A 
ATOM     19  C   UNL     1       2.039   4.614  19.559  0.00  0.00    +0.000 A 
ATOM     20  C   UNL     1       3.265   3.958  19.378  0.00  0.00    +0.000 A 
BRANCH  15  22
ATOM     21  C   UNL     1       5.084   1.278  21.089  0.00  0.00    +0.000 C 
ATOM     22  O   UNL     1       4.793   2.266  20.094  0.00  0.00    +0.000 OA
ENDBRANCH  15  22
ENDBRANCH   1  20
TORSDOF 3
ENDMDL
MODEL 8
REMARK VINA RESULT:      -6.7      1.653      6.543
REMARK  Name = 
REMARK  5 active torsions:
REMARK  status: ('A' for Active; 'I' for Inactive)
REMARK    1  A    between atoms: C_1  and  O_2
REMARK    2  A    between atoms: O_2  and  C_3
REMARK    3  A    between atoms: C_8  and  N_9
REMARK    4  A    between atoms: C_10  and  C_12
REMARK    5  A    between atoms: C_13  and  C_14
REMARK                            x       y       z     vdW  Elec       q    Type
REMARK                         _______ _______ _______ _____ _____    ______ ____
ROOT
ATOM      1  N   UNL     1       4.706   4.964  15.560  0.00  0.00    +0.000 N 
ATOM      2  C   UNL     1       4.390   4.125  16.625  0.00  0.00    +0.000 C 
ATOM      3  O   UNL     1       4.845   2.994  16.767  0.00  0.00    +0.000 OA
ATOM      4  H   UNL     1       4.484   5.951  15.629  0.00  0.00    +0.000 HD
ENDROOT
BRANCH   2   5
ATOM      5  C   UNL     1       3.543   4.658  17.689  0.00  0.00    +0.000 A 
ATOM      6  C   UNL     1       3.323   5.967  18.106  0.00  0.00    +0.000 A 
ATOM      7  C   UNL     1       3.751   7.309  17.646  0.00  0.00    +0.000 C 
ATOM      8  O   UNL     1       2.433   5.996  19.152  0.00  0.00    +0.000 OA
ATOM      9  C   UNL     1       2.032   4.723  19.354  0.00  0.00    +0.000 A 
ATOM     10  C   UNL     1       2.617   3.872  18.454  0.00  0.00    +0.000 A 
ATOM     11  C   UNL     1       2.296   2.415  18.411  0.00  0.00    +0.000 C 
ATOM     12  C   UNL     1       1.087   2.075  19.312  0.00  0.00    +0.000 C 
ATOM     13  C   UNL     1       1.099   2.858  20.641  0.00  0.00    +0.000 C 
ATOM     14  C   UNL     1       1.050   4.385  20.409  0.00  0.00    +0.000 C 
ENDBRANCH   2   5
BRANCH   1  20
ATOM     15  C   UNL     1       6.874   4.977  14.378  0.00  0.00    +0.000 A 
ATOM     16  C   UNL     1       7.646   4.632  13.253  0.00  0.00    +0.000 A 
ATOM     17  C   UNL     1       7.117   3.848  12.231  0.00  0.00    +0.000 A 
ATOM     18  C   UNL     1       5.800   3.430  12.305  0.00  0.00    +0.000 A 
ATOM     19  C   UNL     1       5.008   3.816  13.387  0.00  0.00    +0.000 A 
ATOM     20  C   UNL     1       5.517   4.584  14.444  0.00  0.00    +0.000 A 
BRANCH  15  22
ATOM     21  C   UNL     1       7.702   4.880  16.589  0.00  0.00    +0.000 C 
ATOM     22  O   UNL     1       7.387   5.682  15.445  0.00  0.00    +0.000 OA
ENDBRANCH  15  22
ENDBRANCH   1  20
TORSDOF 3
ENDMDL
MODEL 9
REMARK VINA RESULT:      -6.6      1.327      1.601
REMARK  Name = 
REMARK  5 active torsions:
REMARK  status: ('A' for Active; 'I' for Inactive)
REMARK    1  A    between atoms: C_1  and  O_2
REMARK    2  A    between atoms: O_2  and  C_3
REMARK    3  A    between atoms: C_8  and  N_9
REMARK    4  A    between atoms: C_10  and  C_12
REMARK    5  A    between atoms: C_13  and  C_14
REMARK                            x       y       z     vdW  Elec       q    Type
REMARK                         _______ _______ _______ _____ _____    ______ ____
ROOT
ATOM      1  N   UNL     1       4.303   3.642  18.744  0.00  0.00    +0.000 N 
ATOM      2  C   UNL     1       4.719   4.951  18.518  0.00  0.00    +0.000 C 
ATOM      3  O   UNL     1       4.255   5.929  19.097  0.00  0.00    +0.000 OA
ATOM      4  H   UNL     1       4.882   2.879  18.410  0.00  0.00    +0.000 HD
ENDROOT
BRANCH   2   5
ATOM      5  C   UNL     1       5.843   5.167  17.609  0.00  0.00    +0.000 A 
ATOM      6  C   UNL     1       7.117   5.675  17.843  0.00  0.00    +0.000 A 
ATOM      7  C   UNL     1       7.876   6.114  19.037  0.00  0.00    +0.000 C 
ATOM      8  O   UNL     1       7.849   5.691  16.682  0.00  0.00    +0.000 OA
ATOM      9  C   UNL     1       7.075   5.132  15.728  0.00  0.00    +0.000 A 
ATOM     10  C   UNL     1       5.870   4.730  16.242  0.00  0.00    +0.000 A 
ATOM     11  C   UNL     1       4.850   4.019  15.417  0.00  0.00    +0.000 C 
ATOM     12  C   UNL     1       5.423   3.602  14.044  0.00  0.00    +0.000 C 
ATOM     13  C   UNL     1       6.344   4.677  13.433  0.00  0.00    +0.000 C 
ATOM     14  C   UNL     1       7.561   4.973  14.339  0.00  0.00    +0.000 C 
ENDBRANCH   2   5
BRANCH   1  20
ATOM     15  C   UNL     1       1.908   3.148  19.081  0.00  0.00    +0.000 A 
ATOM     16  C   UNL     1       0.844   2.829  19.944  0.00  0.00    +0.000 A 
ATOM     17  C   UNL     1       1.067   2.566  21.294  0.00  0.00    +0.000 A 
ATOM     18  C   UNL     1       2.351   2.654  21.803  0.00  0.00    +0.000 A 
ATOM     19  C   UNL     1       3.405   3.028  20.968  0.00  0.00    +0.000 A 
ATOM     20  C   UNL     1       3.218   3.275  19.600  0.00  0.00    +0.000 A 
BRANCH  15  22
ATOM     21  C   UNL     1       1.269   4.639  17.363  0.00  0.00    +0.000 C 
ATOM     22  O   UNL     1       1.737   3.335  17.726  0.00  0.00    +0.000 OA
ENDBRANCH  15  22
ENDBRANCH   1  20
TORSDOF 3
ENDMDL
