MODEL 1
REMARK VINA RESULT:      -7.9      0.000      0.000
REMARK  Name = 
REMARK  2 active torsions:
REMARK  status: ('A' for Active; 'I' for Inactive)
REMARK    1  A    between atoms: C_2  and  O_3
REMARK    2  A    between atoms: C_2  and  C_4
REMARK                            x       y       z     vdW  Elec       q    Type
REMARK                         _______ _______ _______ _____ _____    ______ ____
ROOT
ATOM      1  C   UNL     1       7.014   4.993  14.344  0.00  0.00    +0.000 C 
ATOM      2  C   UNL     1       5.922   4.006  13.982  0.00  0.00    +0.000 C 
ATOM      3  C   UNL     1       5.174   4.184  15.242  0.00  0.00    +0.000 A 
ATOM      4  C   UNL     1       4.528   3.239  15.982  0.00  0.00    +0.000 A 
ATOM      5  C   UNL     1       4.020   3.636  17.220  0.00  0.00    +0.000 A 
ATOM      6  C   UNL     1       3.619   2.593  18.165  0.00  0.00    +0.000 A 
ATOM      7  O   UNL     1       3.782   1.407  17.911  0.00  0.00    +0.000 OA
ATOM      8  C   UNL     1       3.057   3.038  19.435  0.00  0.00    +0.000 A 
ATOM      9  C   UNL     1       2.666   2.089  20.384  0.00  0.00    +0.000 A 
ATOM     10  C   UNL     1       2.024   2.510  21.542  0.00  0.00    +0.000 A 
ATOM     11  C   UNL     1       1.772   3.870  21.733  0.00  0.00    +0.000 A 
ATOM     12  C   UNL     1       2.213   4.817  20.795  0.00  0.00    +0.000 A 
ATOM     13  C   UNL     1       2.888   4.403  19.646  0.00  0.00    +0.000 A 
ATOM     14  O   UNL     1       3.369   5.376  18.793  0.00  0.00    +0.000 OA
ATOM     15  C   UNL     1       4.010   4.980  17.631  0.00  0.00    +0.000 A 
ATOM     16  C   UNL     1       4.697   5.933  16.850  0.00  0.00    +0.000 A 
ATOM     17 CL   UNL     1       4.805   7.584  17.324  0.00  0.00    +0.000 Cl
ATOM     18  C   UNL     1       5.350   5.485  15.703  0.00  0.00    +0.000 A 
ATOM     19  O   UNL     1       6.320   6.132  14.944  0.00  0.00    +0.000 OA
ENDROOT
BRANCH   1  21
ATOM     20  O   UNL     1       8.887   5.959  13.143  0.00  0.00    +0.000 OA
ATOM     21  C   UNL     1       7.926   5.200  13.141  0.00  0.00    +0.000 C 
BRANCH  21  22
ATOM     22  O   UNL     1       7.523   4.548  12.028  0.00  0.00    +0.000 OA
ATOM     23  H   UNL     1       7.873   3.634  11.985  0.00  0.00    +0.000 HD
ENDBRANCH  21  22
ENDBRANCH   1  21
TORSDOF 2
ENDMDL
MODEL 2
REMARK VINA RESULT:      -7.6      1.300      1.311
REMARK  Name = 
REMARK  2 active torsions:
REMARK  status: ('A' for Active; 'I' for Inactive)
REMARK    1  A    between atoms: C_2  and  O_3
REMARK    2  A    between atoms: C_2  and  C_4
REMARK                            x       y       z     vdW  Elec       q    Type
REMARK                         _______ _______ _______ _____ _____    ______ ____
ROOT
ATOM      1  C   UNL     1       7.156   4.929  14.484  0.00  0.00    +0.000 C 
ATOM      2  C   UNL     1       5.721   5.245  14.113  0.00  0.00    +0.000 C 
ATOM      3  C   UNL     1       5.200   5.075  15.483  0.00  0.00    +0.000 A 
ATOM      4  C   UNL     1       4.021   4.516  15.876  0.00  0.00    +0.000 A 
ATOM      5  C   UNL     1       3.826   4.336  17.246  0.00  0.00    +0.000 A 
ATOM      6  C   UNL     1       2.738   3.457  17.677  0.00  0.00    +0.000 A 
ATOM      7  O   UNL     1       2.057   2.843  16.866  0.00  0.00    +0.000 OA
ATOM      8  C   UNL     1       2.534   3.318  19.113  0.00  0.00    +0.000 A 
ATOM      9  C   UNL     1       1.518   2.484  19.587  0.00  0.00    +0.000 A 
ATOM     10  C   UNL     1       1.250   2.444  20.949  0.00  0.00    +0.000 A 
ATOM     11  C   UNL     1       1.992   3.245  21.820  0.00  0.00    +0.000 A 
ATOM     12  C   UNL     1       3.041   4.042  21.338  0.00  0.00    +0.000 A 
ATOM     13  C   UNL     1       3.338   4.061  19.974  0.00  0.00    +0.000 A 
ATOM     14  O   UNL     1       4.427   4.800  19.559  0.00  0.00    +0.000 OA
ATOM     15  C   UNL     1       4.713   4.857  18.205  0.00  0.00    +0.000 A 
ATOM     16  C   UNL     1       5.930   5.419  17.768  0.00  0.00    +0.000 A 
ATOM     17 CL   UNL     1       7.107   6.004  18.880  0.00  0.00    +0.000 Cl
ATOM     18  C   UNL     1       6.186   5.431  16.398  0.00  0.00    +0.000 A 
ATOM     19  O   UNL     1       7.394   5.640  15.740  0.00  0.00    +0.000 OA
ENDROOT
BRANCH   1  21
ATOM     20  O   UNL     1       9.012   5.946  13.299  0.00  0.00    +0.000 OA
ATOM     21  C   UNL     1       8.056   5.182  13.281  0.00  0.00    +0.000 C 
BRANCH  21  22
ATOM     22  O   UNL     1       7.647   4.565  12.150  0.00  0.00    +0.000 OA
ATOM     23  H   UNL     1       8.397   4.222  11.621  0.00  0.00    +0.000 HD
ENDBRANCH  21  22
ENDBRANCH   1  21
TORSDOF 2
ENDMDL
MODEL 3
REMARK VINA RESULT:      -7.4      3.657      5.158
REMARK  Name = 
REMARK  2 active torsions:
REMARK  status: ('A' for Active; 'I' for Inactive)
REMARK    1  A    between atoms: C_2  and  O_3
REMARK    2  A    between atoms: C_2  and  C_4
REMARK                            x       y       z     vdW  Elec       q    Type
REMARK                         _______ _______ _______ _____ _____    ______ ____
ROOT
ATOM      1  C   UNL     1       4.660   4.806  16.091  0.00  0.00    +0.000 C 
ATOM      2  C   UNL     1       5.225   6.212  16.114  0.00  0.00    +0.000 C 
ATOM      3  C   UNL     1       4.343   6.680  17.200  0.00  0.00    +0.000 A 
ATOM      4  C   UNL     1       3.739   7.894  17.335  0.00  0.00    +0.000 A 
ATOM      5  C   UNL     1       2.827   8.041  18.382  0.00  0.00    +0.000 A 
ATOM      6  C   UNL     1       1.933   9.199  18.359  0.00  0.00    +0.000 A 
ATOM      7  O   UNL     1       1.934   9.985  17.420  0.00  0.00    +0.000 OA
ATOM      8  C   UNL     1       1.018   9.346  19.484  0.00  0.00    +0.000 A 
ATOM      9  C   UNL     1       0.131  10.426  19.514  0.00  0.00    +0.000 A 
ATOM     10  C   UNL     1      -0.656  10.629  20.640  0.00  0.00    +0.000 A 
ATOM     11  C   UNL     1      -0.542   9.758  21.725  0.00  0.00    +0.000 A 
ATOM     12  C   UNL     1       0.316   8.649  21.663  0.00  0.00    +0.000 A 
ATOM     13  C   UNL     1       1.086   8.421  20.521  0.00  0.00    +0.000 A 
ATOM     14  O   UNL     1       1.856   7.276  20.479  0.00  0.00    +0.000 OA
ATOM     15  C   UNL     1       2.651   7.054  19.367  0.00  0.00    +0.000 A 
ATOM     16  C   UNL     1       3.280   5.803  19.194  0.00  0.00    +0.000 A 
ATOM     17 CL   UNL     1       3.052   4.513  20.310  0.00  0.00    +0.000 Cl
ATOM     18  C   UNL     1       4.050   5.616  18.048  0.00  0.00    +0.000 A 
ATOM     19  O   UNL     1       4.515   4.426  17.495  0.00  0.00    +0.000 OA
ENDROOT
BRANCH   1  21
ATOM     20  O   UNL     1       5.529   4.111  13.935  0.00  0.00    +0.000 OA
ATOM     21  C   UNL     1       5.490   3.944  15.148  0.00  0.00    +0.000 C 
BRANCH  21  22
ATOM     22  O   UNL     1       6.108   2.906  15.753  0.00  0.00    +0.000 OA
ATOM     23  H   UNL     1       5.574   2.085  15.721  0.00  0.00    +0.000 HD
ENDBRANCH  21  22
ENDBRANCH   1  21
TORSDOF 2
ENDMDL
MODEL 4
REMARK VINA RESULT:      -7.3      2.300      3.543
REMARK  Name = 
REMARK  2 active torsions:
REMARK  status: ('A' for Active; 'I' for Inactive)
REMARK    1  A    between atoms: C_2  and  O_3
REMARK    2  A    between atoms: C_2  and  C_4
REMARK                            x       y       z     vdW  Elec       q    Type
REMARK                         _______ _______ _______ _____ _____    ______ ____
ROOT
ATOM      1  C   UNL     1       5.690   4.081  13.890  0.00  0.00    +0.000 C 
ATOM      2  C   UNL     1       6.388   5.326  14.402  0.00  0.00    +0.000 C 
ATOM      3  C   UNL     1       5.568   5.431  15.624  0.00  0.00    +0.000 A 
ATOM      4  C   UNL     1       5.086   6.557  16.223  0.00  0.00    +0.000 A 
ATOM      5  C   UNL     1       4.204   6.382  17.292  0.00  0.00    +0.000 A 
ATOM      6  C   UNL     1       3.427   7.539  17.738  0.00  0.00    +0.000 A 
ATOM      7  O   UNL     1       3.493   8.613  17.156  0.00  0.00    +0.000 OA
ATOM      8  C   UNL     1       2.543   7.337  18.880  0.00  0.00    +0.000 A 
ATOM      9  C   UNL     1       1.766   8.400  19.346  0.00  0.00    +0.000 A 
ATOM     10  C   UNL     1       1.014   8.238  20.503  0.00  0.00    +0.000 A 
ATOM     11  C   UNL     1       1.056   7.021  21.185  0.00  0.00    +0.000 A 
ATOM     12  C   UNL     1       1.803   5.945  20.681  0.00  0.00    +0.000 A 
ATOM     13  C   UNL     1       2.533   6.091  19.500  0.00  0.00    +0.000 A 
ATOM     14  O   UNL     1       3.189   4.981  19.004  0.00  0.00    +0.000 OA
ATOM     15  C   UNL     1       3.946   5.119  17.853  0.00  0.00    +0.000 A 
ATOM     16  C   UNL     1       4.449   3.973  17.203  0.00  0.00    +0.000 A 
ATOM     17 CL   UNL     1       4.110   2.386  17.776  0.00  0.00    +0.000 Cl
ATOM     18  C   UNL     1       5.184   4.158  16.034  0.00  0.00    +0.000 A 
ATOM     19  O   UNL     1       5.525   3.223  15.062  0.00  0.00    +0.000 OA
ENDROOT
BRANCH   1  21
ATOM     20  O   UNL     1       7.267   4.208  12.052  0.00  0.00    +0.000 OA
ATOM     21  C   UNL     1       6.422   3.563  12.658  0.00  0.00    +0.000 C 
BRANCH  21  22
ATOM     22  O   UNL     1       5.985   2.360  12.226  0.00  0.00    +0.000 OA
ATOM     23  H   UNL     1       6.666   1.878  11.713  0.00  0.00    +0.000 HD
ENDBRANCH  21  22
ENDBRANCH   1  21
TORSDOF 2
ENDMDL
MODEL 5
REMARK VINA RESULT:      -7.3      3.737      6.448
REMARK  Name = 
REMARK  2 active torsions:
REMARK  status: ('A' for Active; 'I' for Inactive)
REMARK    1  A    between atoms: C_2  and  O_3
REMARK    2  A    between atoms: C_2  and  C_4
REMARK                            x       y       z     vdW  Elec       q    Type
REMARK                         _______ _______ _______ _____ _____    ______ ____
ROOT
ATOM      1  C   UNL     1       4.314   3.039  20.104  0.00  0.00    +0.000 C 
ATOM      2  C   UNL     1       2.838   3.064  20.452  0.00  0.00    +0.000 C 
ATOM      3  C   UNL     1       2.617   4.431  19.944  0.00  0.00    +0.000 A 
ATOM      4  C   UNL     1       1.829   5.411  20.471  0.00  0.00    +0.000 A 
ATOM      5  C   UNL     1       1.905   6.676  19.885  0.00  0.00    +0.000 A 
ATOM      6  C   UNL     1       1.334   7.808  20.615  0.00  0.00    +0.000 A 
ATOM      7  O   UNL     1       0.860   7.669  21.735  0.00  0.00    +0.000 OA
ATOM      8  C   UNL     1       1.394   9.109  19.961  0.00  0.00    +0.000 A 
ATOM      9  C   UNL     1       0.876  10.232  20.613  0.00  0.00    +0.000 A 
ATOM     10  C   UNL     1       0.828  11.447  19.942  0.00  0.00    +0.000 A 
ATOM     11  C   UNL     1       1.290  11.524  18.626  0.00  0.00    +0.000 A 
ATOM     12  C   UNL     1       1.853  10.402  18.000  0.00  0.00    +0.000 A 
ATOM     13  C   UNL     1       1.934   9.186  18.681  0.00  0.00    +0.000 A 
ATOM     14  O   UNL     1       2.565   8.132  18.050  0.00  0.00    +0.000 OA
ATOM     15  C   UNL     1       2.622   6.910  18.699  0.00  0.00    +0.000 A 
ATOM     16  C   UNL     1       3.438   5.881  18.184  0.00  0.00    +0.000 A 
ATOM     17 CL   UNL     1       4.412   6.113  16.784  0.00  0.00    +0.000 Cl
ATOM     18  C   UNL     1       3.485   4.677  18.885  0.00  0.00    +0.000 A 
ATOM     19  O   UNL     1       4.406   3.640  18.775  0.00  0.00    +0.000 OA
ENDROOT
BRANCH   1  21
ATOM     20  O   UNL     1       5.467   1.321  21.369  0.00  0.00    +0.000 OA
ATOM     21  C   UNL     1       4.867   1.641  20.351  0.00  0.00    +0.000 C 
BRANCH  21  22
ATOM     22  O   UNL     1       4.729   0.802  19.301  0.00  0.00    +0.000 OA
ATOM     23  H   UNL     1       3.922   0.251  19.367  0.00  0.00    +0.000 HD
ENDBRANCH  21  22
ENDBRANCH   1  21
TORSDOF 2
ENDMDL
MODEL 6
REMARK VINA RESULT:      -7.2      4.019      7.527
REMARK  Name = 
REMARK  2 active torsions:
REMARK  status: ('A' for Active; 'I' for Inactive)
REMARK    1  A    between atoms: C_2  and  O_3
REMARK    2  A    between atoms: C_2  and  C_4
REMARK                            x       y       z     vdW  Elec       q    Type
REMARK                         _______ _______ _______ _____ _____    ______ ____
ROOT
ATOM      1  C   UNL     1      -0.159   9.871  21.058  0.00  0.00    +0.000 C 
ATOM      2  C   UNL     1       0.607   9.118  22.128  0.00  0.00    +0.000 C 
ATOM      3  C   UNL     1       1.248   8.183  21.184  0.00  0.00    +0.000 A 
ATOM      4  C   UNL     1       1.498   6.853  21.349  0.00  0.00    +0.000 A 
ATOM      5  C   UNL     1       1.983   6.153  20.242  0.00  0.00    +0.000 A 
ATOM      6  C   UNL     1       1.951   4.691  20.286  0.00  0.00    +0.000 A 
ATOM      7  O   UNL     1       1.457   4.093  21.233  0.00  0.00    +0.000 OA
ATOM      8  C   UNL     1       2.498   3.986  19.133  0.00  0.00    +0.000 A 
ATOM      9  C   UNL     1       2.486   2.589  19.110  0.00  0.00    +0.000 A 
ATOM     10  C   UNL     1       3.112   1.920  18.066  0.00  0.00    +0.000 A 
ATOM     11  C   UNL     1       3.750   2.653  17.064  0.00  0.00    +0.000 A 
ATOM     12  C   UNL     1       3.714   4.056  17.073  0.00  0.00    +0.000 A 
ATOM     13  C   UNL     1       3.058   4.734  18.101  0.00  0.00    +0.000 A 
ATOM     14  O   UNL     1       2.984   6.111  18.024  0.00  0.00    +0.000 OA
ATOM     15  C   UNL     1       2.366   6.799  19.054  0.00  0.00    +0.000 A 
ATOM     16  C   UNL     1       2.084   8.174  18.908  0.00  0.00    +0.000 A 
ATOM     17 CL   UNL     1       2.444   9.022  17.455  0.00  0.00    +0.000 Cl
ATOM     18  C   UNL     1       1.438   8.820  19.961  0.00  0.00    +0.000 A 
ATOM     19  O   UNL     1       0.791  10.052  19.961  0.00  0.00    +0.000 OA
ENDROOT
BRANCH   1  21
ATOM     20  O   UNL     1      -1.587  11.831  21.067  0.00  0.00    +0.000 OA
ATOM     21  C   UNL     1      -0.843  11.080  21.684  0.00  0.00    +0.000 C 
BRANCH  21  22
ATOM     22  O   UNL     1      -0.477  11.316  22.963  0.00  0.00    +0.000 OA
ATOM     23  H   UNL     1      -1.246  11.360  23.569  0.00  0.00    +0.000 HD
ENDBRANCH  21  22
ENDBRANCH   1  21
TORSDOF 2
ENDMDL
MODEL 7
REMARK VINA RESULT:      -7.1      4.493      6.537
REMARK  Name = 
REMARK  2 active torsions:
REMARK  status: ('A' for Active; 'I' for Inactive)
REMARK    1  A    between atoms: C_2  and  O_3
REMARK    2  A    between atoms: C_2  and  C_4
REMARK                            x       y       z     vdW  Elec       q    Type
REMARK                         _______ _______ _______ _____ _____    ______ ____
ROOT
ATOM      1  C   UNL     1       1.938  11.334  18.978  0.00  0.00    +0.000 C 
ATOM      2  C   UNL     1       1.824  10.515  17.707  0.00  0.00    +0.000 C 
ATOM      3  C   UNL     1       1.827   9.213  18.401  0.00  0.00    +0.000 A 
ATOM      4  C   UNL     1       2.429   8.052  18.017  0.00  0.00    +0.000 A 
ATOM      5  C   UNL     1       2.410   6.992  18.926  0.00  0.00    +0.000 A 
ATOM      6  C   UNL     1       3.311   5.865  18.687  0.00  0.00    +0.000 A 
ATOM      7  O   UNL     1       4.107   5.872  17.757  0.00  0.00    +0.000 OA
ATOM      8  C   UNL     1       3.243   4.756  19.631  0.00  0.00    +0.000 A 
ATOM      9  C   UNL     1       4.087   3.655  19.463  0.00  0.00    +0.000 A 
ATOM     10  C   UNL     1       3.938   2.551  20.292  0.00  0.00    +0.000 A 
ATOM     11  C   UNL     1       2.944   2.556  21.273  0.00  0.00    +0.000 A 
ATOM     12  C   UNL     1       2.135   3.687  21.463  0.00  0.00    +0.000 A 
ATOM     13  C   UNL     1       2.301   4.812  20.654  0.00  0.00    +0.000 A 
ATOM     14  O   UNL     1       1.534   5.926  20.931  0.00  0.00    +0.000 OA
ATOM     15  C   UNL     1       1.663   7.038  20.116  0.00  0.00    +0.000 A 
ATOM     16  C   UNL     1       1.061   8.257  20.492  0.00  0.00    +0.000 A 
ATOM     17 CL   UNL     1       0.199   8.422  21.973  0.00  0.00    +0.000 Cl
ATOM     18  C   UNL     1       1.239   9.356  19.654  0.00  0.00    +0.000 A 
ATOM     19  O   UNL     1       1.021  10.703  19.926  0.00  0.00    +0.000 OA
ENDROOT
BRANCH   1  21
ATOM     20  O   UNL     1       1.227  13.620  19.367  0.00  0.00    +0.000 OA
ATOM     21  C   UNL     1       1.792  12.812  18.640  0.00  0.00    +0.000 C 
BRANCH  21  22
ATOM     22  O   UNL     1       2.251  13.144  17.413  0.00  0.00    +0.000 OA
ATOM     23  H   UNL     1       2.376  14.110  17.311  0.00  0.00    +0.000 HD
ENDBRANCH  21  22
ENDBRANCH   1  21
TORSDOF 2
ENDMDL
MODEL 8
REMARK VINA RESULT:      -7.0      9.425     10.864
REMARK  Name = 
REMARK  2 active torsions:
REMARK  status: ('A' for Active; 'I' for Inactive)
REMARK    1  A    between atoms: C_2  and  O_3
REMARK    2  A    between atoms: C_2  and  C_4
REMARK                            x       y       z     vdW  Elec       q    Type
REMARK                         _______ _______ _______ _____ _____    ______ ____
ROOT
ATOM      1  C   UNL     1      -3.203  10.436  14.649  0.00  0.00    +0.000 C 
ATOM      2  C   UNL     1      -2.495   9.390  15.487  0.00  0.00    +0.000 C 
ATOM      3  C   UNL     1      -2.644  10.128  16.756  0.00  0.00    +0.000 A 
ATOM      4  C   UNL     1      -1.749  10.243  17.777  0.00  0.00    +0.000 A 
ATOM      5  C   UNL     1      -2.070  11.126  18.810  0.00  0.00    +0.000 A 
ATOM      6  C   UNL     1      -1.007  11.514  19.738  0.00  0.00    +0.000 A 
ATOM      7  O   UNL     1       0.145  11.132  19.582  0.00  0.00    +0.000 OA
ATOM      8  C   UNL     1      -1.380  12.408  20.828  0.00  0.00    +0.000 A 
ATOM      9  C   UNL     1      -0.407  12.823  21.741  0.00  0.00    +0.000 A 
ATOM     10  C   UNL     1      -0.786  13.578  22.844  0.00  0.00    +0.000 A 
ATOM     11  C   UNL     1      -2.133  13.899  23.027  0.00  0.00    +0.000 A 
ATOM     12  C   UNL     1      -3.093  13.517  22.078  0.00  0.00    +0.000 A 
ATOM     13  C   UNL     1      -2.714  12.787  20.950  0.00  0.00    +0.000 A 
ATOM     14  O   UNL     1      -3.682  12.502  20.008  0.00  0.00    +0.000 OA
ATOM     15  C   UNL     1      -3.327  11.749  18.901  0.00  0.00    +0.000 A 
ATOM     16  C   UNL     1      -4.227  11.621  17.823  0.00  0.00    +0.000 A 
ATOM     17 CL   UNL     1      -5.753  12.419  17.818  0.00  0.00    +0.000 Cl
ATOM     18  C   UNL     1      -3.818  10.876  16.719  0.00  0.00    +0.000 A 
ATOM     19  O   UNL     1      -4.363  10.841  15.440  0.00  0.00    +0.000 OA
ENDROOT
BRANCH   1  21
ATOM     20  O   UNL     1      -4.484   9.744  12.710  0.00  0.00    +0.000 OA
ATOM     21  C   UNL     1      -3.389   9.906  13.233  0.00  0.00    +0.000 C 
BRANCH  21  22
ATOM     22  O   UNL     1      -2.239   9.529  12.631  0.00  0.00    +0.000 OA
ATOM     23  H   UNL     1      -1.472  10.058  12.930  0.00  0.00    +0.000 HD
ENDBRANCH  21  22
ENDBRANCH   1  21
TORSDOF 2
ENDMDL
MODEL 9
REMARK VINA RESULT:      -6.9      6.144      8.656
REMARK  Name = 
REMARK  2 active torsions:
REMARK  status: ('A' for Active; 'I' for Inactive)
REMARK    1  A    between atoms: C_2  and  O_3
REMARK    2  A    between atoms: C_2  and  C_4
REMARK                            x       y       z     vdW  Elec       q    Type
REMARK                         _______ _______ _______ _____ _____    ______ ____
ROOT
ATOM      1  C   UNL     1       0.939  13.227  20.661  0.00  0.00    +0.000 C 
ATOM      2  C   UNL     1       0.396  12.778  19.319  0.00  0.00    +0.000 C 
ATOM      3  C   UNL     1       0.669  11.346  19.550  0.00  0.00    +0.000 A 
ATOM      4  C   UNL     1       1.116  10.416  18.660  0.00  0.00    +0.000 A 
ATOM      5  C   UNL     1       1.441   9.155  19.164  0.00  0.00    +0.000 A 
ATOM      6  C   UNL     1       2.219   8.254  18.313  0.00  0.00    +0.000 A 
ATOM      7  O   UNL     1       2.632   8.611  17.218  0.00  0.00    +0.000 OA
ATOM      8  C   UNL     1       2.510   6.930  18.850  0.00  0.00    +0.000 A 
ATOM      9  C   UNL     1       3.259   6.028  18.090  0.00  0.00    +0.000 A 
ATOM     10  C   UNL     1       3.435   4.730  18.553  0.00  0.00    +0.000 A 
ATOM     11  C   UNL     1       2.853   4.347  19.763  0.00  0.00    +0.000 A 
ATOM     12  C   UNL     1       2.144   5.275  20.540  0.00  0.00    +0.000 A 
ATOM     13  C   UNL     1       1.992   6.590  20.097  0.00  0.00    +0.000 A 
ATOM     14  O   UNL     1       1.353   7.484  20.932  0.00  0.00    +0.000 OA
ATOM     15  C   UNL     1       1.164   8.783  20.491  0.00  0.00    +0.000 A 
ATOM     16  C   UNL     1       0.713   9.771  21.392  0.00  0.00    +0.000 A 
ATOM     17 CL   UNL     1       0.430   9.419  23.053  0.00  0.00    +0.000 Cl
ATOM     18  C   UNL     1       0.562  11.070  20.910  0.00  0.00    +0.000 A 
ATOM     19  O   UNL     1       0.429  12.255  21.627  0.00  0.00    +0.000 OA
ENDROOT
BRANCH   1  21
ATOM     20  O   UNL     1      -0.471  15.175  20.975  0.00  0.00    +0.000 OA
ATOM     21  C   UNL     1       0.655  14.712  20.848  0.00  0.00    +0.000 C 
BRANCH  21  22
ATOM     22  O   UNL     1       1.752  15.496  20.760  0.00  0.00    +0.000 OA
ATOM     23  H   UNL     1       2.472  15.073  20.249  0.00  0.00    +0.000 HD
ENDBRANCH  21  22
ENDBRANCH   1  21
TORSDOF 2
ENDMDL
