MODEL 1
REMARK VINA RESULT:      -7.7      0.000      0.000
REMARK  Name = 
REMARK  7 active torsions:
REMARK  status: ('A' for Active; 'I' for Inactive)
REMARK    1  A    between atoms: C_1  and  O_2
REMARK    2  A    between atoms: O_2  and  C_3
REMARK    3  A    between atoms: C_5  and  O_6
REMARK    4  A    between atoms: O_6  and  C_7
REMARK    5  A    between atoms: C_9  and  C_10
REMARK    6  A    between atoms: N_15  and  C_16
REMARK    7  A    between atoms: C_16  and  C_17
REMARK                            x       y       z     vdW  Elec       q    Type
REMARK                         _______ _______ _______ _____ _____    ______ ____
ROOT
ATOM      1  C   UNL     1       2.247   8.067  18.317  0.00  0.00    +0.000 C 
ATOM      2  O   UNL     1       2.467   8.639  17.247  0.00  0.00    +0.000 OA
ATOM      3  N   UNL     1       1.654   8.698  19.404  0.00  0.00    +0.000 N 
ATOM      4  C   UNL     1       1.054  10.016  19.199  0.00  0.00    +0.000 C 
ATOM      5  C   UNL     1      -0.371  10.065  19.794  0.00  0.00    +0.000 C 
ATOM      6  N   UNL     1      -0.478   9.621  21.208  0.00  0.00    +0.000 NA
ATOM      7  C   UNL     1       0.198   8.304  21.348  0.00  0.00    +0.000 C 
ATOM      8  C   UNL     1       1.642   8.265  20.808  0.00  0.00    +0.000 C 
ENDROOT
BRANCH   1  13
ATOM      9  C   UNL     1       2.122   4.281  18.065  0.00  0.00    +0.000 A 
ATOM     10  C   UNL     1       3.398   3.951  18.527  0.00  0.00    +0.000 A 
ATOM     11  C   UNL     1       4.315   4.948  18.884  0.00  0.00    +0.000 A 
ATOM     12  C   UNL     1       3.921   6.286  18.836  0.00  0.00    +0.000 A 
ATOM     13  C   UNL     1       2.633   6.626  18.393  0.00  0.00    +0.000 A 
ATOM     14  C   UNL     1       1.772   5.621  17.936  0.00  0.00    +0.000 A 
BRANCH   9  16
ATOM     15  C   UNL     1       0.836   2.452  18.863  0.00  0.00    +0.000 C 
ATOM     16  O   UNL     1       1.310   3.223  17.762  0.00  0.00    +0.000 OA
ENDBRANCH   9  16
BRANCH  11  17
ATOM     17  O   UNL     1       5.543   4.481  19.266  0.00  0.00    +0.000 OA
ATOM     18  C   UNL     1       6.613   5.419  19.284  0.00  0.00    +0.000 C 
ENDBRANCH  11  17
ENDBRANCH   1  13
BRANCH   6  19
ATOM     19  C   UNL     1       0.028  10.672  22.120  0.00  0.00    +0.000 C 
BRANCH  19  20
ATOM     20  C   UNL     1      -0.980  11.778  22.346  0.00  0.00    +0.000 A 
ATOM     21  C   UNL     1      -1.007  12.915  21.499  0.00  0.00    +0.000 A 
ATOM     22  C   UNL     1      -2.115  13.766  21.480  0.00  0.00    +0.000 A 
ATOM     23  C   UNL     1      -3.181  13.422  22.278  0.00  0.00    +0.000 A 
ATOM     24  C   UNL     1      -3.121  12.370  23.166  0.00  0.00    +0.000 A 
ATOM     25  C   UNL     1      -2.016  11.562  23.268  0.00  0.00    +0.000 A 
ATOM     26  O   UNL     1      -4.316  12.141  23.778  0.00  0.00    +0.000 OA
ATOM     27  C   UNL     1      -5.161  12.920  22.910  0.00  0.00    +0.000 C 
ATOM     28  O   UNL     1      -4.430  13.964  22.229  0.00  0.00    +0.000 OA
ENDBRANCH  19  20
ENDBRANCH   6  19
TORSDOF 5
ENDMDL
MODEL 2
REMARK VINA RESULT:      -7.6      2.710      4.441
REMARK  Name = 
REMARK  7 active torsions:
REMARK  status: ('A' for Active; 'I' for Inactive)
REMARK    1  A    between atoms: C_1  and  O_2
REMARK    2  A    between atoms: O_2  and  C_3
REMARK    3  A    between atoms: C_5  and  O_6
REMARK    4  A    between atoms: O_6  and  C_7
REMARK    5  A    between atoms: C_9  and  C_10
REMARK    6  A    between atoms: N_15  and  C_16
REMARK    7  A    between atoms: C_16  and  C_17
REMARK                            x       y       z     vdW  Elec       q    Type
REMARK                         _______ _______ _______ _____ _____    ______ ____
ROOT
ATOM      1  C   UNL     1       3.296   3.750  17.675  0.00  0.00    +0.000 C 
ATOM      2  O   UNL     1       2.849   2.632  17.415  0.00  0.00    +0.000 OA
ATOM      3  N   UNL     1       2.597   4.688  18.427  0.00  0.00    +0.000 N 
ATOM      4  C   UNL     1       1.393   4.253  19.133  0.00  0.00    +0.000 C 
ATOM      5  C   UNL     1       1.425   4.722  20.605  0.00  0.00    +0.000 C 
ATOM      6  N   UNL     1       1.688   6.171  20.799  0.00  0.00    +0.000 NA
ATOM      7  C   UNL     1       2.892   6.548  20.010  0.00  0.00    +0.000 C 
ATOM      8  C   UNL     1       2.841   6.134  18.526  0.00  0.00    +0.000 C 
ENDROOT
BRANCH   1  13
ATOM      9  C   UNL     1       6.172   4.515  15.318  0.00  0.00    +0.000 A 
ATOM     10  C   UNL     1       7.220   4.661  16.230  0.00  0.00    +0.000 A 
ATOM     11  C   UNL     1       6.995   4.552  17.608  0.00  0.00    +0.000 A 
ATOM     12  C   UNL     1       5.717   4.229  18.067  0.00  0.00    +0.000 A 
ATOM     13  C   UNL     1       4.663   4.059  17.157  0.00  0.00    +0.000 A 
ATOM     14  C   UNL     1       4.886   4.282  15.793  0.00  0.00    +0.000 A 
BRANCH   9  16
ATOM     15  C   UNL     1       6.059   3.589  13.135  0.00  0.00    +0.000 C 
ATOM     16  O   UNL     1       6.516   4.625  13.998  0.00  0.00    +0.000 OA
ENDBRANCH   9  16
BRANCH  11  17
ATOM     17  O   UNL     1       8.100   4.773  18.384  0.00  0.00    +0.000 OA
ATOM     18  C   UNL     1       7.955   5.681  19.470  0.00  0.00    +0.000 C 
ENDBRANCH  11  17
ENDBRANCH   1  13
BRANCH   6  19
ATOM     19  C   UNL     1       0.476   6.963  20.486  0.00  0.00    +0.000 C 
BRANCH  19  20
ATOM     20  C   UNL     1       0.610   8.414  20.897  0.00  0.00    +0.000 A 
ATOM     21  C   UNL     1       0.939   9.407  19.940  0.00  0.00    +0.000 A 
ATOM     22  C   UNL     1       0.743  10.762  20.219  0.00  0.00    +0.000 A 
ATOM     23  C   UNL     1       0.175  11.073  21.433  0.00  0.00    +0.000 A 
ATOM     24  C   UNL     1      -0.063  10.118  22.396  0.00  0.00    +0.000 A 
ATOM     25  C   UNL     1       0.195   8.787  22.184  0.00  0.00    +0.000 A 
ATOM     26  O   UNL     1      -0.723  10.624  23.476  0.00  0.00    +0.000 OA
ATOM     27  C   UNL     1      -1.158  11.872  22.902  0.00  0.00    +0.000 C 
ATOM     28  O   UNL     1      -0.321  12.288  21.800  0.00  0.00    +0.000 OA
ENDBRANCH  19  20
ENDBRANCH   6  19
TORSDOF 5
ENDMDL
MODEL 3
REMARK VINA RESULT:      -7.5      0.368      2.297
REMARK  Name = 
REMARK  7 active torsions:
REMARK  status: ('A' for Active; 'I' for Inactive)
REMARK    1  A    between atoms: C_1  and  O_2
REMARK    2  A    between atoms: O_2  and  C_3
REMARK    3  A    between atoms: C_5  and  O_6
REMARK    4  A    between atoms: O_6  and  C_7
REMARK    5  A    between atoms: C_9  and  C_10
REMARK    6  A    between atoms: N_15  and  C_16
REMARK    7  A    between atoms: C_16  and  C_17
REMARK                            x       y       z     vdW  Elec       q    Type
REMARK                         _______ _______ _______ _____ _____    ______ ____
ROOT
ATOM      1  C   UNL     1       2.172   8.234  18.236  0.00  0.00    +0.000 C 
ATOM      2  O   UNL     1       2.349   8.881  17.202  0.00  0.00    +0.000 OA
ATOM      3  N   UNL     1       1.621   8.784  19.387  0.00  0.00    +0.000 N 
ATOM      4  C   UNL     1       1.010  10.109  19.299  0.00  0.00    +0.000 C 
ATOM      5  C   UNL     1      -0.391  10.108  19.951  0.00  0.00    +0.000 C 
ATOM      6  N   UNL     1      -0.441   9.566  21.333  0.00  0.00    +0.000 NA
ATOM      7  C   UNL     1       0.244   8.245  21.353  0.00  0.00    +0.000 C 
ATOM      8  C   UNL     1       1.665   8.252  20.756  0.00  0.00    +0.000 C 
ENDROOT
BRANCH   1  13
ATOM      9  C   UNL     1       4.247   5.056  18.335  0.00  0.00    +0.000 A 
ATOM     10  C   UNL     1       3.254   4.094  18.140  0.00  0.00    +0.000 A 
ATOM     11  C   UNL     1       1.909   4.464  18.015  0.00  0.00    +0.000 A 
ATOM     12  C   UNL     1       1.570   5.818  18.021  0.00  0.00    +0.000 A 
ATOM     13  C   UNL     1       2.565   6.793  18.196  0.00  0.00    +0.000 A 
ATOM     14  C   UNL     1       3.887   6.396  18.430  0.00  0.00    +0.000 A 
BRANCH   9  16
ATOM     15  C   UNL     1       6.452   5.376  19.157  0.00  0.00    +0.000 C 
ATOM     16  O   UNL     1       5.525   4.576  18.427  0.00  0.00    +0.000 OA
ENDBRANCH   9  16
BRANCH  11  17
ATOM     17  O   UNL     1       1.040   3.415  17.884  0.00  0.00    +0.000 OA
ATOM     18  C   UNL     1       1.303   2.257  18.669  0.00  0.00    +0.000 C 
ENDBRANCH  11  17
ENDBRANCH   1  13
BRANCH   6  19
ATOM     19  C   UNL     1       0.098  10.552  22.297  0.00  0.00    +0.000 C 
BRANCH  19  20
ATOM     20  C   UNL     1      -0.844  11.715  22.525  0.00  0.00    +0.000 A 
ATOM     21  C   UNL     1      -0.631  12.956  21.871  0.00  0.00    +0.000 A 
ATOM     22  C   UNL     1      -1.647  13.912  21.804  0.00  0.00    +0.000 A 
ATOM     23  C   UNL     1      -2.862  13.572  22.353  0.00  0.00    +0.000 A 
ATOM     24  C   UNL     1      -3.043  12.407  23.064  0.00  0.00    +0.000 A 
ATOM     25  C   UNL     1      -2.041  11.482  23.218  0.00  0.00    +0.000 A 
ATOM     26  O   UNL     1      -4.343  12.220  23.429  0.00  0.00    +0.000 OA
ATOM     27  C   UNL     1      -4.956  13.197  22.565  0.00  0.00    +0.000 C 
ATOM     28  O   UNL     1      -4.036  14.243  22.184  0.00  0.00    +0.000 OA
ENDBRANCH  19  20
ENDBRANCH   6  19
TORSDOF 5
ENDMDL
MODEL 4
REMARK VINA RESULT:      -7.4      3.135      5.144
REMARK  Name = 
REMARK  7 active torsions:
REMARK  status: ('A' for Active; 'I' for Inactive)
REMARK    1  A    between atoms: C_1  and  O_2
REMARK    2  A    between atoms: O_2  and  C_3
REMARK    3  A    between atoms: C_5  and  O_6
REMARK    4  A    between atoms: O_6  and  C_7
REMARK    5  A    between atoms: C_9  and  C_10
REMARK    6  A    between atoms: N_15  and  C_16
REMARK    7  A    between atoms: C_16  and  C_17
REMARK                            x       y       z     vdW  Elec       q    Type
REMARK                         _______ _______ _______ _____ _____    ______ ____
ROOT
ATOM      1  C   UNL     1       3.699   3.759  17.317  0.00  0.00    +0.000 C 
ATOM      2  O   UNL     1       3.413   2.561  17.265  0.00  0.00    +0.000 OA
ATOM      3  N   UNL     1       3.029   4.662  18.135  0.00  0.00    +0.000 N 
ATOM      4  C   UNL     1       2.112   4.136  19.144  0.00  0.00    +0.000 C 
ATOM      5  C   UNL     1       2.387   4.780  20.521  0.00  0.00    +0.000 C 
ATOM      6  N   UNL     1       2.422   6.265  20.525  0.00  0.00    +0.000 NA
ATOM      7  C   UNL     1       3.332   6.725  19.441  0.00  0.00    +0.000 C 
ATOM      8  C   UNL     1       3.026   6.129  18.053  0.00  0.00    +0.000 C 
ENDROOT
BRANCH   1  13
ATOM      9  C   UNL     1       6.813   5.568  16.115  0.00  0.00    +0.000 A 
ATOM     10  C   UNL     1       6.961   5.008  14.845  0.00  0.00    +0.000 A 
ATOM     11  C   UNL     1       6.082   4.019  14.387  0.00  0.00    +0.000 A 
ATOM     12  C   UNL     1       5.006   3.637  15.191  0.00  0.00    +0.000 A 
ATOM     13  C   UNL     1       4.837   4.211  16.461  0.00  0.00    +0.000 A 
ATOM     14  C   UNL     1       5.791   5.115  16.943  0.00  0.00    +0.000 A 
BRANCH   9  16
ATOM     15  C   UNL     1       7.597   7.107  17.745  0.00  0.00    +0.000 C 
ATOM     16  O   UNL     1       7.722   6.536  16.445  0.00  0.00    +0.000 OA
ENDBRANCH   9  16
BRANCH  11  17
ATOM     17  O   UNL     1       6.379   3.522  13.148  0.00  0.00    +0.000 OA
ATOM     18  C   UNL     1       5.294   3.351  12.243  0.00  0.00    +0.000 C 
ENDBRANCH  11  17
ENDBRANCH   1  13
BRANCH   6  19
ATOM     19  C   UNL     1       1.050   6.815  20.449  0.00  0.00    +0.000 C 
BRANCH  19  20
ATOM     20  C   UNL     1       0.998   8.292  20.778  0.00  0.00    +0.000 A 
ATOM     21  C   UNL     1       1.019   9.263  19.745  0.00  0.00    +0.000 A 
ATOM     22  C   UNL     1       0.643  10.584  19.998  0.00  0.00    +0.000 A 
ATOM     23  C   UNL     1       0.209  10.878  21.270  0.00  0.00    +0.000 A 
ATOM     24  C   UNL     1       0.272   9.959  22.294  0.00  0.00    +0.000 A 
ATOM     25  C   UNL     1       0.714   8.675  22.098  0.00  0.00    +0.000 A 
ATOM     26  O   UNL     1      -0.303  10.422  23.440  0.00  0.00    +0.000 OA
ATOM     27  C   UNL     1      -1.016  11.547  22.890  0.00  0.00    +0.000 C 
ATOM     28  O   UNL     1      -0.424  12.020  21.659  0.00  0.00    +0.000 OA
ENDBRANCH  19  20
ENDBRANCH   6  19
TORSDOF 5
ENDMDL
MODEL 5
REMARK VINA RESULT:      -7.4      1.173      1.718
REMARK  Name = 
REMARK  7 active torsions:
REMARK  status: ('A' for Active; 'I' for Inactive)
REMARK    1  A    between atoms: C_1  and  O_2
REMARK    2  A    between atoms: O_2  and  C_3
REMARK    3  A    between atoms: C_5  and  O_6
REMARK    4  A    between atoms: O_6  and  C_7
REMARK    5  A    between atoms: C_9  and  C_10
REMARK    6  A    between atoms: N_15  and  C_16
REMARK    7  A    between atoms: C_16  and  C_17
REMARK                            x       y       z     vdW  Elec       q    Type
REMARK                         _______ _______ _______ _____ _____    ______ ____
ROOT
ATOM      1  C   UNL     1       2.330   7.932  18.328  0.00  0.00    +0.000 C 
ATOM      2  O   UNL     1       2.510   8.525  17.263  0.00  0.00    +0.000 OA
ATOM      3  N   UNL     1       1.757   8.535  19.442  0.00  0.00    +0.000 N 
ATOM      4  C   UNL     1       1.130   9.846  19.276  0.00  0.00    +0.000 C 
ATOM      5  C   UNL     1      -0.278   9.861  19.911  0.00  0.00    +0.000 C 
ATOM      6  N   UNL     1      -0.338   9.393  21.319  0.00  0.00    +0.000 NA
ATOM      7  C   UNL     1       0.363   8.085  21.418  0.00  0.00    +0.000 C 
ATOM      8  C   UNL     1       1.791   8.079  20.838  0.00  0.00    +0.000 C 
ENDROOT
BRANCH   1  13
ATOM      9  C   UNL     1       2.245   4.146  18.057  0.00  0.00    +0.000 A 
ATOM     10  C   UNL     1       3.553   3.832  18.436  0.00  0.00    +0.000 A 
ATOM     11  C   UNL     1       4.475   4.841  18.740  0.00  0.00    +0.000 A 
ATOM     12  C   UNL     1       4.059   6.173  18.728  0.00  0.00    +0.000 A 
ATOM     13  C   UNL     1       2.741   6.496  18.370  0.00  0.00    +0.000 A 
ATOM     14  C   UNL     1       1.868   5.481  17.961  0.00  0.00    +0.000 A 
BRANCH   9  16
ATOM     15  C   UNL     1       0.740   2.523  18.915  0.00  0.00    +0.000 C 
ATOM     16  O   UNL     1       1.431   3.077  17.799  0.00  0.00    +0.000 OA
ENDBRANCH   9  16
BRANCH  11  17
ATOM     17  O   UNL     1       5.732   4.391  19.041  0.00  0.00    +0.000 OA
ATOM     18  C   UNL     1       6.725   5.376  19.306  0.00  0.00    +0.000 C 
ENDBRANCH  11  17
ENDBRANCH   1  13
BRANCH   6  19
ATOM     19  C   UNL     1       0.176  10.437  22.234  0.00  0.00    +0.000 C 
BRANCH  19  20
ATOM     20  C   UNL     1      -0.780  11.601  22.382  0.00  0.00    +0.000 A 
ATOM     21  C   UNL     1      -2.010  11.442  23.069  0.00  0.00    +0.000 A 
ATOM     22  C   UNL     1      -2.737  12.555  23.500  0.00  0.00    +0.000 A 
ATOM     23  C   UNL     1      -2.181  13.791  23.271  0.00  0.00    +0.000 A 
ATOM     24  C   UNL     1      -1.032  13.950  22.527  0.00  0.00    +0.000 A 
ATOM     25  C   UNL     1      -0.336  12.882  22.020  0.00  0.00    +0.000 A 
ATOM     26  O   UNL     1      -0.601  15.243  22.512  0.00  0.00    +0.000 OA
ATOM     27  C   UNL     1      -1.397  15.754  23.599  0.00  0.00    +0.000 C 
ATOM     28  O   UNL     1      -2.593  14.971  23.814  0.00  0.00    +0.000 OA
ENDBRANCH  19  20
ENDBRANCH   6  19
TORSDOF 5
ENDMDL
MODEL 6
REMARK VINA RESULT:      -7.3      1.315      1.321
REMARK  Name = 
REMARK  7 active torsions:
REMARK  status: ('A' for Active; 'I' for Inactive)
REMARK    1  A    between atoms: C_1  and  O_2
REMARK    2  A    between atoms: O_2  and  C_3
REMARK    3  A    between atoms: C_5  and  O_6
REMARK    4  A    between atoms: O_6  and  C_7
REMARK    5  A    between atoms: C_9  and  C_10
REMARK    6  A    between atoms: N_15  and  C_16
REMARK    7  A    between atoms: C_16  and  C_17
REMARK                            x       y       z     vdW  Elec       q    Type
REMARK                         _______ _______ _______ _____ _____    ______ ____
ROOT
ATOM      1  C   UNL     1       2.069   7.997  18.723  0.00  0.00    +0.000 C 
ATOM      2  O   UNL     1       2.240   8.220  17.522  0.00  0.00    +0.000 OA
ATOM      3  N   UNL     1       1.530   8.935  19.596  0.00  0.00    +0.000 N 
ATOM      4  C   UNL     1       0.927  10.142  19.033  0.00  0.00    +0.000 C 
ATOM      5  C   UNL     1      -0.468  10.392  19.648  0.00  0.00    +0.000 C 
ATOM      6  N   UNL     1      -0.510  10.393  21.133  0.00  0.00    +0.000 NA
ATOM      7  C   UNL     1       0.167   9.165  21.631  0.00  0.00    +0.000 C 
ATOM      8  C   UNL     1       1.583   8.941  21.064  0.00  0.00    +0.000 C 
ENDROOT
BRANCH   1  13
ATOM      9  C   UNL     1       1.867   4.503  20.194  0.00  0.00    +0.000 A 
ATOM     10  C   UNL     1       3.200   4.101  20.085  0.00  0.00    +0.000 A 
ATOM     11  C   UNL     1       4.158   4.939  19.501  0.00  0.00    +0.000 A 
ATOM     12  C   UNL     1       3.785   6.217  19.084  0.00  0.00    +0.000 A 
ATOM     13  C   UNL     1       2.452   6.638  19.210  0.00  0.00    +0.000 A 
ATOM     14  C   UNL     1       1.488   5.744  19.692  0.00  0.00    +0.000 A 
BRANCH   9  16
ATOM     15  C   UNL     1       1.630   2.655  21.666  0.00  0.00    +0.000 C 
ATOM     16  O   UNL     1       1.025   3.608  20.795  0.00  0.00    +0.000 OA
ENDBRANCH   9  16
BRANCH  11  17
ATOM     17  O   UNL     1       5.410   4.394  19.411  0.00  0.00    +0.000 OA
ATOM     18  C   UNL     1       6.445   5.234  18.910  0.00  0.00    +0.000 C 
ENDBRANCH  11  17
ENDBRANCH   1  13
BRANCH   6  19
ATOM     19  C   UNL     1       0.044  11.659  21.666  0.00  0.00    +0.000 C 
BRANCH  19  20
ATOM     20  C   UNL     1      -0.900  12.345  22.630  0.00  0.00    +0.000 A 
ATOM     21  C   UNL     1      -0.781  13.733  22.892  0.00  0.00    +0.000 A 
ATOM     22  C   UNL     1      -1.822  14.438  23.502  0.00  0.00    +0.000 A 
ATOM     23  C   UNL     1      -2.970  13.735  23.785  0.00  0.00    +0.000 A 
ATOM     24  C   UNL     1      -3.054  12.371  23.613  0.00  0.00    +0.000 A 
ATOM     25  C   UNL     1      -2.019  11.635  23.091  0.00  0.00    +0.000 A 
ATOM     26  O   UNL     1      -4.308  11.894  23.855  0.00  0.00    +0.000 OA
ATOM     27  C   UNL     1      -5.025  13.144  23.837  0.00  0.00    +0.000 C 
ATOM     28  O   UNL     1      -4.171  14.268  24.146  0.00  0.00    +0.000 OA
ENDBRANCH  19  20
ENDBRANCH   6  19
TORSDOF 5
ENDMDL
MODEL 7
REMARK VINA RESULT:      -7.3      3.269      9.716
REMARK  Name = 
REMARK  7 active torsions:
REMARK  status: ('A' for Active; 'I' for Inactive)
REMARK    1  A    between atoms: C_1  and  O_2
REMARK    2  A    between atoms: O_2  and  C_3
REMARK    3  A    between atoms: C_5  and  O_6
REMARK    4  A    between atoms: O_6  and  C_7
REMARK    5  A    between atoms: C_9  and  C_10
REMARK    6  A    between atoms: N_15  and  C_16
REMARK    7  A    between atoms: C_16  and  C_17
REMARK                            x       y       z     vdW  Elec       q    Type
REMARK                         _______ _______ _______ _____ _____    ______ ____
ROOT
ATOM      1  C   UNL     1       0.347   9.413  20.469  0.00  0.00    +0.000 C 
ATOM      2  O   UNL     1      -0.054   9.417  21.634  0.00  0.00    +0.000 OA
ATOM      3  N   UNL     1       1.349   8.562  20.017  0.00  0.00    +0.000 N 
ATOM      4  C   UNL     1       1.779   7.471  20.889  0.00  0.00    +0.000 C 
ATOM      5  C   UNL     1       1.814   6.135  20.115  0.00  0.00    +0.000 C 
ATOM      6  N   UNL     1       2.584   6.164  18.844  0.00  0.00    +0.000 NA
ATOM      7  C   UNL     1       2.129   7.328  18.037  0.00  0.00    +0.000 C 
ATOM      8  C   UNL     1       2.147   8.674  18.788  0.00  0.00    +0.000 C 
ENDROOT
BRANCH   1  13
ATOM      9  C   UNL     1      -1.820  10.819  17.687  0.00  0.00    +0.000 A 
ATOM     10  C   UNL     1      -1.556  12.184  17.820  0.00  0.00    +0.000 A 
ATOM     11  C   UNL     1      -0.710  12.658  18.831  0.00  0.00    +0.000 A 
ATOM     12  C   UNL     1      -0.074  11.744  19.673  0.00  0.00    +0.000 A 
ATOM     13  C   UNL     1      -0.317  10.369  19.532  0.00  0.00    +0.000 A 
ATOM     14  C   UNL     1      -1.251   9.926  18.588  0.00  0.00    +0.000 A 
BRANCH   9  16
ATOM     15  C   UNL     1      -3.855  11.221  16.532  0.00  0.00    +0.000 C 
ATOM     16  O   UNL     1      -2.648  10.475  16.653  0.00  0.00    +0.000 OA
ENDBRANCH   9  16
BRANCH  11  17
ATOM     17  O   UNL     1      -0.586  14.020  18.878  0.00  0.00    +0.000 OA
ATOM     18  C   UNL     1       0.734  14.550  18.829  0.00  0.00    +0.000 C 
ENDBRANCH  11  17
ENDBRANCH   1  13
BRANCH   6  19
ATOM     19  C   UNL     1       4.038   6.138  19.120  0.00  0.00    +0.000 C 
BRANCH  19  20
ATOM     20  C   UNL     1       4.798   5.262  18.147  0.00  0.00    +0.000 A 
ATOM     21  C   UNL     1       4.209   4.082  17.627  0.00  0.00    +0.000 A 
ATOM     22  C   UNL     1       4.744   3.453  16.500  0.00  0.00    +0.000 A 
ATOM     23  C   UNL     1       5.825   4.057  15.902  0.00  0.00    +0.000 A 
ATOM     24  C   UNL     1       6.451   5.151  16.456  0.00  0.00    +0.000 A 
ATOM     25  C   UNL     1       6.000   5.746  17.608  0.00  0.00    +0.000 A 
ATOM     26  O   UNL     1       7.430   5.651  15.650  0.00  0.00    +0.000 OA
ATOM     27  C   UNL     1       7.079   4.970  14.430  0.00  0.00    +0.000 C 
ATOM     28  O   UNL     1       6.339   3.754  14.676  0.00  0.00    +0.000 OA
ENDBRANCH  19  20
ENDBRANCH   6  19
TORSDOF 5
ENDMDL
MODEL 8
REMARK VINA RESULT:      -7.3      1.241      2.945
REMARK  Name = 
REMARK  7 active torsions:
REMARK  status: ('A' for Active; 'I' for Inactive)
REMARK    1  A    between atoms: C_1  and  O_2
REMARK    2  A    between atoms: O_2  and  C_3
REMARK    3  A    between atoms: C_5  and  O_6
REMARK    4  A    between atoms: O_6  and  C_7
REMARK    5  A    between atoms: C_9  and  C_10
REMARK    6  A    between atoms: N_15  and  C_16
REMARK    7  A    between atoms: C_16  and  C_17
REMARK                            x       y       z     vdW  Elec       q    Type
REMARK                         _______ _______ _______ _____ _____    ______ ____
ROOT
ATOM      1  C   UNL     1       2.426   7.871  18.269  0.00  0.00    +0.000 C 
ATOM      2  O   UNL     1       2.630   8.507  17.234  0.00  0.00    +0.000 OA
ATOM      3  N   UNL     1       1.835   8.430  19.397  0.00  0.00    +0.000 N 
ATOM      4  C   UNL     1       1.219   9.750  19.274  0.00  0.00    +0.000 C 
ATOM      5  C   UNL     1      -0.201   9.747  19.883  0.00  0.00    +0.000 C 
ATOM      6  N   UNL     1      -0.291   9.220  21.268  0.00  0.00    +0.000 NA
ATOM      7  C   UNL     1       0.401   7.905  21.325  0.00  0.00    +0.000 C 
ATOM      8  C   UNL     1       1.840   7.914  20.772  0.00  0.00    +0.000 C 
ENDROOT
BRANCH   1  13
ATOM      9  C   UNL     1       4.495   4.701  18.565  0.00  0.00    +0.000 A 
ATOM     10  C   UNL     1       3.535   3.737  18.251  0.00  0.00    +0.000 A 
ATOM     11  C   UNL     1       2.210   4.103  17.981  0.00  0.00    +0.000 A 
ATOM     12  C   UNL     1       1.865   5.455  17.964  0.00  0.00    +0.000 A 
ATOM     13  C   UNL     1       2.828   6.432  18.258  0.00  0.00    +0.000 A 
ATOM     14  C   UNL     1       4.119   6.038  18.633  0.00  0.00    +0.000 A 
BRANCH   9  16
ATOM     15  C   UNL     1       6.822   4.917  18.143  0.00  0.00    +0.000 C 
ATOM     16  O   UNL     1       5.758   4.227  18.793  0.00  0.00    +0.000 OA
ENDBRANCH   9  16
BRANCH  11  17
ATOM     17  O   UNL     1       1.367   3.051  17.744  0.00  0.00    +0.000 OA
ATOM     18  C   UNL     1       0.763   2.439  18.878  0.00  0.00    +0.000 C 
ENDBRANCH  11  17
ENDBRANCH   1  13
BRANCH   6  19
ATOM     19  C   UNL     1       0.212  10.221  22.237  0.00  0.00    +0.000 C 
BRANCH  19  20
ATOM     20  C   UNL     1      -0.675  11.446  22.318  0.00  0.00    +0.000 A 
ATOM     21  C   UNL     1      -1.888  11.411  23.050  0.00  0.00    +0.000 A 
ATOM     22  C   UNL     1      -2.539  12.593  23.411  0.00  0.00    +0.000 A 
ATOM     23  C   UNL     1      -1.925  13.775  23.067  0.00  0.00    +0.000 A 
ATOM     24  C   UNL     1      -0.795  13.810  22.280  0.00  0.00    +0.000 A 
ATOM     25  C   UNL     1      -0.175  12.667  21.840  0.00  0.00    +0.000 A 
ATOM     26  O   UNL     1      -0.295  15.071  22.149  0.00  0.00    +0.000 OA
ATOM     27  C   UNL     1      -1.026  15.710  23.213  0.00  0.00    +0.000 C 
ATOM     28  O   UNL     1      -2.254  15.015  23.526  0.00  0.00    +0.000 OA
ENDBRANCH  19  20
ENDBRANCH   6  19
TORSDOF 5
ENDMDL
MODEL 9
REMARK VINA RESULT:      -7.2      1.310      1.358
REMARK  Name = 
REMARK  7 active torsions:
REMARK  status: ('A' for Active; 'I' for Inactive)
REMARK    1  A    between atoms: C_1  and  O_2
REMARK    2  A    between atoms: O_2  and  C_3
REMARK    3  A    between atoms: C_5  and  O_6
REMARK    4  A    between atoms: O_6  and  C_7
REMARK    5  A    between atoms: C_9  and  C_10
REMARK    6  A    between atoms: N_15  and  C_16
REMARK    7  A    between atoms: C_16  and  C_17
REMARK                            x       y       z     vdW  Elec       q    Type
REMARK                         _______ _______ _______ _____ _____    ______ ____
ROOT
ATOM      1  C   UNL     1       2.193   8.083  18.608  0.00  0.00    +0.000 C 
ATOM      2  O   UNL     1       2.444   8.427  17.451  0.00  0.00    +0.000 OA
ATOM      3  N   UNL     1       1.511   8.894  19.508  0.00  0.00    +0.000 N 
ATOM      4  C   UNL     1       0.860  10.100  18.999  0.00  0.00    +0.000 C 
ATOM      5  C   UNL     1      -0.596  10.190  19.507  0.00  0.00    +0.000 C 
ATOM      6  N   UNL     1      -0.759  10.051  20.977  0.00  0.00    +0.000 NA
ATOM      7  C   UNL     1      -0.028   8.835  21.425  0.00  0.00    +0.000 C 
ATOM      8  C   UNL     1       1.443   8.768  20.970  0.00  0.00    +0.000 C 
ENDROOT
BRANCH   1  13
ATOM      9  C   UNL     1       2.479   4.774  20.447  0.00  0.00    +0.000 A 
ATOM     10  C   UNL     1       3.492   4.158  19.711  0.00  0.00    +0.000 A 
ATOM     11  C   UNL     1       4.058   4.789  18.596  0.00  0.00    +0.000 A 
ATOM     12  C   UNL     1       3.646   6.080  18.261  0.00  0.00    +0.000 A 
ATOM     13  C   UNL     1       2.643   6.716  19.009  0.00  0.00    +0.000 A 
ATOM     14  C   UNL     1       2.013   6.023  20.049  0.00  0.00    +0.000 A 
BRANCH   9  16
ATOM     15  C   UNL     1       1.454   2.788  21.247  0.00  0.00    +0.000 C 
ATOM     16  O   UNL     1       2.016   4.068  21.523  0.00  0.00    +0.000 OA
ENDBRANCH   9  16
BRANCH  11  17
ATOM     17  O   UNL     1       5.000   4.046  17.938  0.00  0.00    +0.000 OA
ATOM     18  C   UNL     1       6.142   4.740  17.446  0.00  0.00    +0.000 C 
ENDBRANCH  11  17
ENDBRANCH   1  13
BRANCH   6  19
ATOM     19  C   UNL     1      -0.355  11.299  21.663  0.00  0.00    +0.000 C 
BRANCH  19  20
ATOM     20  C   UNL     1      -1.539  12.167  22.034  0.00  0.00    +0.000 A 
ATOM     21  C   UNL     1      -2.166  12.987  21.062  0.00  0.00    +0.000 A 
ATOM     22  C   UNL     1      -3.434  13.526  21.291  0.00  0.00    +0.000 A 
ATOM     23  C   UNL     1      -4.054  13.184  22.470  0.00  0.00    +0.000 A 
ATOM     24  C   UNL     1      -3.412  12.461  23.451  0.00  0.00    +0.000 A 
ATOM     25  C   UNL     1      -2.135  11.985  23.291  0.00  0.00    +0.000 A 
ATOM     26  O   UNL     1      -4.240  12.146  24.487  0.00  0.00    +0.000 OA
ATOM     27  C   UNL     1      -5.502  12.441  23.858  0.00  0.00    +0.000 C 
ATOM     28  O   UNL     1      -5.365  13.393  22.779  0.00  0.00    +0.000 OA
ENDBRANCH  19  20
ENDBRANCH   6  19
TORSDOF 5
ENDMDL
