MODEL 1
REMARK VINA RESULT:      -8.3      0.000      0.000
REMARK  Name = 
REMARK  8 active torsions:
REMARK  status: ('A' for Active; 'I' for Inactive)
REMARK    1  A    between atoms: C_1  and  C_2
REMARK    2  A    between atoms: C_2  and  C_3
REMARK    3  A    between atoms: C_5  and  C_6
REMARK    4  A    between atoms: C_6  and  C_7
REMARK    5  A    between atoms: C_7  and  C_8
REMARK    6  A    between atoms: C_14  and  C_15
REMARK    7  A    between atoms: C_18  and  O_19
REMARK    8  A    between atoms: C_21  and  C_22
REMARK                            x       y       z     vdW  Elec       q    Type
REMARK                         _______ _______ _______ _____ _____    ______ ____
ROOT
ATOM      1  C   UNL     1       8.440   7.572  18.596  0.00  0.00    +0.000 C 
ENDROOT
BRANCH   1   4
ATOM      2  C   UNL     1       5.873   5.399  16.767  0.00  0.00    +0.000 A 
ATOM      3  C   UNL     1       6.821   6.406  17.026  0.00  0.00    +0.000 A 
ATOM      4  C   UNL     1       7.425   6.504  18.278  0.00  0.00    +0.000 A 
ATOM      5  C   UNL     1       7.070   5.545  19.206  0.00  0.00    +0.000 A 
ATOM      6  N   UNL     1       6.211   4.531  19.004  0.00  0.00    +0.000 NA
ATOM      7  C   UNL     1       5.594   4.480  17.788  0.00  0.00    +0.000 A 
ATOM      8  C   UNL     1       4.568   3.396  17.611  0.00  0.00    +0.000 C 
BRANCH   2  10
ATOM      9  C   UNL     1       5.950   4.533  14.380  0.00  0.00    +0.000 C 
ATOM     10  C   UNL     1       5.203   5.368  15.412  0.00  0.00    +0.000 C 
ENDBRANCH   2  10
BRANCH   5  11
ATOM     11  O   UNL     1       7.682   5.554  20.424  0.00  0.00    +0.000 OA
ATOM     12  H   UNL     1       8.605   5.731  20.177  0.00  0.00    +0.000 HD
ENDBRANCH   5  11
ENDBRANCH   1   4
BRANCH   1  13
ATOM     13  C   UNL     1       8.178   8.896  17.867  0.00  0.00    +0.000 C 
BRANCH  13  14
ATOM     14  C   UNL     1       8.960  10.019  18.471  0.00  0.00    +0.000 A 
ATOM     15  N   UNL     1       9.117  10.302  19.749  0.00  0.00    +0.000 NA
ATOM     16  C   UNL     1       9.908  11.422  19.739  0.00  0.00    +0.000 A 
ATOM     17  C   UNL     1      10.393  12.198  20.806  0.00  0.00    +0.000 A 
ATOM     18  C   UNL     1      11.176  13.318  20.503  0.00  0.00    +0.000 A 
ATOM     19  C   UNL     1      11.461  13.651  19.178  0.00  0.00    +0.000 A 
ATOM     20  C   UNL     1      10.983  12.908  18.083  0.00  0.00    +0.000 A 
ATOM     21  C   UNL     1      11.271  13.330  16.680  0.00  0.00    +0.000 C 
ATOM     22  C   UNL     1      10.205  11.788  18.444  0.00  0.00    +0.000 A 
ATOM     23  O   UNL     1       9.601  10.877  17.609  0.00  0.00    +0.000 OA
ENDBRANCH  13  14
ENDBRANCH   1  13
TORSDOF 5
ENDMDL
MODEL 2
REMARK VINA RESULT:      -8.0      5.994      7.390
REMARK  Name = 
REMARK  8 active torsions:
REMARK  status: ('A' for Active; 'I' for Inactive)
REMARK    1  A    between atoms: C_1  and  C_2
REMARK    2  A    between atoms: C_2  and  C_3
REMARK    3  A    between atoms: C_5  and  C_6
REMARK    4  A    between atoms: C_6  and  C_7
REMARK    5  A    between atoms: C_7  and  C_8
REMARK    6  A    between atoms: C_14  and  C_15
REMARK    7  A    between atoms: C_18  and  O_19
REMARK    8  A    between atoms: C_21  and  C_22
REMARK                            x       y       z     vdW  Elec       q    Type
REMARK                         _______ _______ _______ _____ _____    ______ ____
ROOT
ATOM      1  C   UNL     1       5.200   3.599  17.168  0.00  0.00    +0.000 C 
ENDROOT
BRANCH   1   4
ATOM      2  C   UNL     1       6.413   3.994  13.558  0.00  0.00    +0.000 A 
ATOM      3  C   UNL     1       5.697   3.534  14.679  0.00  0.00    +0.000 A 
ATOM      4  C   UNL     1       5.942   4.068  15.943  0.00  0.00    +0.000 A 
ATOM      5  C   UNL     1       6.879   5.081  16.009  0.00  0.00    +0.000 A 
ATOM      6  N   UNL     1       7.558   5.596  14.970  0.00  0.00    +0.000 NA
ATOM      7  C   UNL     1       7.340   5.028  13.749  0.00  0.00    +0.000 A 
ATOM      8  C   UNL     1       8.175   5.553  12.615  0.00  0.00    +0.000 C 
BRANCH   2  10
ATOM      9  C   UNL     1       4.685   3.355  11.809  0.00  0.00    +0.000 C 
ATOM     10  C   UNL     1       6.152   3.344  12.218  0.00  0.00    +0.000 C 
ENDBRANCH   2  10
BRANCH   5  11
ATOM     11  O   UNL     1       7.107   5.684  17.210  0.00  0.00    +0.000 OA
ATOM     12  H   UNL     1       6.485   5.211  17.787  0.00  0.00    +0.000 HD
ENDBRANCH   5  11
ENDBRANCH   1   4
BRANCH   1  13
ATOM     13  C   UNL     1       3.675   3.712  17.036  0.00  0.00    +0.000 C 
BRANCH  13  14
ATOM     14  C   UNL     1       3.113   4.697  18.011  0.00  0.00    +0.000 A 
ATOM     15  N   UNL     1       2.683   4.471  19.236  0.00  0.00    +0.000 NA
ATOM     16  C   UNL     1       2.272   5.704  19.671  0.00  0.00    +0.000 A 
ATOM     17  C   UNL     1       1.698   6.089  20.895  0.00  0.00    +0.000 A 
ATOM     18  C   UNL     1       1.352   7.435  21.066  0.00  0.00    +0.000 A 
ATOM     19  C   UNL     1       1.571   8.362  20.046  0.00  0.00    +0.000 A 
ATOM     20  C   UNL     1       2.130   8.013  18.803  0.00  0.00    +0.000 A 
ATOM     21  C   UNL     1       2.299   9.030  17.722  0.00  0.00    +0.000 C 
ATOM     22  C   UNL     1       2.465   6.648  18.685  0.00  0.00    +0.000 A 
ATOM     23  O   UNL     1       3.020   6.007  17.603  0.00  0.00    +0.000 OA
ENDBRANCH  13  14
ENDBRANCH   1  13
TORSDOF 5
ENDMDL
MODEL 3
REMARK VINA RESULT:      -8.0      5.241      7.410
REMARK  Name = 
REMARK  8 active torsions:
REMARK  status: ('A' for Active; 'I' for Inactive)
REMARK    1  A    between atoms: C_1  and  C_2
REMARK    2  A    between atoms: C_2  and  C_3
REMARK    3  A    between atoms: C_5  and  C_6
REMARK    4  A    between atoms: C_6  and  C_7
REMARK    5  A    between atoms: C_7  and  C_8
REMARK    6  A    between atoms: C_14  and  C_15
REMARK    7  A    between atoms: C_18  and  O_19
REMARK    8  A    between atoms: C_21  and  C_22
REMARK                            x       y       z     vdW  Elec       q    Type
REMARK                         _______ _______ _______ _____ _____    ______ ____
ROOT
ATOM      1  C   UNL     1       1.802   2.665  18.289  0.00  0.00    +0.000 C 
ENDROOT
BRANCH   1   4
ATOM      2  C   UNL     1       2.044   6.439  18.885  0.00  0.00    +0.000 A 
ATOM      3  C   UNL     1       2.095   5.187  18.245  0.00  0.00    +0.000 A 
ATOM      4  C   UNL     1       1.755   4.025  18.937  0.00  0.00    +0.000 A 
ATOM      5  C   UNL     1       1.336   4.190  20.243  0.00  0.00    +0.000 A 
ATOM      6  N   UNL     1       1.219   5.361  20.892  0.00  0.00    +0.000 NA
ATOM      7  C   UNL     1       1.602   6.481  20.215  0.00  0.00    +0.000 A 
ATOM      8  C   UNL     1       1.553   7.771  20.985  0.00  0.00    +0.000 C 
BRANCH   2  10
ATOM      9  C   UNL     1       3.809   7.494  17.393  0.00  0.00    +0.000 C 
ATOM     10  C   UNL     1       2.476   7.664  18.110  0.00  0.00    +0.000 C 
ENDBRANCH   2  10
BRANCH   5  11
ATOM     11  O   UNL     1       0.928   3.094  20.943  0.00  0.00    +0.000 OA
ATOM     12  H   UNL     1       0.487   2.574  20.251  0.00  0.00    +0.000 HD
ENDBRANCH   5  11
ENDBRANCH   1   4
BRANCH   1  13
ATOM     13  C   UNL     1       3.188   2.010  18.352  0.00  0.00    +0.000 C 
BRANCH  13  14
ATOM     14  C   UNL     1       4.280   3.026  18.244  0.00  0.00    +0.000 A 
ATOM     15  N   UNL     1       4.961   3.591  19.221  0.00  0.00    +0.000 NA
ATOM     16  C   UNL     1       5.820   4.439  18.570  0.00  0.00    +0.000 A 
ATOM     17  C   UNL     1       6.779   5.328  19.086  0.00  0.00    +0.000 A 
ATOM     18  C   UNL     1       7.516   6.100  18.180  0.00  0.00    +0.000 A 
ATOM     19  C   UNL     1       7.299   5.986  16.806  0.00  0.00    +0.000 A 
ATOM     20  C   UNL     1       6.339   5.120  16.253  0.00  0.00    +0.000 A 
ATOM     21  C   UNL     1       6.105   5.069  14.779  0.00  0.00    +0.000 C 
ATOM     22  C   UNL     1       5.629   4.362  17.208  0.00  0.00    +0.000 A 
ATOM     23  O   UNL     1       4.636   3.439  16.982  0.00  0.00    +0.000 OA
ENDBRANCH  13  14
ENDBRANCH   1  13
TORSDOF 5
ENDMDL
MODEL 4
REMARK VINA RESULT:      -7.7      5.701      7.630
REMARK  Name = 
REMARK  8 active torsions:
REMARK  status: ('A' for Active; 'I' for Inactive)
REMARK    1  A    between atoms: C_1  and  C_2
REMARK    2  A    between atoms: C_2  and  C_3
REMARK    3  A    between atoms: C_5  and  C_6
REMARK    4  A    between atoms: C_6  and  C_7
REMARK    5  A    between atoms: C_7  and  C_8
REMARK    6  A    between atoms: C_14  and  C_15
REMARK    7  A    between atoms: C_18  and  O_19
REMARK    8  A    between atoms: C_21  and  C_22
REMARK                            x       y       z     vdW  Elec       q    Type
REMARK                         _______ _______ _______ _____ _____    ______ ____
ROOT
ATOM      1  C   UNL     1       5.942   4.701  18.542  0.00  0.00    +0.000 C 
ENDROOT
BRANCH   1   4
ATOM      2  C   UNL     1       2.427   5.100  20.006  0.00  0.00    +0.000 A 
ATOM      3  C   UNL     1       3.755   5.383  19.635  0.00  0.00    +0.000 A 
ATOM      4  C   UNL     1       4.516   4.437  18.951  0.00  0.00    +0.000 A 
ATOM      5  C   UNL     1       3.881   3.252  18.635  0.00  0.00    +0.000 A 
ATOM      6  N   UNL     1       2.603   2.942  18.916  0.00  0.00    +0.000 NA
ATOM      7  C   UNL     1       1.889   3.861  19.628  0.00  0.00    +0.000 A 
ATOM      8  C   UNL     1       0.494   3.461  20.015  0.00  0.00    +0.000 C 
BRANCH   2  10
ATOM      9  C   UNL     1       1.935   7.567  20.354  0.00  0.00    +0.000 C 
ATOM     10  C   UNL     1       1.661   6.136  20.796  0.00  0.00    +0.000 C 
ENDBRANCH   2  10
BRANCH   5  11
ATOM     11  O   UNL     1       4.558   2.320  17.907  0.00  0.00    +0.000 OA
ATOM     12  H   UNL     1       3.850   1.695  17.682  0.00  0.00    +0.000 HD
ENDBRANCH   5  11
ENDBRANCH   1   4
BRANCH   1  13
ATOM     13  C   UNL     1       6.078   5.812  17.492  0.00  0.00    +0.000 C 
BRANCH  13  14
ATOM     14  C   UNL     1       6.157   5.251  16.107  0.00  0.00    +0.000 A 
ATOM     15  N   UNL     1       5.388   4.331  15.560  0.00  0.00    +0.000 NA
ATOM     16  C   UNL     1       5.899   4.189  14.296  0.00  0.00    +0.000 A 
ATOM     17  C   UNL     1       5.508   3.335  13.250  0.00  0.00    +0.000 A 
ATOM     18  C   UNL     1       6.229   3.387  12.052  0.00  0.00    +0.000 A 
ATOM     19  C   UNL     1       7.306   4.263  11.906  0.00  0.00    +0.000 A 
ATOM     20  C   UNL     1       7.737   5.122  12.933  0.00  0.00    +0.000 A 
ATOM     21  C   UNL     1       8.926   6.007  12.750  0.00  0.00    +0.000 C 
ATOM     22  C   UNL     1       6.973   5.034  14.116  0.00  0.00    +0.000 A 
ATOM     23  O   UNL     1       7.145   5.737  15.285  0.00  0.00    +0.000 OA
ENDBRANCH  13  14
ENDBRANCH   1  13
TORSDOF 5
ENDMDL
MODEL 5
REMARK VINA RESULT:      -7.6      6.413      8.154
REMARK  Name = 
REMARK  8 active torsions:
REMARK  status: ('A' for Active; 'I' for Inactive)
REMARK    1  A    between atoms: C_1  and  C_2
REMARK    2  A    between atoms: C_2  and  C_3
REMARK    3  A    between atoms: C_5  and  C_6
REMARK    4  A    between atoms: C_6  and  C_7
REMARK    5  A    between atoms: C_7  and  C_8
REMARK    6  A    between atoms: C_14  and  C_15
REMARK    7  A    between atoms: C_18  and  O_19
REMARK    8  A    between atoms: C_21  and  C_22
REMARK                            x       y       z     vdW  Elec       q    Type
REMARK                         _______ _______ _______ _____ _____    ______ ____
ROOT
ATOM      1  C   UNL     1       3.227   7.669  18.158  0.00  0.00    +0.000 C 
ENDROOT
BRANCH   1   4
ATOM      2  C   UNL     1       2.056   4.074  18.760  0.00  0.00    +0.000 A 
ATOM      3  C   UNL     1       2.130   5.478  18.822  0.00  0.00    +0.000 A 
ATOM      4  C   UNL     1       3.112   6.168  18.112  0.00  0.00    +0.000 A 
ATOM      5  C   UNL     1       3.956   5.401  17.333  0.00  0.00    +0.000 A 
ATOM      6  N   UNL     1       3.905   4.065  17.192  0.00  0.00    +0.000 NA
ATOM      7  C   UNL     1       2.968   3.404  17.932  0.00  0.00    +0.000 A 
ATOM      8  C   UNL     1       2.986   1.905  17.835  0.00  0.00    +0.000 C 
BRANCH   2  10
ATOM      9  C   UNL     1       1.415   3.176  21.047  0.00  0.00    +0.000 C 
ATOM     10  C   UNL     1       1.010   3.368  19.592  0.00  0.00    +0.000 C 
ENDBRANCH   2  10
BRANCH   5  11
ATOM     11  O   UNL     1       4.890   6.031  16.565  0.00  0.00    +0.000 OA
ATOM     12  H   UNL     1       4.735   6.962  16.793  0.00  0.00    +0.000 HD
ENDBRANCH   5  11
ENDBRANCH   1   4
BRANCH   1  13
ATOM     13  C   UNL     1       1.899   8.389  17.885  0.00  0.00    +0.000 C 
BRANCH  13  14
ATOM     14  C   UNL     1       1.291   8.915  19.146  0.00  0.00    +0.000 A 
ATOM     15  N   UNL     1       1.433   8.448  20.370  0.00  0.00    +0.000 NA
ATOM     16  C   UNL     1       0.661   9.289  21.131  0.00  0.00    +0.000 A 
ATOM     17  C   UNL     1       0.401   9.278  22.512  0.00  0.00    +0.000 A 
ATOM     18  C   UNL     1      -0.453  10.260  23.028  0.00  0.00    +0.000 A 
ATOM     19  C   UNL     1      -1.028  11.217  22.191  0.00  0.00    +0.000 A 
ATOM     20  C   UNL     1      -0.803  11.251  20.803  0.00  0.00    +0.000 A 
ATOM     21  C   UNL     1      -1.480  12.263  19.937  0.00  0.00    +0.000 C 
ATOM     22  C   UNL     1       0.068  10.245  20.335  0.00  0.00    +0.000 A 
ATOM     23  O   UNL     1       0.477  10.018  19.042  0.00  0.00    +0.000 OA
ENDBRANCH  13  14
ENDBRANCH   1  13
TORSDOF 5
ENDMDL
MODEL 6
REMARK VINA RESULT:      -7.5      6.464      8.828
REMARK  Name = 
REMARK  8 active torsions:
REMARK  status: ('A' for Active; 'I' for Inactive)
REMARK    1  A    between atoms: C_1  and  C_2
REMARK    2  A    between atoms: C_2  and  C_3
REMARK    3  A    between atoms: C_5  and  C_6
REMARK    4  A    between atoms: C_6  and  C_7
REMARK    5  A    between atoms: C_7  and  C_8
REMARK    6  A    between atoms: C_14  and  C_15
REMARK    7  A    between atoms: C_18  and  O_19
REMARK    8  A    between atoms: C_21  and  C_22
REMARK                            x       y       z     vdW  Elec       q    Type
REMARK                         _______ _______ _______ _____ _____    ______ ____
ROOT
ATOM      1  C   UNL     1       5.224   5.539  15.471  0.00  0.00    +0.000 C 
ENDROOT
BRANCH   1   4
ATOM      2  C   UNL     1       5.422   3.377  12.318  0.00  0.00    +0.000 A 
ATOM      3  C   UNL     1       4.901   4.068  13.428  0.00  0.00    +0.000 A 
ATOM      4  C   UNL     1       5.743   4.790  14.271  0.00  0.00    +0.000 A 
ATOM      5  C   UNL     1       7.081   4.813  13.928  0.00  0.00    +0.000 A 
ATOM      6  N   UNL     1       7.631   4.215  12.857  0.00  0.00    +0.000 NA
ATOM      7  C   UNL     1       6.799   3.475  12.070  0.00  0.00    +0.000 A 
ATOM      8  C   UNL     1       7.445   2.738  10.931  0.00  0.00    +0.000 C 
BRANCH   2  10
ATOM      9  C   UNL     1       3.499   3.407  10.660  0.00  0.00    +0.000 C 
ATOM     10  C   UNL     1       4.477   2.562  11.465  0.00  0.00    +0.000 C 
ENDBRANCH   2  10
BRANCH   5  11
ATOM     11  O   UNL     1       7.938   5.559  14.681  0.00  0.00    +0.000 OA
ATOM     12  H   UNL     1       8.787   5.126  14.498  0.00  0.00    +0.000 HD
ENDBRANCH   5  11
ENDBRANCH   1   4
BRANCH   1  13
ATOM     13  C   UNL     1       5.594   4.879  16.807  0.00  0.00    +0.000 C 
BRANCH  13  14
ATOM     14  C   UNL     1       4.384   4.353  17.512  0.00  0.00    +0.000 A 
ATOM     15  N   UNL     1       3.769   3.204  17.319  0.00  0.00    +0.000 NA
ATOM     16  C   UNL     1       2.730   3.237  18.213  0.00  0.00    +0.000 A 
ATOM     17  C   UNL     1       1.713   2.297  18.456  0.00  0.00    +0.000 A 
ATOM     18  C   UNL     1       0.755   2.600  19.431  0.00  0.00    +0.000 A 
ATOM     19  C   UNL     1       0.813   3.803  20.136  0.00  0.00    +0.000 A 
ATOM     20  C   UNL     1       1.806   4.774  19.913  0.00  0.00    +0.000 A 
ATOM     21  C   UNL     1       1.799   6.069  20.656  0.00  0.00    +0.000 C 
ATOM     22  C   UNL     1       2.748   4.416  18.926  0.00  0.00    +0.000 A 
ATOM     23  O   UNL     1       3.825   5.148  18.484  0.00  0.00    +0.000 OA
ENDBRANCH  13  14
ENDBRANCH   1  13
TORSDOF 5
ENDMDL
MODEL 7
REMARK VINA RESULT:      -7.5      7.493     10.771
REMARK  Name = 
REMARK  8 active torsions:
REMARK  status: ('A' for Active; 'I' for Inactive)
REMARK    1  A    between atoms: C_1  and  C_2
REMARK    2  A    between atoms: C_2  and  C_3
REMARK    3  A    between atoms: C_5  and  C_6
REMARK    4  A    between atoms: C_6  and  C_7
REMARK    5  A    between atoms: C_7  and  C_8
REMARK    6  A    between atoms: C_14  and  C_15
REMARK    7  A    between atoms: C_18  and  O_19
REMARK    8  A    between atoms: C_21  and  C_22
REMARK                            x       y       z     vdW  Elec       q    Type
REMARK                         _______ _______ _______ _____ _____    ______ ____
ROOT
ATOM      1  C   UNL     1       0.911   8.139  21.377  0.00  0.00    +0.000 C 
ENDROOT
BRANCH   1   4
ATOM      2  C   UNL     1      -1.043  11.314  20.506  0.00  0.00    +0.000 A 
ATOM      3  C   UNL     1      -0.388  10.076  20.373  0.00  0.00    +0.000 A 
ATOM      4  C   UNL     1       0.197   9.462  21.480  0.00  0.00    +0.000 A 
ATOM      5  C   UNL     1       0.055  10.115  22.689  0.00  0.00    +0.000 A 
ATOM      6  N   UNL     1      -0.600  11.271  22.889  0.00  0.00    +0.000 NA
ATOM      7  C   UNL     1      -1.124  11.881  21.786  0.00  0.00    +0.000 A 
ATOM      8  C   UNL     1      -1.771  13.218  22.013  0.00  0.00    +0.000 C 
BRANCH   2  10
ATOM      9  C   UNL     1      -0.569  12.693  18.426  0.00  0.00    +0.000 C 
ATOM     10  C   UNL     1      -1.612  11.967  19.267  0.00  0.00    +0.000 C 
ENDBRANCH   2  10
BRANCH   5  11
ATOM     11  O   UNL     1       0.549   9.524  23.814  0.00  0.00    +0.000 OA
ATOM     12  H   UNL     1       1.057  10.252  24.209  0.00  0.00    +0.000 HD
ENDBRANCH   5  11
ENDBRANCH   1   4
BRANCH   1  13
ATOM     13  C   UNL     1       1.875   8.060  20.185  0.00  0.00    +0.000 C 
BRANCH  13  14
ATOM     14  C   UNL     1       1.998   6.660  19.672  0.00  0.00    +0.000 A 
ATOM     15  N   UNL     1       2.306   6.268  18.452  0.00  0.00    +0.000 NA
ATOM     16  C   UNL     1       2.269   4.900  18.530  0.00  0.00    +0.000 A 
ATOM     17  C   UNL     1       2.489   3.929  17.538  0.00  0.00    +0.000 A 
ATOM     18  C   UNL     1       2.367   2.581  17.897  0.00  0.00    +0.000 A 
ATOM     19  C   UNL     1       2.034   2.219  19.203  0.00  0.00    +0.000 A 
ATOM     20  C   UNL     1       1.793   3.161  20.219  0.00  0.00    +0.000 A 
ATOM     21  C   UNL     1       1.390   2.728  21.591  0.00  0.00    +0.000 C 
ATOM     22  C   UNL     1       1.935   4.502  19.807  0.00  0.00    +0.000 A 
ATOM     23  O   UNL     1       1.764   5.638  20.562  0.00  0.00    +0.000 OA
ENDBRANCH  13  14
ENDBRANCH   1  13
TORSDOF 5
ENDMDL
MODEL 8
REMARK VINA RESULT:      -7.4      6.349      8.793
REMARK  Name = 
REMARK  8 active torsions:
REMARK  status: ('A' for Active; 'I' for Inactive)
REMARK    1  A    between atoms: C_1  and  C_2
REMARK    2  A    between atoms: C_2  and  C_3
REMARK    3  A    between atoms: C_5  and  C_6
REMARK    4  A    between atoms: C_6  and  C_7
REMARK    5  A    between atoms: C_7  and  C_8
REMARK    6  A    between atoms: C_14  and  C_15
REMARK    7  A    between atoms: C_18  and  O_19
REMARK    8  A    between atoms: C_21  and  C_22
REMARK                            x       y       z     vdW  Elec       q    Type
REMARK                         _______ _______ _______ _____ _____    ______ ____
ROOT
ATOM      1  C   UNL     1       5.677   4.285  16.556  0.00  0.00    +0.000 C 
ENDROOT
BRANCH   1   4
ATOM      2  C   UNL     1       6.009   3.647  12.795  0.00  0.00    +0.000 A 
ATOM      3  C   UNL     1       5.548   3.571  14.123  0.00  0.00    +0.000 A 
ATOM      4  C   UNL     1       6.138   4.342  15.122  0.00  0.00    +0.000 A 
ATOM      5  C   UNL     1       7.151   5.193  14.722  0.00  0.00    +0.000 A 
ATOM      6  N   UNL     1       7.601   5.347  13.465  0.00  0.00    +0.000 NA
ATOM      7  C   UNL     1       7.043   4.549  12.509  0.00  0.00    +0.000 A 
ATOM      8  C   UNL     1       7.622   4.667  11.128  0.00  0.00    +0.000 C 
BRANCH   2  10
ATOM      9  C   UNL     1       4.019   3.245  11.269  0.00  0.00    +0.000 C 
ATOM     10  C   UNL     1       5.374   2.750  11.757  0.00  0.00    +0.000 C 
ENDBRANCH   2  10
BRANCH   5  11
ATOM     11  O   UNL     1       7.716   6.018  15.648  0.00  0.00    +0.000 OA
ATOM     12  H   UNL     1       7.603   6.887  15.229  0.00  0.00    +0.000 HD
ENDBRANCH   5  11
ENDBRANCH   1   4
BRANCH   1  13
ATOM     13  C   UNL     1       4.430   5.136  16.828  0.00  0.00    +0.000 C 
BRANCH  13  14
ATOM     14  C   UNL     1       3.638   4.598  17.977  0.00  0.00    +0.000 A 
ATOM     15  N   UNL     1       2.421   4.937  18.352  0.00  0.00    +0.000 NA
ATOM     16  C   UNL     1       2.189   4.152  19.452  0.00  0.00    +0.000 A 
ATOM     17  C   UNL     1       1.067   4.084  20.297  0.00  0.00    +0.000 A 
ATOM     18  C   UNL     1       1.108   3.191  21.374  0.00  0.00    +0.000 A 
ATOM     19  C   UNL     1       2.232   2.396  21.599  0.00  0.00    +0.000 A 
ATOM     20  C   UNL     1       3.378   2.446  20.785  0.00  0.00    +0.000 A 
ATOM     21  C   UNL     1       4.579   1.612  21.093  0.00  0.00    +0.000 C 
ATOM     22  C   UNL     1       3.283   3.356  19.712  0.00  0.00    +0.000 A 
ATOM     23  O   UNL     1       4.230   3.631  18.753  0.00  0.00    +0.000 OA
ENDBRANCH  13  14
ENDBRANCH   1  13
TORSDOF 5
ENDMDL
MODEL 9
REMARK VINA RESULT:      -7.4      6.535     10.086
REMARK  Name = 
REMARK  8 active torsions:
REMARK  status: ('A' for Active; 'I' for Inactive)
REMARK    1  A    between atoms: C_1  and  C_2
REMARK    2  A    between atoms: C_2  and  C_3
REMARK    3  A    between atoms: C_5  and  C_6
REMARK    4  A    between atoms: C_6  and  C_7
REMARK    5  A    between atoms: C_7  and  C_8
REMARK    6  A    between atoms: C_14  and  C_15
REMARK    7  A    between atoms: C_18  and  O_19
REMARK    8  A    between atoms: C_21  and  C_22
REMARK                            x       y       z     vdW  Elec       q    Type
REMARK                         _______ _______ _______ _____ _____    ______ ____
ROOT
ATOM      1  C   UNL     1       1.590   8.483  17.886  0.00  0.00    +0.000 C 
ENDROOT
BRANCH   1   4
ATOM      2  C   UNL     1       0.353  10.593  20.831  0.00  0.00    +0.000 A 
ATOM      3  C   UNL     1       0.627   9.482  20.012  0.00  0.00    +0.000 A 
ATOM      4  C   UNL     1       1.285   9.646  18.794  0.00  0.00    +0.000 A 
ATOM      5  C   UNL     1       1.675  10.933  18.477  0.00  0.00    +0.000 A 
ATOM      6  N   UNL     1       1.488  12.024  19.238  0.00  0.00    +0.000 NA
ATOM      7  C   UNL     1       0.800  11.852  20.404  0.00  0.00    +0.000 A 
ATOM      8  C   UNL     1       0.518  13.096  21.197  0.00  0.00    +0.000 C 
BRANCH   2  10
ATOM      9  C   UNL     1       0.201   9.308  23.017  0.00  0.00    +0.000 C 
ATOM     10  C   UNL     1      -0.412  10.372  22.116  0.00  0.00    +0.000 C 
ENDBRANCH   2  10
BRANCH   5  11
ATOM     11  O   UNL     1       2.381  11.138  17.329  0.00  0.00    +0.000 OA
ATOM     12  H   UNL     1       1.712  11.550  16.759  0.00  0.00    +0.000 HD
ENDBRANCH   5  11
ENDBRANCH   1   4
BRANCH   1  13
ATOM     13  C   UNL     1       3.019   7.946  18.046  0.00  0.00    +0.000 C 
BRANCH  13  14
ATOM     14  C   UNL     1       3.041   6.452  18.097  0.00  0.00    +0.000 A 
ATOM     15  N   UNL     1       3.692   5.623  17.305  0.00  0.00    +0.000 NA
ATOM     16  C   UNL     1       3.357   4.383  17.786  0.00  0.00    +0.000 A 
ATOM     17  C   UNL     1       3.728   3.105  17.334  0.00  0.00    +0.000 A 
ATOM     18  C   UNL     1       3.217   1.992  18.012  0.00  0.00    +0.000 A 
ATOM     19  C   UNL     1       2.362   2.154  19.104  0.00  0.00    +0.000 A 
ATOM     20  C   UNL     1       1.957   3.415  19.577  0.00  0.00    +0.000 A 
ATOM     21  C   UNL     1       1.001   3.539  20.718  0.00  0.00    +0.000 C 
ATOM     22  C   UNL     1       2.505   4.501  18.863  0.00  0.00    +0.000 A 
ATOM     23  O   UNL     1       2.298   5.843  19.081  0.00  0.00    +0.000 OA
ENDBRANCH  13  14
ENDBRANCH   1  13
TORSDOF 5
ENDMDL
