MODEL 1
REMARK VINA RESULT:      -8.1      0.000      0.000
REMARK  Name = 
REMARK  10 active torsions:
REMARK  status: ('A' for Active; 'I' for Inactive)
REMARK    1  A    between atoms: C_1  and  O_2
REMARK    2  A    between atoms: O_2  and  C_3
REMARK    3  A    between atoms: C_5  and  N_6
REMARK    4  A    between atoms: N_6  and  C_7
REMARK    5  A    between atoms: N_16  and  C_17
REMARK    6  A    between atoms: C_17  and  C_18
REMARK    7  A    between atoms: C_25  and  O_26
REMARK    8  A    between atoms: O_26  and  C_27
REMARK    9  A    between atoms: C_28  and  O_29
REMARK   10  A    between atoms: O_29  and  C_30
REMARK                            x       y       z     vdW  Elec       q    Type
REMARK                         _______ _______ _______ _____ _____    ______ ____
ROOT
ATOM      1  C   UNL     1       4.415   5.430  16.641  0.00  0.00    +0.000 C 
ATOM      2  C   UNL     1       3.835   4.317  17.463  0.00  0.00    +0.000 A 
ATOM      3  C   UNL     1       2.674   3.574  17.306  0.00  0.00    +0.000 A 
ATOM      4  C   UNL     1       2.427   2.530  18.208  0.00  0.00    +0.000 A 
ATOM      5  C   UNL     1       3.309   2.269  19.273  0.00  0.00    +0.000 A 
ATOM      6  C   UNL     1       4.522   2.953  19.368  0.00  0.00    +0.000 A 
ATOM      7  C   UNL     1       4.780   3.908  18.401  0.00  0.00    +0.000 A 
ATOM      8  C   UNL     1       6.078   4.428  17.928  0.00  0.00    +0.000 C 
ATOM      9  O   UNL     1       7.156   4.190  18.441  0.00  0.00    +0.000 OA
ATOM     10  N   UNL     1       5.816   5.113  16.749  0.00  0.00    +0.000 N 
ENDROOT
BRANCH   1  11
ATOM     11  N   UNL     1       4.359   6.729  17.291  0.00  0.00    +0.000 N 
ATOM     12  H   UNL     1       5.166   7.306  17.087  0.00  0.00    +0.000 HD
BRANCH  11  15
ATOM     13  C   UNL     1       1.774   9.096  18.477  0.00  0.00    +0.000 A 
ATOM     14  C   UNL     1       2.831   8.556  17.735  0.00  0.00    +0.000 A 
ATOM     15  C   UNL     1       3.378   7.322  18.041  0.00  0.00    +0.000 A 
ATOM     16  C   UNL     1       2.863   6.666  19.169  0.00  0.00    +0.000 A 
ATOM     17  C   UNL     1       1.867   7.231  19.992  0.00  0.00    +0.000 A 
ATOM     18  C   UNL     1       1.312   8.480  19.654  0.00  0.00    +0.000 A 
BRANCH  13  20
ATOM     19  C   UNL     1       2.051  11.430  18.226  0.00  0.00    +0.000 C 
ATOM     20  O   UNL     1       1.208  10.288  18.063  0.00  0.00    +0.000 OA
ENDBRANCH  13  20
BRANCH  17  21
ATOM     21  O   UNL     1       1.570   6.416  21.061  0.00  0.00    +0.000 OA
ATOM     22  C   UNL     1       1.680   5.008  20.917  0.00  0.00    +0.000 C 
ENDBRANCH  17  21
BRANCH  18  23
ATOM     23  O   UNL     1       0.422   9.021  20.541  0.00  0.00    +0.000 OA
ATOM     24  C   UNL     1       0.886   9.906  21.550  0.00  0.00    +0.000 C 
ENDBRANCH  18  23
ENDBRANCH  11  15
ENDBRANCH   1  11
BRANCH  10  25
ATOM     25  C   UNL     1       6.801   5.648  15.837  0.00  0.00    +0.000 C 
BRANCH  25  26
ATOM     26  C   UNL     1       6.899   4.946  14.494  0.00  0.00    +0.000 A 
ATOM     27  C   UNL     1       5.996   3.906  14.205  0.00  0.00    +0.000 A 
ATOM     28  C   UNL     1       5.914   3.352  12.926  0.00  0.00    +0.000 A 
ATOM     29  C   UNL     1       6.740   3.823  11.910  0.00  0.00    +0.000 A 
ATOM     30  C   UNL     1       7.665   4.829  12.182  0.00  0.00    +0.000 A 
ATOM     31  C   UNL     1       7.748   5.388  13.464  0.00  0.00    +0.000 A 
ENDBRANCH  25  26
ENDBRANCH  10  25
TORSDOF 7
ENDMDL
MODEL 2
REMARK VINA RESULT:      -8.1      2.330      3.801
REMARK  Name = 
REMARK  10 active torsions:
REMARK  status: ('A' for Active; 'I' for Inactive)
REMARK    1  A    between atoms: C_1  and  O_2
REMARK    2  A    between atoms: O_2  and  C_3
REMARK    3  A    between atoms: C_5  and  N_6
REMARK    4  A    between atoms: N_6  and  C_7
REMARK    5  A    between atoms: N_16  and  C_17
REMARK    6  A    between atoms: C_17  and  C_18
REMARK    7  A    between atoms: C_25  and  O_26
REMARK    8  A    between atoms: O_26  and  C_27
REMARK    9  A    between atoms: C_28  and  O_29
REMARK   10  A    between atoms: O_29  and  C_30
REMARK                            x       y       z     vdW  Elec       q    Type
REMARK                         _______ _______ _______ _____ _____    ______ ____
ROOT
ATOM      1  C   UNL     1       3.263   5.134  17.804  0.00  0.00    +0.000 C 
ATOM      2  C   UNL     1       2.314   4.182  18.471  0.00  0.00    +0.000 A 
ATOM      3  C   UNL     1       1.015   3.815  18.155  0.00  0.00    +0.000 A 
ATOM      4  C   UNL     1       0.394   2.828  18.934  0.00  0.00    +0.000 A 
ATOM      5  C   UNL     1       1.056   2.255  20.036  0.00  0.00    +0.000 A 
ATOM      6  C   UNL     1       2.395   2.555  20.290  0.00  0.00    +0.000 A 
ATOM      7  C   UNL     1       3.007   3.458  19.439  0.00  0.00    +0.000 A 
ATOM      8  C   UNL     1       4.440   3.614  19.121  0.00  0.00    +0.000 C 
ATOM      9  O   UNL     1       5.350   3.044  19.693  0.00  0.00    +0.000 OA
ATOM     10  N   UNL     1       4.501   4.422  17.993  0.00  0.00    +0.000 N 
ENDROOT
BRANCH   1  11
ATOM     11  N   UNL     1       3.506   6.349  18.565  0.00  0.00    +0.000 N 
ATOM     12  H   UNL     1       4.478   6.464  18.822  0.00  0.00    +0.000 HD
BRANCH  11  15
ATOM     13  C   UNL     1       1.076   8.468  20.381  0.00  0.00    +0.000 A 
ATOM     14  C   UNL     1       1.855   7.362  20.020  0.00  0.00    +0.000 A 
ATOM     15  C   UNL     1       2.674   7.383  18.904  0.00  0.00    +0.000 A 
ATOM     16  C   UNL     1       2.637   8.543  18.117  0.00  0.00    +0.000 A 
ATOM     17  C   UNL     1       1.788   9.632  18.401  0.00  0.00    +0.000 A 
ATOM     18  C   UNL     1       0.976   9.599  19.550  0.00  0.00    +0.000 A 
BRANCH  13  20
ATOM     19  C   UNL     1       0.907   9.195  22.624  0.00  0.00    +0.000 C 
ATOM     20  O   UNL     1       0.353   8.420  21.560  0.00  0.00    +0.000 OA
ENDBRANCH  13  20
BRANCH  17  21
ATOM     21  O   UNL     1       1.901  10.624  17.454  0.00  0.00    +0.000 OA
ATOM     22  C   UNL     1       2.476  11.872  17.814  0.00  0.00    +0.000 C 
ENDBRANCH  17  21
BRANCH  18  23
ATOM     23  O   UNL     1       0.103  10.640  19.722  0.00  0.00    +0.000 OA
ATOM     24  C   UNL     1      -1.178  10.588  19.114  0.00  0.00    +0.000 C 
ENDBRANCH  18  23
ENDBRANCH  11  15
ENDBRANCH   1  11
BRANCH  10  25
ATOM     25  C   UNL     1       5.683   4.713  17.215  0.00  0.00    +0.000 C 
BRANCH  25  26
ATOM     26  C   UNL     1       6.523   5.878  17.708  0.00  0.00    +0.000 A 
ATOM     27  C   UNL     1       7.408   5.668  18.783  0.00  0.00    +0.000 A 
ATOM     28  C   UNL     1       8.336   6.641  19.158  0.00  0.00    +0.000 A 
ATOM     29  C   UNL     1       8.395   7.848  18.469  0.00  0.00    +0.000 A 
ATOM     30  C   UNL     1       7.506   8.090  17.423  0.00  0.00    +0.000 A 
ATOM     31  C   UNL     1       6.575   7.115  17.043  0.00  0.00    +0.000 A 
ENDBRANCH  25  26
ENDBRANCH  10  25
TORSDOF 7
ENDMDL
MODEL 3
REMARK VINA RESULT:      -8.1      1.690      3.283
REMARK  Name = 
REMARK  10 active torsions:
REMARK  status: ('A' for Active; 'I' for Inactive)
REMARK    1  A    between atoms: C_1  and  O_2
REMARK    2  A    between atoms: O_2  and  C_3
REMARK    3  A    between atoms: C_5  and  N_6
REMARK    4  A    between atoms: N_6  and  C_7
REMARK    5  A    between atoms: N_16  and  C_17
REMARK    6  A    between atoms: C_17  and  C_18
REMARK    7  A    between atoms: C_25  and  O_26
REMARK    8  A    between atoms: O_26  and  C_27
REMARK    9  A    between atoms: C_28  and  O_29
REMARK   10  A    between atoms: O_29  and  C_30
REMARK                            x       y       z     vdW  Elec       q    Type
REMARK                         _______ _______ _______ _____ _____    ______ ____
ROOT
ATOM      1  C   UNL     1       2.715   5.900  18.535  0.00  0.00    +0.000 C 
ATOM      2  C   UNL     1       2.226   4.554  18.985  0.00  0.00    +0.000 A 
ATOM      3  C   UNL     1       1.060   3.862  18.700  0.00  0.00    +0.000 A 
ATOM      4  C   UNL     1       0.911   2.567  19.216  0.00  0.00    +0.000 A 
ATOM      5  C   UNL     1       1.899   2.000  20.041  0.00  0.00    +0.000 A 
ATOM      6  C   UNL     1       3.113   2.659  20.245  0.00  0.00    +0.000 A 
ATOM      7  C   UNL     1       3.266   3.892  19.637  0.00  0.00    +0.000 A 
ATOM      8  C   UNL     1       4.506   4.590  19.246  0.00  0.00    +0.000 C 
ATOM      9  O   UNL     1       5.631   4.237  19.543  0.00  0.00    +0.000 OA
ATOM     10  N   UNL     1       4.121   5.619  18.397  0.00  0.00    +0.000 N 
ENDROOT
BRANCH   1  11
ATOM     11  N   UNL     1       2.720   6.904  19.588  0.00  0.00    +0.000 N 
ATOM     12  H   UNL     1       3.563   6.882  20.147  0.00  0.00    +0.000 HD
BRANCH  11  15
ATOM     13  C   UNL     1       0.151   8.955  21.286  0.00  0.00    +0.000 A 
ATOM     14  C   UNL     1       0.984   7.875  20.971  0.00  0.00    +0.000 A 
ATOM     15  C   UNL     1       1.836   7.909  19.880  0.00  0.00    +0.000 A 
ATOM     16  C   UNL     1       1.777   9.051  19.069  0.00  0.00    +0.000 A 
ATOM     17  C   UNL     1       0.876  10.110  19.305  0.00  0.00    +0.000 A 
ATOM     18  C   UNL     1       0.031  10.065  20.430  0.00  0.00    +0.000 A 
BRANCH  13  20
ATOM     19  C   UNL     1       0.000   9.523  23.575  0.00  0.00    +0.000 C 
ATOM     20  O   UNL     1      -0.606   8.899  22.443  0.00  0.00    +0.000 OA
ENDBRANCH  13  20
BRANCH  17  21
ATOM     21  O   UNL     1       0.978  11.088  18.342  0.00  0.00    +0.000 OA
ATOM     22  C   UNL     1       2.128  11.921  18.312  0.00  0.00    +0.000 C 
ENDBRANCH  17  21
BRANCH  18  23
ATOM     23  O   UNL     1      -0.888  11.071  20.554  0.00  0.00    +0.000 OA
ATOM     24  C   UNL     1      -0.522  12.281  21.200  0.00  0.00    +0.000 C 
ENDBRANCH  18  23
ENDBRANCH  11  15
ENDBRANCH   1  11
BRANCH  10  25
ATOM     25  C   UNL     1       5.004   6.467  17.628  0.00  0.00    +0.000 C 
BRANCH  25  26
ATOM     26  C   UNL     1       5.622   5.826  16.398  0.00  0.00    +0.000 A 
ATOM     27  C   UNL     1       7.024   5.722  16.321  0.00  0.00    +0.000 A 
ATOM     28  C   UNL     1       7.640   4.980  15.311  0.00  0.00    +0.000 A 
ATOM     29  C   UNL     1       6.867   4.333  14.353  0.00  0.00    +0.000 A 
ATOM     30  C   UNL     1       5.479   4.451  14.391  0.00  0.00    +0.000 A 
ATOM     31  C   UNL     1       4.857   5.193  15.404  0.00  0.00    +0.000 A 
ENDBRANCH  25  26
ENDBRANCH  10  25
TORSDOF 7
ENDMDL
MODEL 4
REMARK VINA RESULT:      -8.0      1.778      2.744
REMARK  Name = 
REMARK  10 active torsions:
REMARK  status: ('A' for Active; 'I' for Inactive)
REMARK    1  A    between atoms: C_1  and  O_2
REMARK    2  A    between atoms: O_2  and  C_3
REMARK    3  A    between atoms: C_5  and  N_6
REMARK    4  A    between atoms: N_6  and  C_7
REMARK    5  A    between atoms: N_16  and  C_17
REMARK    6  A    between atoms: C_17  and  C_18
REMARK    7  A    between atoms: C_25  and  O_26
REMARK    8  A    between atoms: O_26  and  C_27
REMARK    9  A    between atoms: C_28  and  O_29
REMARK   10  A    between atoms: O_29  and  C_30
REMARK                            x       y       z     vdW  Elec       q    Type
REMARK                         _______ _______ _______ _____ _____    ______ ____
ROOT
ATOM      1  C   UNL     1       2.612   5.843  18.533  0.00  0.00    +0.000 C 
ATOM      2  C   UNL     1       2.122   4.471  18.894  0.00  0.00    +0.000 A 
ATOM      3  C   UNL     1       0.965   3.792  18.544  0.00  0.00    +0.000 A 
ATOM      4  C   UNL     1       0.812   2.469  18.982  0.00  0.00    +0.000 A 
ATOM      5  C   UNL     1       1.786   1.859  19.794  0.00  0.00    +0.000 A 
ATOM      6  C   UNL     1       2.991   2.510  20.061  0.00  0.00    +0.000 A 
ATOM      7  C   UNL     1       3.151   3.777  19.528  0.00  0.00    +0.000 A 
ATOM      8  C   UNL     1       4.395   4.501  19.204  0.00  0.00    +0.000 C 
ATOM      9  O   UNL     1       5.516   4.136  19.504  0.00  0.00    +0.000 OA
ATOM     10  N   UNL     1       4.022   5.576  18.408  0.00  0.00    +0.000 N 
ENDROOT
BRANCH   1  11
ATOM     11  N   UNL     1       2.590   6.784  19.641  0.00  0.00    +0.000 N 
ATOM     12  H   UNL     1       3.250   6.546  20.371  0.00  0.00    +0.000 HD
BRANCH  11  15
ATOM     13  C   UNL     1       0.649   9.862  18.976  0.00  0.00    +0.000 A 
ATOM     14  C   UNL     1       1.410   8.707  18.760  0.00  0.00    +0.000 A 
ATOM     15  C   UNL     1       1.908   7.959  19.813  0.00  0.00    +0.000 A 
ATOM     16  C   UNL     1       1.668   8.449  21.105  0.00  0.00    +0.000 A 
ATOM     17  C   UNL     1       0.991   9.662  21.347  0.00  0.00    +0.000 A 
ATOM     18  C   UNL     1       0.476  10.400  20.264  0.00  0.00    +0.000 A 
BRANCH  13  20
ATOM     19  C   UNL     1      -1.215  10.071  17.537  0.00  0.00    +0.000 C 
ATOM     20  O   UNL     1       0.098  10.512  17.885  0.00  0.00    +0.000 OA
ENDBRANCH  13  20
BRANCH  17  21
ATOM     21  O   UNL     1       0.928   9.948  22.692  0.00  0.00    +0.000 OA
ATOM     22  C   UNL     1      -0.182   9.494  23.452  0.00  0.00    +0.000 C 
ENDBRANCH  17  21
BRANCH  18  23
ATOM     23  O   UNL     1      -0.085  11.614  20.553  0.00  0.00    +0.000 OA
ATOM     24  C   UNL     1      -1.479  11.701  20.805  0.00  0.00    +0.000 C 
ENDBRANCH  18  23
ENDBRANCH  11  15
ENDBRANCH   1  11
BRANCH  10  25
ATOM     25  C   UNL     1       4.916   6.470  17.708  0.00  0.00    +0.000 C 
BRANCH  25  26
ATOM     26  C   UNL     1       5.603   5.887  16.486  0.00  0.00    +0.000 A 
ATOM     27  C   UNL     1       7.004   5.747  16.498  0.00  0.00    +0.000 A 
ATOM     28  C   UNL     1       7.671   5.050  15.488  0.00  0.00    +0.000 A 
ATOM     29  C   UNL     1       6.951   4.484  14.441  0.00  0.00    +0.000 A 
ATOM     30  C   UNL     1       5.567   4.639  14.391  0.00  0.00    +0.000 A 
ATOM     31  C   UNL     1       4.894   5.337  15.404  0.00  0.00    +0.000 A 
ENDBRANCH  25  26
ENDBRANCH  10  25
TORSDOF 7
ENDMDL
MODEL 5
REMARK VINA RESULT:      -8.0      0.176      2.367
REMARK  Name = 
REMARK  10 active torsions:
REMARK  status: ('A' for Active; 'I' for Inactive)
REMARK    1  A    between atoms: C_1  and  O_2
REMARK    2  A    between atoms: O_2  and  C_3
REMARK    3  A    between atoms: C_5  and  N_6
REMARK    4  A    between atoms: N_6  and  C_7
REMARK    5  A    between atoms: N_16  and  C_17
REMARK    6  A    between atoms: C_17  and  C_18
REMARK    7  A    between atoms: C_25  and  O_26
REMARK    8  A    between atoms: O_26  and  C_27
REMARK    9  A    between atoms: C_28  and  O_29
REMARK   10  A    between atoms: O_29  and  C_30
REMARK                            x       y       z     vdW  Elec       q    Type
REMARK                         _______ _______ _______ _____ _____    ______ ____
ROOT
ATOM      1  C   UNL     1       4.474   5.340  16.549  0.00  0.00    +0.000 C 
ATOM      2  C   UNL     1       3.877   4.265  17.409  0.00  0.00    +0.000 A 
ATOM      3  C   UNL     1       2.738   3.491  17.246  0.00  0.00    +0.000 A 
ATOM      4  C   UNL     1       2.469   2.496  18.196  0.00  0.00    +0.000 A 
ATOM      5  C   UNL     1       3.307   2.316  19.312  0.00  0.00    +0.000 A 
ATOM      6  C   UNL     1       4.502   3.029  19.419  0.00  0.00    +0.000 A 
ATOM      7  C   UNL     1       4.786   3.931  18.410  0.00  0.00    +0.000 A 
ATOM      8  C   UNL     1       6.095   4.449  17.965  0.00  0.00    +0.000 C 
ATOM      9  O   UNL     1       7.152   4.263  18.538  0.00  0.00    +0.000 OA
ATOM     10  N   UNL     1       5.874   5.058  16.737  0.00  0.00    +0.000 N 
ENDROOT
BRANCH   1  11
ATOM     11  N   UNL     1       4.366   6.674  17.118  0.00  0.00    +0.000 N 
ATOM     12  H   UNL     1       5.103   7.294  16.808  0.00  0.00    +0.000 HD
BRANCH  11  15
ATOM     13  C   UNL     1       1.957   7.260  19.865  0.00  0.00    +0.000 A 
ATOM     14  C   UNL     1       2.882   6.619  19.032  0.00  0.00    +0.000 A 
ATOM     15  C   UNL     1       3.403   7.241  17.911  0.00  0.00    +0.000 A 
ATOM     16  C   UNL     1       2.913   8.521  17.615  0.00  0.00    +0.000 A 
ATOM     17  C   UNL     1       1.909   9.150  18.379  0.00  0.00    +0.000 A 
ATOM     18  C   UNL     1       1.404   8.508  19.526  0.00  0.00    +0.000 A 
BRANCH  13  20
ATOM     19  C   UNL     1       1.775   5.213  21.033  0.00  0.00    +0.000 C 
ATOM     20  O   UNL     1       1.547   6.623  21.023  0.00  0.00    +0.000 OA
ENDBRANCH  13  20
BRANCH  17  21
ATOM     21  O   UNL     1       1.565  10.375  17.855  0.00  0.00    +0.000 OA
ATOM     22  C   UNL     1       2.232  11.543  18.313  0.00  0.00    +0.000 C 
ENDBRANCH  17  21
BRANCH  18  23
ATOM     23  O   UNL     1       0.365   9.122  20.172  0.00  0.00    +0.000 OA
ATOM     24  C   UNL     1       0.628   9.964  21.284  0.00  0.00    +0.000 C 
ENDBRANCH  18  23
ENDBRANCH  11  15
ENDBRANCH   1  11
BRANCH  10  25
ATOM     25  C   UNL     1       6.889   5.560  15.838  0.00  0.00    +0.000 C 
BRANCH  25  26
ATOM     26  C   UNL     1       6.947   4.890  14.477  0.00  0.00    +0.000 A 
ATOM     27  C   UNL     1       6.049   3.842  14.198  0.00  0.00    +0.000 A 
ATOM     28  C   UNL     1       5.927   3.316  12.911  0.00  0.00    +0.000 A 
ATOM     29  C   UNL     1       6.705   3.823  11.875  0.00  0.00    +0.000 A 
ATOM     30  C   UNL     1       7.624   4.837  12.135  0.00  0.00    +0.000 A 
ATOM     31  C   UNL     1       7.748   5.369  13.426  0.00  0.00    +0.000 A 
ENDBRANCH  25  26
ENDBRANCH  10  25
TORSDOF 7
ENDMDL
MODEL 6
REMARK VINA RESULT:      -8.0      1.515      2.984
REMARK  Name = 
REMARK  10 active torsions:
REMARK  status: ('A' for Active; 'I' for Inactive)
REMARK    1  A    between atoms: C_1  and  O_2
REMARK    2  A    between atoms: O_2  and  C_3
REMARK    3  A    between atoms: C_5  and  N_6
REMARK    4  A    between atoms: N_6  and  C_7
REMARK    5  A    between atoms: N_16  and  C_17
REMARK    6  A    between atoms: C_17  and  C_18
REMARK    7  A    between atoms: C_25  and  O_26
REMARK    8  A    between atoms: O_26  and  C_27
REMARK    9  A    between atoms: C_28  and  O_29
REMARK   10  A    between atoms: O_29  and  C_30
REMARK                            x       y       z     vdW  Elec       q    Type
REMARK                         _______ _______ _______ _____ _____    ______ ____
ROOT
ATOM      1  C   UNL     1       2.931   5.694  18.199  0.00  0.00    +0.000 C 
ATOM      2  C   UNL     1       2.301   4.414  18.666  0.00  0.00    +0.000 A 
ATOM      3  C   UNL     1       1.089   3.822  18.348  0.00  0.00    +0.000 A 
ATOM      4  C   UNL     1       0.799   2.564  18.896  0.00  0.00    +0.000 A 
ATOM      5  C   UNL     1       1.694   1.938  19.782  0.00  0.00    +0.000 A 
ATOM      6  C   UNL     1       2.953   2.490  20.022  0.00  0.00    +0.000 A 
ATOM      7  C   UNL     1       3.246   3.682  19.385  0.00  0.00    +0.000 A 
ATOM      8  C   UNL     1       4.561   4.251  19.030  0.00  0.00    +0.000 C 
ATOM      9  O   UNL     1       5.635   3.806  19.390  0.00  0.00    +0.000 OA
ATOM     10  N   UNL     1       4.310   5.281  18.134  0.00  0.00    +0.000 N 
ENDROOT
BRANCH   1  11
ATOM     11  N   UNL     1       2.984   6.728  19.220  0.00  0.00    +0.000 N 
ATOM     12  H   UNL     1       3.837   6.699  19.765  0.00  0.00    +0.000 HD
BRANCH  11  15
ATOM     13  C   UNL     1       0.448   8.863  20.863  0.00  0.00    +0.000 A 
ATOM     14  C   UNL     1       1.246   7.754  20.561  0.00  0.00    +0.000 A 
ATOM     15  C   UNL     1       2.134   7.765  19.499  0.00  0.00    +0.000 A 
ATOM     16  C   UNL     1       2.150   8.920  18.702  0.00  0.00    +0.000 A 
ATOM     17  C   UNL     1       1.286  10.012  18.924  0.00  0.00    +0.000 A 
ATOM     18  C   UNL     1       0.403   9.989  20.020  0.00  0.00    +0.000 A 
BRANCH  13  20
ATOM     19  C   UNL     1       0.227   9.450  23.142  0.00  0.00    +0.000 C 
ATOM     20  O   UNL     1      -0.347   8.825  21.994  0.00  0.00    +0.000 OA
ENDBRANCH  13  20
BRANCH  17  21
ATOM     21  O   UNL     1       1.460  10.997  17.978  0.00  0.00    +0.000 OA
ATOM     22  C   UNL     1       2.267  12.125  18.285  0.00  0.00    +0.000 C 
ENDBRANCH  17  21
BRANCH  18  23
ATOM     23  O   UNL     1      -0.477  11.031  20.128  0.00  0.00    +0.000 OA
ATOM     24  C   UNL     1      -1.622  11.074  19.290  0.00  0.00    +0.000 C 
ENDBRANCH  18  23
ENDBRANCH  11  15
ENDBRANCH   1  11
BRANCH  10  25
ATOM     25  C   UNL     1       5.300   6.018  17.382  0.00  0.00    +0.000 C 
BRANCH  25  26
ATOM     26  C   UNL     1       5.844   5.316  16.151  0.00  0.00    +0.000 A 
ATOM     27  C   UNL     1       4.971   4.525  15.381  0.00  0.00    +0.000 A 
ATOM     28  C   UNL     1       5.362   4.009  14.143  0.00  0.00    +0.000 A 
ATOM     29  C   UNL     1       6.638   4.269  13.653  0.00  0.00    +0.000 A 
ATOM     30  C   UNL     1       7.530   5.022  14.414  0.00  0.00    +0.000 A 
ATOM     31  C   UNL     1       7.140   5.543  15.656  0.00  0.00    +0.000 A 
ENDBRANCH  25  26
ENDBRANCH  10  25
TORSDOF 7
ENDMDL
MODEL 7
REMARK VINA RESULT:      -8.0      1.832      2.754
REMARK  Name = 
REMARK  10 active torsions:
REMARK  status: ('A' for Active; 'I' for Inactive)
REMARK    1  A    between atoms: C_1  and  O_2
REMARK    2  A    between atoms: O_2  and  C_3
REMARK    3  A    between atoms: C_5  and  N_6
REMARK    4  A    between atoms: N_6  and  C_7
REMARK    5  A    between atoms: N_16  and  C_17
REMARK    6  A    between atoms: C_17  and  C_18
REMARK    7  A    between atoms: C_25  and  O_26
REMARK    8  A    between atoms: O_26  and  C_27
REMARK    9  A    between atoms: C_28  and  O_29
REMARK   10  A    between atoms: O_29  and  C_30
REMARK                            x       y       z     vdW  Elec       q    Type
REMARK                         _______ _______ _______ _____ _____    ______ ____
ROOT
ATOM      1  C   UNL     1       2.574   5.942  18.701  0.00  0.00    +0.000 C 
ATOM      2  C   UNL     1       2.146   4.657  19.350  0.00  0.00    +0.000 A 
ATOM      3  C   UNL     1       0.964   3.939  19.263  0.00  0.00    +0.000 A 
ATOM      4  C   UNL     1       0.880   2.713  19.938  0.00  0.00    +0.000 A 
ATOM      5  C   UNL     1       1.951   2.243  20.720  0.00  0.00    +0.000 A 
ATOM      6  C   UNL     1       3.171   2.920  20.725  0.00  0.00    +0.000 A 
ATOM      7  C   UNL     1       3.251   4.074  19.967  0.00  0.00    +0.000 A 
ATOM      8  C   UNL     1       4.439   4.720  19.376  0.00  0.00    +0.000 C 
ATOM      9  O   UNL     1       5.592   4.402  19.599  0.00  0.00    +0.000 OA
ATOM     10  N   UNL     1       3.962   5.644  18.457  0.00  0.00    +0.000 N 
ENDROOT
BRANCH   1  11
ATOM     11  N   UNL     1       2.673   7.060  19.625  0.00  0.00    +0.000 N 
ATOM     12  H   UNL     1       3.518   7.036  20.182  0.00  0.00    +0.000 HD
BRANCH  11  15
ATOM     13  C   UNL     1       0.450   9.941  18.955  0.00  0.00    +0.000 A 
ATOM     14  C   UNL     1       1.322   8.867  18.742  0.00  0.00    +0.000 A 
ATOM     15  C   UNL     1       1.878   8.162  19.796  0.00  0.00    +0.000 A 
ATOM     16  C   UNL     1       1.575   8.617  21.087  0.00  0.00    +0.000 A 
ATOM     17  C   UNL     1       0.780   9.756  21.329  0.00  0.00    +0.000 A 
ATOM     18  C   UNL     1       0.209  10.449  20.244  0.00  0.00    +0.000 A 
BRANCH  13  20
ATOM     19  C   UNL     1      -1.454  10.050  17.558  0.00  0.00    +0.000 C 
ATOM     20  O   UNL     1      -0.148  10.542  17.861  0.00  0.00    +0.000 OA
ENDBRANCH  13  20
BRANCH  17  21
ATOM     21  O   UNL     1       0.673  10.024  22.675  0.00  0.00    +0.000 OA
ATOM     22  C   UNL     1      -0.526   9.694  23.360  0.00  0.00    +0.000 C 
ENDBRANCH  17  21
BRANCH  18  23
ATOM     23  O   UNL     1      -0.470  11.600  20.534  0.00  0.00    +0.000 OA
ATOM     24  C   UNL     1       0.199  12.849  20.456  0.00  0.00    +0.000 C 
ENDBRANCH  18  23
ENDBRANCH  11  15
ENDBRANCH   1  11
BRANCH  10  25
ATOM     25  C   UNL     1       4.756   6.396  17.512  0.00  0.00    +0.000 C 
BRANCH  25  26
ATOM     26  C   UNL     1       5.503   5.570  16.479  0.00  0.00    +0.000 A 
ATOM     27  C   UNL     1       4.762   4.771  15.587  0.00  0.00    +0.000 A 
ATOM     28  C   UNL     1       5.374   4.139  14.502  0.00  0.00    +0.000 A 
ATOM     29  C   UNL     1       6.741   4.288  14.291  0.00  0.00    +0.000 A 
ATOM     30  C   UNL     1       7.499   5.047  15.181  0.00  0.00    +0.000 A 
ATOM     31  C   UNL     1       6.888   5.684  16.269  0.00  0.00    +0.000 A 
ENDBRANCH  25  26
ENDBRANCH  10  25
TORSDOF 7
ENDMDL
MODEL 8
REMARK VINA RESULT:      -7.9      2.295      3.777
REMARK  Name = 
REMARK  10 active torsions:
REMARK  status: ('A' for Active; 'I' for Inactive)
REMARK    1  A    between atoms: C_1  and  O_2
REMARK    2  A    between atoms: O_2  and  C_3
REMARK    3  A    between atoms: C_5  and  N_6
REMARK    4  A    between atoms: N_6  and  C_7
REMARK    5  A    between atoms: N_16  and  C_17
REMARK    6  A    between atoms: C_17  and  C_18
REMARK    7  A    between atoms: C_25  and  O_26
REMARK    8  A    between atoms: O_26  and  C_27
REMARK    9  A    between atoms: C_28  and  O_29
REMARK   10  A    between atoms: O_29  and  C_30
REMARK                            x       y       z     vdW  Elec       q    Type
REMARK                         _______ _______ _______ _____ _____    ______ ____
ROOT
ATOM      1  C   UNL     1       3.143   5.091  17.941  0.00  0.00    +0.000 C 
ATOM      2  C   UNL     1       2.307   4.228  18.841  0.00  0.00    +0.000 A 
ATOM      3  C   UNL     1       0.986   3.820  18.747  0.00  0.00    +0.000 A 
ATOM      4  C   UNL     1       0.491   2.939  19.719  0.00  0.00    +0.000 A 
ATOM      5  C   UNL     1       1.300   2.514  20.789  0.00  0.00    +0.000 A 
ATOM      6  C   UNL     1       2.655   2.849  20.826  0.00  0.00    +0.000 A 
ATOM      7  C   UNL     1       3.134   3.637  19.795  0.00  0.00    +0.000 A 
ATOM      8  C   UNL     1       4.510   3.756  19.275  0.00  0.00    +0.000 C 
ATOM      9  O   UNL     1       5.497   3.267  19.791  0.00  0.00    +0.000 OA
ATOM     10  N   UNL     1       4.409   4.413  18.056  0.00  0.00    +0.000 N 
ENDROOT
BRANCH   1  11
ATOM     11  N   UNL     1       3.458   6.394  18.504  0.00  0.00    +0.000 N 
ATOM     12  H   UNL     1       4.454   6.568  18.559  0.00  0.00    +0.000 HD
BRANCH  11  15
ATOM     13  C   UNL     1       1.123   8.532  20.418  0.00  0.00    +0.000 A 
ATOM     14  C   UNL     1       1.876   7.420  20.026  0.00  0.00    +0.000 A 
ATOM     15  C   UNL     1       2.649   7.434  18.877  0.00  0.00    +0.000 A 
ATOM     16  C   UNL     1       2.591   8.596  18.093  0.00  0.00    +0.000 A 
ATOM     17  C   UNL     1       1.764   9.692  18.412  0.00  0.00    +0.000 A 
ATOM     18  C   UNL     1       0.999   9.665  19.593  0.00  0.00    +0.000 A 
BRANCH  13  20
ATOM     19  C   UNL     1       1.143   9.102  22.712  0.00  0.00    +0.000 C 
ATOM     20  O   UNL     1       0.448   8.489  21.625  0.00  0.00    +0.000 OA
ENDBRANCH  13  20
BRANCH  17  21
ATOM     21  O   UNL     1       1.847  10.684  17.461  0.00  0.00    +0.000 OA
ATOM     22  C   UNL     1       2.581  11.865  17.747  0.00  0.00    +0.000 C 
ENDBRANCH  17  21
BRANCH  18  23
ATOM     23  O   UNL     1       0.143  10.713  19.801  0.00  0.00    +0.000 OA
ATOM     24  C   UNL     1       0.567  11.822  20.579  0.00  0.00    +0.000 C 
ENDBRANCH  18  23
ENDBRANCH  11  15
ENDBRANCH   1  11
BRANCH  10  25
ATOM     25  C   UNL     1       5.475   4.605  17.099  0.00  0.00    +0.000 C 
BRANCH  25  26
ATOM     26  C   UNL     1       6.529   5.627  17.488  0.00  0.00    +0.000 A 
ATOM     27  C   UNL     1       6.501   6.894  16.876  0.00  0.00    +0.000 A 
ATOM     28  C   UNL     1       7.321   7.933  17.323  0.00  0.00    +0.000 A 
ATOM     29  C   UNL     1       8.190   7.723  18.389  0.00  0.00    +0.000 A 
ATOM     30  C   UNL     1       8.258   6.466  18.988  0.00  0.00    +0.000 A 
ATOM     31  C   UNL     1       7.436   5.423  18.542  0.00  0.00    +0.000 A 
ENDBRANCH  25  26
ENDBRANCH  10  25
TORSDOF 7
ENDMDL
MODEL 9
REMARK VINA RESULT:      -7.8      3.421      8.560
REMARK  Name = 
REMARK  10 active torsions:
REMARK  status: ('A' for Active; 'I' for Inactive)
REMARK    1  A    between atoms: C_1  and  O_2
REMARK    2  A    between atoms: O_2  and  C_3
REMARK    3  A    between atoms: C_5  and  N_6
REMARK    4  A    between atoms: N_6  and  C_7
REMARK    5  A    between atoms: N_16  and  C_17
REMARK    6  A    between atoms: C_17  and  C_18
REMARK    7  A    between atoms: C_25  and  O_26
REMARK    8  A    between atoms: O_26  and  C_27
REMARK    9  A    between atoms: C_28  and  O_29
REMARK   10  A    between atoms: O_29  and  C_30
REMARK                            x       y       z     vdW  Elec       q    Type
REMARK                         _______ _______ _______ _____ _____    ______ ____
ROOT
ATOM      1  C   UNL     1       0.981  10.330  18.534  0.00  0.00    +0.000 C 
ATOM      2  C   UNL     1       1.699  11.630  18.751  0.00  0.00    +0.000 A 
ATOM      3  C   UNL     1       2.611  12.313  17.962  0.00  0.00    +0.000 A 
ATOM      4  C   UNL     1       3.064  13.566  18.401  0.00  0.00    +0.000 A 
ATOM      5  C   UNL     1       2.639  14.097  19.632  0.00  0.00    +0.000 A 
ATOM      6  C   UNL     1       1.648  13.453  20.374  0.00  0.00    +0.000 A 
ATOM      7  C   UNL     1       1.150  12.269  19.861  0.00  0.00    +0.000 A 
ATOM      8  C   UNL     1      -0.159  11.629  20.097  0.00  0.00    +0.000 C 
ATOM      9  O   UNL     1      -0.973  11.987  20.928  0.00  0.00    +0.000 OA
ATOM     10  N   UNL     1      -0.295  10.652  19.120  0.00  0.00    +0.000 N 
ENDROOT
BRANCH   1  11
ATOM     11  N   UNL     1       1.437   9.257  19.402  0.00  0.00    +0.000 N 
ATOM     12  H   UNL     1       1.146   9.378  20.364  0.00  0.00    +0.000 HD
BRANCH  11  15
ATOM     13  C   UNL     1       3.627   6.746  17.792  0.00  0.00    +0.000 A 
ATOM     14  C   UNL     1       2.900   7.923  18.005  0.00  0.00    +0.000 A 
ATOM     15  C   UNL     1       2.101   8.091  19.123  0.00  0.00    +0.000 A 
ATOM     16  C   UNL     1       2.006   7.001  20.000  0.00  0.00    +0.000 A 
ATOM     17  C   UNL     1       2.647   5.769  19.759  0.00  0.00    +0.000 A 
ATOM     18  C   UNL     1       3.470   5.623  18.625  0.00  0.00    +0.000 A 
BRANCH  13  20
ATOM     19  C   UNL     1       5.849   6.947  17.014  0.00  0.00    +0.000 C 
ATOM     20  O   UNL     1       4.481   6.676  16.706  0.00  0.00    +0.000 OA
ENDBRANCH  13  20
BRANCH  17  21
ATOM     21  O   UNL     1       2.357   4.845  20.737  0.00  0.00    +0.000 OA
ATOM     22  C   UNL     1       1.182   4.055  20.626  0.00  0.00    +0.000 C 
ENDBRANCH  17  21
BRANCH  18  23
ATOM     23  O   UNL     1       3.987   4.378  18.392  0.00  0.00    +0.000 OA
ATOM     24  C   UNL     1       3.292   3.477  17.544  0.00  0.00    +0.000 C 
ENDBRANCH  18  23
ENDBRANCH  11  15
ENDBRANCH   1  11
BRANCH  10  25
ATOM     25  C   UNL     1      -1.486   9.880  18.845  0.00  0.00    +0.000 C 
BRANCH  25  26
ATOM     26  C   UNL     1      -2.351  10.392  17.707  0.00  0.00    +0.000 A 
ATOM     27  C   UNL     1      -2.162   9.856  16.419  0.00  0.00    +0.000 A 
ATOM     28  C   UNL     1      -3.046  10.146  15.377  0.00  0.00    +0.000 A 
ATOM     29  C   UNL     1      -4.133  10.985  15.600  0.00  0.00    +0.000 A 
ATOM     30  C   UNL     1      -4.319  11.554  16.859  0.00  0.00    +0.000 A 
ATOM     31  C   UNL     1      -3.436  11.263  17.907  0.00  0.00    +0.000 A 
ENDBRANCH  25  26
ENDBRANCH  10  25
TORSDOF 7
ENDMDL
