MODEL 1
REMARK VINA RESULT:      -7.2      0.000      0.000
REMARK  Name = 
REMARK  7 active torsions:
REMARK  status: ('A' for Active; 'I' for Inactive)
REMARK    1  A    between atoms: C_2  and  O_3
REMARK    2  A    between atoms: C_2  and  C_12
REMARK    3  A    between atoms: O_3  and  C_4
REMARK    4  A    between atoms: C_12  and  O_13
REMARK    5  A    between atoms: C_12  and  C_14
REMARK    6  A    between atoms: C_12  and  C_21
REMARK    7  A    between atoms: C_14  and  N_15
REMARK                            x       y       z     vdW  Elec       q    Type
REMARK                         _______ _______ _______ _____ _____    ______ ____
ROOT
ATOM      1  C   UNL     1       2.283   6.337  19.572  0.00  0.00    +0.000 C 
ENDROOT
BRANCH   1   2
ATOM      2  C   UNL     1       1.819   4.854  19.560  0.00  0.00    +0.000 A 
ATOM      3  C   UNL     1       1.622   4.197  20.790  0.00  0.00    +0.000 A 
ATOM      4  C   UNL     1       1.212   2.863  20.853  0.00  0.00    +0.000 A 
ATOM      5  C   UNL     1       0.973   2.143  19.688  0.00  0.00    +0.000 A 
ATOM      6  C   UNL     1       1.132   2.768  18.451  0.00  0.00    +0.000 A 
ATOM      7  C   UNL     1       1.558   4.106  18.382  0.00  0.00    +0.000 A 
ENDBRANCH   1   2
BRANCH   1   9
ATOM      8  O   UNL     1       2.190   7.667  17.595  0.00  0.00    +0.000 OA
ATOM      9  C   UNL     1       2.833   6.835  18.215  0.00  0.00    +0.000 C 
BRANCH   9  10
ATOM     10  O   UNL     1       4.137   6.633  17.860  0.00  0.00    +0.000 OA
BRANCH  10  11
ATOM     11  C   UNL     1       4.647   5.633  17.012  0.00  0.00    +0.000 C 
ATOM     12  C   UNL     1       5.175   4.435  17.861  0.00  0.00    +0.000 C 
ATOM     13  N   UNL     1       6.596   4.672  18.263  0.00  0.00    +0.000 NA
ATOM     14  C   UNL     1       7.455   4.377  17.088  0.00  0.00    +0.000 C 
ATOM     15  C   UNL     1       6.859   5.052  15.809  0.00  0.00    +0.000 C 
ATOM     16  C   UNL     1       5.908   6.206  16.267  0.00  0.00    +0.000 C 
ATOM     17  C   UNL     1       6.720   6.994  17.308  0.00  0.00    +0.000 C 
ATOM     18  C   UNL     1       6.788   6.115  18.607  0.00  0.00    +0.000 C 
ENDBRANCH  10  11
ENDBRANCH   9  10
ENDBRANCH   1   9
BRANCH   1  19
ATOM     19  O   UNL     1       3.414   6.382  20.416  0.00  0.00    +0.000 OA
ATOM     20  H   UNL     1       3.397   5.634  21.065  0.00  0.00    +0.000 HD
ENDBRANCH   1  19
BRANCH   1  21
ATOM     21  C   UNL     1       1.200   7.353  20.160  0.00  0.00    +0.000 C 
BRANCH  21  22
ATOM     22  N   UNL     1       1.626   8.683  20.693  0.00  0.00    +0.000 NA
ATOM     23  C   UNL     1       1.059   9.810  19.897  0.00  0.00    +0.000 C 
ATOM     24  C   UNL     1      -0.423  10.072  20.229  0.00  0.00    +0.000 C 
ATOM     25  C   UNL     1      -0.577  10.365  21.725  0.00  0.00    +0.000 C 
ATOM     26  C   UNL     1       0.019   9.223  22.545  0.00  0.00    +0.000 C 
ATOM     27  C   UNL     1       1.479   8.953  22.138  0.00  0.00    +0.000 C 
ENDBRANCH  21  22
ENDBRANCH   1  21
TORSDOF 7
ENDMDL
MODEL 2
REMARK VINA RESULT:      -7.1      0.790      1.358
REMARK  Name = 
REMARK  7 active torsions:
REMARK  status: ('A' for Active; 'I' for Inactive)
REMARK    1  A    between atoms: C_2  and  O_3
REMARK    2  A    between atoms: C_2  and  C_12
REMARK    3  A    between atoms: O_3  and  C_4
REMARK    4  A    between atoms: C_12  and  O_13
REMARK    5  A    between atoms: C_12  and  C_14
REMARK    6  A    between atoms: C_12  and  C_21
REMARK    7  A    between atoms: C_14  and  N_15
REMARK                            x       y       z     vdW  Elec       q    Type
REMARK                         _______ _______ _______ _____ _____    ______ ____
ROOT
ATOM      1  C   UNL     1       2.244   6.546  19.514  0.00  0.00    +0.000 C 
ENDROOT
BRANCH   1   2
ATOM      2  C   UNL     1       1.850   5.047  19.634  0.00  0.00    +0.000 A 
ATOM      3  C   UNL     1       1.834   4.453  20.911  0.00  0.00    +0.000 A 
ATOM      4  C   UNL     1       1.497   3.109  21.092  0.00  0.00    +0.000 A 
ATOM      5  C   UNL     1       1.152   2.316  20.003  0.00  0.00    +0.000 A 
ATOM      6  C   UNL     1       1.130   2.878  18.726  0.00  0.00    +0.000 A 
ATOM      7  C   UNL     1       1.482   4.225  18.538  0.00  0.00    +0.000 A 
ENDBRANCH   1   2
BRANCH   1   9
ATOM      8  O   UNL     1       2.470   8.114  17.732  0.00  0.00    +0.000 OA
ATOM      9  C   UNL     1       2.685   6.968  18.093  0.00  0.00    +0.000 C 
BRANCH   9  10
ATOM     10  O   UNL     1       3.579   6.223  17.377  0.00  0.00    +0.000 OA
BRANCH  10  11
ATOM     11  C   UNL     1       4.931   6.521  17.126  0.00  0.00    +0.000 C 
ATOM     12  C   UNL     1       5.326   6.029  15.698  0.00  0.00    +0.000 C 
ATOM     13  N   UNL     1       5.759   4.598  15.746  0.00  0.00    +0.000 NA
ATOM     14  C   UNL     1       7.146   4.561  16.277  0.00  0.00    +0.000 C 
ATOM     15  C   UNL     1       7.258   5.476  17.540  0.00  0.00    +0.000 C 
ATOM     16  C   UNL     1       5.819   5.685  18.118  0.00  0.00    +0.000 C 
ATOM     17  C   UNL     1       5.212   4.273  18.178  0.00  0.00    +0.000 C 
ATOM     18  C   UNL     1       4.893   3.841  16.703  0.00  0.00    +0.000 C 
ENDBRANCH  10  11
ENDBRANCH   9  10
ENDBRANCH   1   9
BRANCH   1  19
ATOM     19  O   UNL     1       3.421   6.699  20.278  0.00  0.00    +0.000 OA
ATOM     20  H   UNL     1       3.408   6.099  21.066  0.00  0.00    +0.000 HD
ENDBRANCH   1  19
BRANCH   1  21
ATOM     21  C   UNL     1       1.152   7.554  20.100  0.00  0.00    +0.000 C 
BRANCH  21  22
ATOM     22  N   UNL     1       1.578   8.832  20.747  0.00  0.00    +0.000 NA
ATOM     23  C   UNL     1       1.017  10.025  20.049  0.00  0.00    +0.000 C 
ATOM     24  C   UNL     1      -0.466  10.261  20.396  0.00  0.00    +0.000 C 
ATOM     25  C   UNL     1      -0.626  10.424  21.910  0.00  0.00    +0.000 C 
ATOM     26  C   UNL     1      -0.037   9.214  22.631  0.00  0.00    +0.000 C 
ATOM     27  C   UNL     1       1.424   8.977  22.210  0.00  0.00    +0.000 C 
ENDBRANCH  21  22
ENDBRANCH   1  21
TORSDOF 7
ENDMDL
MODEL 3
REMARK VINA RESULT:      -6.8      3.168      7.590
REMARK  Name = 
REMARK  7 active torsions:
REMARK  status: ('A' for Active; 'I' for Inactive)
REMARK    1  A    between atoms: C_2  and  O_3
REMARK    2  A    between atoms: C_2  and  C_12
REMARK    3  A    between atoms: O_3  and  C_4
REMARK    4  A    between atoms: C_12  and  O_13
REMARK    5  A    between atoms: C_12  and  C_14
REMARK    6  A    between atoms: C_12  and  C_21
REMARK    7  A    between atoms: C_14  and  N_15
REMARK                            x       y       z     vdW  Elec       q    Type
REMARK                         _______ _______ _______ _____ _____    ______ ____
ROOT
ATOM      1  C   UNL     1       5.449   5.186  16.893  0.00  0.00    +0.000 C 
ENDROOT
BRANCH   1   2
ATOM      2  C   UNL     1       6.520   6.128  17.511  0.00  0.00    +0.000 A 
ATOM      3  C   UNL     1       7.256   5.676  18.624  0.00  0.00    +0.000 A 
ATOM      4  C   UNL     1       8.229   6.472  19.234  0.00  0.00    +0.000 A 
ATOM      5  C   UNL     1       8.507   7.744  18.746  0.00  0.00    +0.000 A 
ATOM      6  C   UNL     1       7.817   8.215  17.629  0.00  0.00    +0.000 A 
ATOM      7  C   UNL     1       6.828   7.423  17.020  0.00  0.00    +0.000 A 
ENDBRANCH   1   2
BRANCH   1   9
ATOM      8  O   UNL     1       3.591   6.661  17.128  0.00  0.00    +0.000 OA
ATOM      9  C   UNL     1       3.999   5.525  17.309  0.00  0.00    +0.000 C 
BRANCH   9  10
ATOM     10  O   UNL     1       3.082   4.541  17.552  0.00  0.00    +0.000 OA
BRANCH  10  11
ATOM     11  C   UNL     1       2.037   4.560  18.494  0.00  0.00    +0.000 C 
ATOM     12  C   UNL     1       2.624   4.679  19.935  0.00  0.00    +0.000 C 
ATOM     13  N   UNL     1       2.946   3.322  20.475  0.00  0.00    +0.000 NA
ATOM     14  C   UNL     1       1.673   2.693  20.913  0.00  0.00    +0.000 C 
ATOM     15  C   UNL     1       0.580   2.879  19.809  0.00  0.00    +0.000 C 
ATOM     16  C   UNL     1       1.304   3.169  18.453  0.00  0.00    +0.000 C 
ATOM     17  C   UNL     1       2.397   2.092  18.353  0.00  0.00    +0.000 C 
ATOM     18  C   UNL     1       3.516   2.468  19.388  0.00  0.00    +0.000 C 
ENDBRANCH  10  11
ENDBRANCH   9  10
ENDBRANCH   1   9
BRANCH   1  19
ATOM     19  O   UNL     1       5.666   3.918  17.475  0.00  0.00    +0.000 OA
ATOM     20  H   UNL     1       5.675   3.211  16.781  0.00  0.00    +0.000 HD
ENDBRANCH   1  19
BRANCH   1  21
ATOM     21  C   UNL     1       5.568   5.019  15.309  0.00  0.00    +0.000 C 
BRANCH  21  22
ATOM     22  N   UNL     1       6.629   4.146  14.721  0.00  0.00    +0.000 NA
ATOM     23  C   UNL     1       6.062   3.136  13.781  0.00  0.00    +0.000 C 
ATOM     24  C   UNL     1       5.708   3.748  12.411  0.00  0.00    +0.000 C 
ATOM     25  C   UNL     1       6.952   4.393  11.792  0.00  0.00    +0.000 C 
ATOM     26  C   UNL     1       7.547   5.413  12.759  0.00  0.00    +0.000 C 
ATOM     27  C   UNL     1       7.827   4.777  14.132  0.00  0.00    +0.000 C 
ENDBRANCH  21  22
ENDBRANCH   1  21
TORSDOF 7
ENDMDL
MODEL 4
REMARK VINA RESULT:      -6.7      3.271      7.646
REMARK  Name = 
REMARK  7 active torsions:
REMARK  status: ('A' for Active; 'I' for Inactive)
REMARK    1  A    between atoms: C_2  and  O_3
REMARK    2  A    between atoms: C_2  and  C_12
REMARK    3  A    between atoms: O_3  and  C_4
REMARK    4  A    between atoms: C_12  and  O_13
REMARK    5  A    between atoms: C_12  and  C_14
REMARK    6  A    between atoms: C_12  and  C_21
REMARK    7  A    between atoms: C_14  and  N_15
REMARK                            x       y       z     vdW  Elec       q    Type
REMARK                         _______ _______ _______ _____ _____    ______ ____
ROOT
ATOM      1  C   UNL     1       6.141   4.848  17.167  0.00  0.00    +0.000 C 
ENDROOT
BRANCH   1   2
ATOM      2  C   UNL     1       6.965   6.073  17.651  0.00  0.00    +0.000 A 
ATOM      3  C   UNL     1       7.754   5.941  18.810  0.00  0.00    +0.000 A 
ATOM      4  C   UNL     1       8.515   7.003  19.307  0.00  0.00    +0.000 A 
ATOM      5  C   UNL     1       8.522   8.231  18.653  0.00  0.00    +0.000 A 
ATOM      6  C   UNL     1       7.774   8.391  17.487  0.00  0.00    +0.000 A 
ATOM      7  C   UNL     1       6.996   7.330  16.992  0.00  0.00    +0.000 A 
ENDBRANCH   1   2
BRANCH   1   9
ATOM      8  O   UNL     1       4.130   6.096  16.875  0.00  0.00    +0.000 OA
ATOM      9  C   UNL     1       4.610   5.043  17.264  0.00  0.00    +0.000 C 
BRANCH   9  10
ATOM     10  O   UNL     1       3.769   3.982  17.449  0.00  0.00    +0.000 OA
BRANCH  10  11
ATOM     11  C   UNL     1       2.447   4.013  17.928  0.00  0.00    +0.000 C 
ATOM     12  C   UNL     1       2.422   4.577  19.383  0.00  0.00    +0.000 C 
ATOM     13  N   UNL     1       2.643   3.474  20.369  0.00  0.00    +0.000 NA
ATOM     14  C   UNL     1       1.367   2.726  20.506  0.00  0.00    +0.000 C 
ATOM     15  C   UNL     1       0.768   2.430  19.092  0.00  0.00    +0.000 C 
ATOM     16  C   UNL     1       1.924   2.534  18.043  0.00  0.00    +0.000 C 
ATOM     17  C   UNL     1       3.071   1.701  18.640  0.00  0.00    +0.000 C 
ATOM     18  C   UNL     1       3.666   2.521  19.839  0.00  0.00    +0.000 C 
ENDBRANCH  10  11
ENDBRANCH   9  10
ENDBRANCH   1   9
BRANCH   1  19
ATOM     19  O   UNL     1       6.396   3.817  18.097  0.00  0.00    +0.000 OA
ATOM     20  H   UNL     1       6.917   3.087  17.676  0.00  0.00    +0.000 HD
ENDBRANCH   1  19
BRANCH   1  21
ATOM     21  C   UNL     1       6.561   4.312  15.722  0.00  0.00    +0.000 C 
BRANCH  21  22
ATOM     22  N   UNL     1       5.949   4.901  14.493  0.00  0.00    +0.000 NA
ATOM     23  C   UNL     1       6.914   5.758  13.745  0.00  0.00    +0.000 C 
ATOM     24  C   UNL     1       7.923   4.926  12.929  0.00  0.00    +0.000 C 
ATOM     25  C   UNL     1       7.175   4.012  11.953  0.00  0.00    +0.000 C 
ATOM     26  C   UNL     1       6.173   3.146  12.710  0.00  0.00    +0.000 C 
ATOM     27  C   UNL     1       5.225   4.012  13.560  0.00  0.00    +0.000 C 
ENDBRANCH  21  22
ENDBRANCH   1  21
TORSDOF 7
ENDMDL
MODEL 5
REMARK VINA RESULT:      -6.6      3.193      7.703
REMARK  Name = 
REMARK  7 active torsions:
REMARK  status: ('A' for Active; 'I' for Inactive)
REMARK    1  A    between atoms: C_2  and  O_3
REMARK    2  A    between atoms: C_2  and  C_12
REMARK    3  A    between atoms: O_3  and  C_4
REMARK    4  A    between atoms: C_12  and  O_13
REMARK    5  A    between atoms: C_12  and  C_14
REMARK    6  A    between atoms: C_12  and  C_21
REMARK    7  A    between atoms: C_14  and  N_15
REMARK                            x       y       z     vdW  Elec       q    Type
REMARK                         _______ _______ _______ _____ _____    ______ ____
ROOT
ATOM      1  C   UNL     1       6.284   4.845  17.281  0.00  0.00    +0.000 C 
ENDROOT
BRANCH   1   2
ATOM      2  C   UNL     1       7.047   6.132  17.701  0.00  0.00    +0.000 A 
ATOM      3  C   UNL     1       7.870   6.087  18.844  0.00  0.00    +0.000 A 
ATOM      4  C   UNL     1       8.579   7.208  19.283  0.00  0.00    +0.000 A 
ATOM      5  C   UNL     1       8.499   8.410  18.587  0.00  0.00    +0.000 A 
ATOM      6  C   UNL     1       7.715   8.484  17.436  0.00  0.00    +0.000 A 
ATOM      7  C   UNL     1       6.989   7.363  16.998  0.00  0.00    +0.000 A 
ENDBRANCH   1   2
BRANCH   1   9
ATOM      8  O   UNL     1       4.112   5.652  16.719  0.00  0.00    +0.000 OA
ATOM      9  C   UNL     1       4.751   4.933  17.470  0.00  0.00    +0.000 C 
BRANCH   9  10
ATOM     10  O   UNL     1       4.072   4.004  18.207  0.00  0.00    +0.000 OA
BRANCH  10  11
ATOM     11  C   UNL     1       3.505   4.174  19.483  0.00  0.00    +0.000 C 
ATOM     12  C   UNL     1       3.389   2.793  20.200  0.00  0.00    +0.000 C 
ATOM     13  N   UNL     1       2.102   2.126  19.832  0.00  0.00    +0.000 NA
ATOM     14  C   UNL     1       1.018   2.765  20.621  0.00  0.00    +0.000 C 
ATOM     15  C   UNL     1       1.161   4.321  20.561  0.00  0.00    +0.000 C 
ATOM     16  C   UNL     1       2.027   4.681  19.309  0.00  0.00    +0.000 C 
ATOM     17  C   UNL     1       1.410   3.868  18.158  0.00  0.00    +0.000 C 
ATOM     18  C   UNL     1       1.805   2.366  18.386  0.00  0.00    +0.000 C 
ENDBRANCH  10  11
ENDBRANCH   9  10
ENDBRANCH   1   9
BRANCH   1  19
ATOM     19  O   UNL     1       6.667   3.848  18.205  0.00  0.00    +0.000 OA
ATOM     20  H   UNL     1       5.979   3.739  18.909  0.00  0.00    +0.000 HD
ENDBRANCH   1  19
BRANCH   1  21
ATOM     21  C   UNL     1       6.653   4.318  15.819  0.00  0.00    +0.000 C 
BRANCH  21  22
ATOM     22  N   UNL     1       6.030   4.944  14.614  0.00  0.00    +0.000 NA
ATOM     23  C   UNL     1       7.006   5.776  13.851  0.00  0.00    +0.000 C 
ATOM     24  C   UNL     1       7.963   4.920  12.999  0.00  0.00    +0.000 C 
ATOM     25  C   UNL     1       7.158   4.046  12.032  0.00  0.00    +0.000 C 
ATOM     26  C   UNL     1       6.145   3.206  12.805  0.00  0.00    +0.000 C 
ATOM     27  C   UNL     1       5.251   4.094  13.690  0.00  0.00    +0.000 C 
ENDBRANCH  21  22
ENDBRANCH   1  21
TORSDOF 7
ENDMDL
MODEL 6
REMARK VINA RESULT:      -6.6      0.641      1.217
REMARK  Name = 
REMARK  7 active torsions:
REMARK  status: ('A' for Active; 'I' for Inactive)
REMARK    1  A    between atoms: C_2  and  O_3
REMARK    2  A    between atoms: C_2  and  C_12
REMARK    3  A    between atoms: O_3  and  C_4
REMARK    4  A    between atoms: C_12  and  O_13
REMARK    5  A    between atoms: C_12  and  C_14
REMARK    6  A    between atoms: C_12  and  C_21
REMARK    7  A    between atoms: C_14  and  N_15
REMARK                            x       y       z     vdW  Elec       q    Type
REMARK                         _______ _______ _______ _____ _____    ______ ____
ROOT
ATOM      1  C   UNL     1       2.290   6.751  19.443  0.00  0.00    +0.000 C 
ENDROOT
BRANCH   1   2
ATOM      2  C   UNL     1       1.826   5.269  19.409  0.00  0.00    +0.000 A 
ATOM      3  C   UNL     1       1.814   4.592  18.174  0.00  0.00    +0.000 A 
ATOM      4  C   UNL     1       1.402   3.261  18.069  0.00  0.00    +0.000 A 
ATOM      5  C   UNL     1       0.999   2.557  19.198  0.00  0.00    +0.000 A 
ATOM      6  C   UNL     1       1.023   3.186  20.443  0.00  0.00    +0.000 A 
ATOM      7  C   UNL     1       1.423   4.529  20.551  0.00  0.00    +0.000 A 
ENDBRANCH   1   2
BRANCH   1   9
ATOM      8  O   UNL     1       2.276   8.027  17.428  0.00  0.00    +0.000 OA
ATOM      9  C   UNL     1       2.913   7.245  18.116  0.00  0.00    +0.000 C 
BRANCH   9  10
ATOM     10  O   UNL     1       4.249   7.105  17.863  0.00  0.00    +0.000 OA
BRANCH  10  11
ATOM     11  C   UNL     1       4.849   6.600  16.695  0.00  0.00    +0.000 C 
ATOM     12  C   UNL     1       4.511   5.085  16.537  0.00  0.00    +0.000 C 
ATOM     13  N   UNL     1       5.505   4.253  17.282  0.00  0.00    +0.000 NA
ATOM     14  C   UNL     1       6.745   4.187  16.466  0.00  0.00    +0.000 C 
ATOM     15  C   UNL     1       7.120   5.616  15.951  0.00  0.00    +0.000 C 
ATOM     16  C   UNL     1       6.411   6.665  16.870  0.00  0.00    +0.000 C 
ATOM     17  C   UNL     1       6.719   6.202  18.304  0.00  0.00    +0.000 C 
ATOM     18  C   UNL     1       5.854   4.920  18.574  0.00  0.00    +0.000 C 
ENDBRANCH  10  11
ENDBRANCH   9  10
ENDBRANCH   1   9
BRANCH   1  19
ATOM     19  O   UNL     1       3.374   6.798  20.346  0.00  0.00    +0.000 OA
ATOM     20  H   UNL     1       3.562   7.731  20.621  0.00  0.00    +0.000 HD
ENDBRANCH   1  19
BRANCH   1  21
ATOM     21  C   UNL     1       1.178   7.770  19.969  0.00  0.00    +0.000 C 
BRANCH  21  22
ATOM     22  N   UNL     1       1.575   8.989  20.735  0.00  0.00    +0.000 NA
ATOM     23  C   UNL     1       1.038  10.236  20.116  0.00  0.00    +0.000 C 
ATOM     24  C   UNL     1      -0.457  10.444  20.423  0.00  0.00    +0.000 C 
ATOM     25  C   UNL     1      -0.677  10.481  21.939  0.00  0.00    +0.000 C 
ATOM     26  C   UNL     1      -0.112   9.216  22.580  0.00  0.00    +0.000 C 
ATOM     27  C   UNL     1       1.365   9.013  22.197  0.00  0.00    +0.000 C 
ENDBRANCH  21  22
ENDBRANCH   1  21
TORSDOF 7
ENDMDL
MODEL 7
REMARK VINA RESULT:      -6.4      1.589      6.149
REMARK  Name = 
REMARK  7 active torsions:
REMARK  status: ('A' for Active; 'I' for Inactive)
REMARK    1  A    between atoms: C_2  and  O_3
REMARK    2  A    between atoms: C_2  and  C_12
REMARK    3  A    between atoms: O_3  and  C_4
REMARK    4  A    between atoms: C_12  and  O_13
REMARK    5  A    between atoms: C_12  and  C_14
REMARK    6  A    between atoms: C_12  and  C_21
REMARK    7  A    between atoms: C_14  and  N_15
REMARK                            x       y       z     vdW  Elec       q    Type
REMARK                         _______ _______ _______ _____ _____    ______ ____
ROOT
ATOM      1  C   UNL     1       2.395   6.398  19.149  0.00  0.00    +0.000 C 
ENDROOT
BRANCH   1   2
ATOM      2  C   UNL     1       2.031   4.992  19.702  0.00  0.00    +0.000 A 
ATOM      3  C   UNL     1       2.410   4.664  21.018  0.00  0.00    +0.000 A 
ATOM      4  C   UNL     1       2.122   3.416  21.577  0.00  0.00    +0.000 A 
ATOM      5  C   UNL     1       1.435   2.456  20.842  0.00  0.00    +0.000 A 
ATOM      6  C   UNL     1       1.020   2.755  19.544  0.00  0.00    +0.000 A 
ATOM      7  C   UNL     1       1.320   4.003  18.973  0.00  0.00    +0.000 A 
ENDBRANCH   1   2
BRANCH   1   9
ATOM      8  O   UNL     1       1.336   7.362  21.056  0.00  0.00    +0.000 OA
ATOM      9  C   UNL     1       1.737   7.565  19.921  0.00  0.00    +0.000 C 
BRANCH   9  10
ATOM     10  O   UNL     1       1.890   8.861  19.514  0.00  0.00    +0.000 OA
BRANCH  10  11
ATOM     11  C   UNL     1       1.148   9.542  18.532  0.00  0.00    +0.000 C 
ATOM     12  C   UNL     1       1.837  10.901  18.194  0.00  0.00    +0.000 C 
ATOM     13  N   UNL     1       1.369  11.965  19.135  0.00  0.00    +0.000 NA
ATOM     14  C   UNL     1       0.019  12.400  18.696  0.00  0.00    +0.000 C 
ATOM     15  C   UNL     1      -0.871  11.149  18.393  0.00  0.00    +0.000 C 
ATOM     16  C   UNL     1      -0.252   9.921  19.139  0.00  0.00    +0.000 C 
ATOM     17  C   UNL     1       0.003  10.420  20.571  0.00  0.00    +0.000 C 
ATOM     18  C   UNL     1       1.231  11.396  20.512  0.00  0.00    +0.000 C 
ENDBRANCH  10  11
ENDBRANCH   9  10
ENDBRANCH   1   9
BRANCH   1  19
ATOM     19  O   UNL     1       1.799   6.477  17.872  0.00  0.00    +0.000 OA
ATOM     20  H   UNL     1       1.320   5.638  17.656  0.00  0.00    +0.000 HD
ENDBRANCH   1  19
BRANCH   1  21
ATOM     21  C   UNL     1       3.963   6.640  18.969  0.00  0.00    +0.000 C 
BRANCH  21  22
ATOM     22  N   UNL     1       4.791   5.667  18.193  0.00  0.00    +0.000 NA
ATOM     23  C   UNL     1       5.436   6.305  17.008  0.00  0.00    +0.000 C 
ATOM     24  C   UNL     1       6.665   7.149  17.396  0.00  0.00    +0.000 C 
ATOM     25  C   UNL     1       7.684   6.276  18.134  0.00  0.00    +0.000 C 
ATOM     26  C   UNL     1       7.025   5.606  19.337  0.00  0.00    +0.000 C 
ATOM     27  C   UNL     1       5.767   4.825  18.915  0.00  0.00    +0.000 C 
ENDBRANCH  21  22
ENDBRANCH   1  21
TORSDOF 7
ENDMDL
MODEL 8
REMARK VINA RESULT:      -6.3      1.091      1.810
REMARK  Name = 
REMARK  7 active torsions:
REMARK  status: ('A' for Active; 'I' for Inactive)
REMARK    1  A    between atoms: C_2  and  O_3
REMARK    2  A    between atoms: C_2  and  C_12
REMARK    3  A    between atoms: O_3  and  C_4
REMARK    4  A    between atoms: C_12  and  O_13
REMARK    5  A    between atoms: C_12  and  C_14
REMARK    6  A    between atoms: C_12  and  C_21
REMARK    7  A    between atoms: C_14  and  N_15
REMARK                            x       y       z     vdW  Elec       q    Type
REMARK                         _______ _______ _______ _____ _____    ______ ____
ROOT
ATOM      1  C   UNL     1       2.760   6.577  19.548  0.00  0.00    +0.000 C 
ENDROOT
BRANCH   1   2
ATOM      2  C   UNL     1       2.021   5.210  19.513  0.00  0.00    +0.000 A 
ATOM      3  C   UNL     1       1.668   4.601  20.733  0.00  0.00    +0.000 A 
ATOM      4  C   UNL     1       1.009   3.370  20.777  0.00  0.00    +0.000 A 
ATOM      5  C   UNL     1       0.670   2.710  19.601  0.00  0.00    +0.000 A 
ATOM      6  C   UNL     1       0.980   3.295  18.373  0.00  0.00    +0.000 A 
ATOM      7  C   UNL     1       1.655   4.527  18.324  0.00  0.00    +0.000 A 
ENDBRANCH   1   2
BRANCH   1   9
ATOM      8  O   UNL     1       2.935   8.365  17.980  0.00  0.00    +0.000 OA
ATOM      9  C   UNL     1       3.063   7.162  18.149  0.00  0.00    +0.000 C 
BRANCH   9  10
ATOM     10  O   UNL     1       3.772   6.453  17.221  0.00  0.00    +0.000 OA
BRANCH  10  11
ATOM     11  C   UNL     1       5.114   6.642  16.842  0.00  0.00    +0.000 C 
ATOM     12  C   UNL     1       5.298   6.269  15.338  0.00  0.00    +0.000 C 
ATOM     13  N   UNL     1       5.575   4.806  15.198  0.00  0.00    +0.000 NA
ATOM     14  C   UNL     1       6.998   4.577  15.556  0.00  0.00    +0.000 C 
ATOM     15  C   UNL     1       7.343   5.336  16.879  0.00  0.00    +0.000 C 
ATOM     16  C   UNL     1       6.006   5.621  17.639  0.00  0.00    +0.000 C 
ATOM     17  C   UNL     1       5.257   4.278  17.635  0.00  0.00    +0.000 C 
ATOM     18  C   UNL     1       4.738   4.039  16.172  0.00  0.00    +0.000 C 
ENDBRANCH  10  11
ENDBRANCH   9  10
ENDBRANCH   1   9
BRANCH   1  19
ATOM     19  O   UNL     1       4.043   6.310  20.073  0.00  0.00    +0.000 OA
ATOM     20  H   UNL     1       4.282   6.975  20.767  0.00  0.00    +0.000 HD
ENDBRANCH   1  19
BRANCH   1  21
ATOM     21  C   UNL     1       2.068   7.666  20.489  0.00  0.00    +0.000 C 
BRANCH  21  22
ATOM     22  N   UNL     1       0.710   8.194  20.157  0.00  0.00    +0.000 NA
ATOM     23  C   UNL     1      -0.250   8.011  21.285  0.00  0.00    +0.000 C 
ATOM     24  C   UNL     1      -0.041   9.050  22.404  0.00  0.00    +0.000 C 
ATOM     25  C   UNL     1      -0.177  10.465  21.831  0.00  0.00    +0.000 C 
ATOM     26  C   UNL     1       0.789  10.652  20.665  0.00  0.00    +0.000 C 
ATOM     27  C   UNL     1       0.590   9.557  19.601  0.00  0.00    +0.000 C 
ENDBRANCH  21  22
ENDBRANCH   1  21
TORSDOF 7
ENDMDL
MODEL 9
REMARK VINA RESULT:      -6.3      2.517      6.706
REMARK  Name = 
REMARK  7 active torsions:
REMARK  status: ('A' for Active; 'I' for Inactive)
REMARK    1  A    between atoms: C_2  and  O_3
REMARK    2  A    between atoms: C_2  and  C_12
REMARK    3  A    between atoms: O_3  and  C_4
REMARK    4  A    between atoms: C_12  and  O_13
REMARK    5  A    between atoms: C_12  and  C_14
REMARK    6  A    between atoms: C_12  and  C_21
REMARK    7  A    between atoms: C_14  and  N_15
REMARK                            x       y       z     vdW  Elec       q    Type
REMARK                         _______ _______ _______ _____ _____    ______ ____
ROOT
ATOM      1  C   UNL     1       5.098   6.122  17.806  0.00  0.00    +0.000 C 
ENDROOT
BRANCH   1   2
ATOM      2  C   UNL     1       3.868   7.020  18.115  0.00  0.00    +0.000 A 
ATOM      3  C   UNL     1       3.266   6.928  19.385  0.00  0.00    +0.000 A 
ATOM      4  C   UNL     1       2.153   7.700  19.729  0.00  0.00    +0.000 A 
ATOM      5  C   UNL     1       1.611   8.601  18.818  0.00  0.00    +0.000 A 
ATOM      6  C   UNL     1       2.197   8.739  17.560  0.00  0.00    +0.000 A 
ATOM      7  C   UNL     1       3.308   7.954  17.205  0.00  0.00    +0.000 A 
ENDBRANCH   1   2
BRANCH   1   9
ATOM      8  O   UNL     1       6.010   5.171  19.793  0.00  0.00    +0.000 OA
ATOM      9  C   UNL     1       5.305   4.970  18.817  0.00  0.00    +0.000 C 
BRANCH   9  10
ATOM     10  O   UNL     1       4.481   3.881  18.831  0.00  0.00    +0.000 OA
BRANCH  10  11
ATOM     11  C   UNL     1       3.454   3.598  19.750  0.00  0.00    +0.000 C 
ATOM     12  C   UNL     1       3.247   2.054  19.855  0.00  0.00    +0.000 C 
ATOM     13  N   UNL     1       2.292   1.587  18.804  0.00  0.00    +0.000 NA
ATOM     14  C   UNL     1       0.918   1.926  19.255  0.00  0.00    +0.000 C 
ATOM     15  C   UNL     1       0.877   3.399  19.779  0.00  0.00    +0.000 C 
ATOM     16  C   UNL     1       2.103   4.163  19.177  0.00  0.00    +0.000 C 
ATOM     17  C   UNL     1       2.078   3.824  17.677  0.00  0.00    +0.000 C 
ATOM     18  C   UNL     1       2.541   2.331  17.530  0.00  0.00    +0.000 C 
ENDBRANCH  10  11
ENDBRANCH   9  10
ENDBRANCH   1   9
BRANCH   1  19
ATOM     19  O   UNL     1       6.233   6.937  18.006  0.00  0.00    +0.000 OA
ATOM     20  H   UNL     1       6.667   6.727  18.871  0.00  0.00    +0.000 HD
ENDBRANCH   1  19
BRANCH   1  21
ATOM     21  C   UNL     1       5.148   5.583  16.303  0.00  0.00    +0.000 C 
BRANCH  21  22
ATOM     22  N   UNL     1       6.051   4.450  15.939  0.00  0.00    +0.000 NA
ATOM     23  C   UNL     1       5.361   3.440  15.086  0.00  0.00    +0.000 C 
ATOM     24  C   UNL     1       5.234   3.901  13.621  0.00  0.00    +0.000 C 
ATOM     25  C   UNL     1       6.623   4.203  13.048  0.00  0.00    +0.000 C 
ATOM     26  C   UNL     1       7.341   5.223  13.929  0.00  0.00    +0.000 C 
ATOM     27  C   UNL     1       7.390   4.752  15.393  0.00  0.00    +0.000 C 
ENDBRANCH  21  22
ENDBRANCH   1  21
TORSDOF 7
ENDMDL
