MODEL 1
REMARK VINA RESULT:      -8.2      0.000      0.000
REMARK  Name = 
REMARK  9 active torsions:
REMARK  status: ('A' for Active; 'I' for Inactive)
REMARK    1  A    between atoms: C_1  and  N_2
REMARK    2  A    between atoms: N_2  and  C_3
REMARK    3  A    between atoms: N_2  and  C_4
REMARK    4  A    between atoms: C_4  and  C_5
REMARK    5  A    between atoms: C_5  and  C_6
REMARK    6  A    between atoms: C_6  and  N_7
REMARK    7  A    between atoms: C_6  and  C_18
REMARK    8  A    between atoms: C_8  and  C_10
REMARK    9  A    between atoms: C_11  and  C_12
REMARK                            x       y       z     vdW  Elec       q    Type
REMARK                         _______ _______ _______ _____ _____    ______ ____
ROOT
ATOM      1  C   UNL     1       5.961   6.135  16.767  0.00  0.00    +0.000 C 
ENDROOT
BRANCH   1   2
ATOM      2  C   UNL     1       4.808   6.078  17.769  0.00  0.00    +0.000 A 
ATOM      3  C   UNL     1       3.742   6.988  17.672  0.00  0.00    +0.000 A 
ATOM      4  C   UNL     1       2.687   6.954  18.591  0.00  0.00    +0.000 A 
ATOM      5  C   UNL     1       2.684   6.004  19.612  0.00  0.00    +0.000 A 
ATOM      6 CL   UNL     1       1.393   5.969  20.750  0.00  0.00    +0.000 Cl
ATOM      7  C   UNL     1       3.718   5.082  19.715  0.00  0.00    +0.000 A 
ATOM      8  C   UNL     1       4.764   5.114  18.793  0.00  0.00    +0.000 A 
ENDBRANCH   1   2
BRANCH   1   9
ATOM      9  N   UNL     1       6.707   7.383  16.901  0.00  0.00    +0.000 N 
ATOM     10  C   UNL     1       7.686   7.578  17.843  0.00  0.00    +0.000 C 
ATOM     11  O   UNL     1       8.075   6.730  18.637  0.00  0.00    +0.000 OA
ATOM     12  H   UNL     1       6.428   8.145  16.301  0.00  0.00    +0.000 HD
BRANCH  10  13
ATOM     13  C   UNL     1       8.215   8.961  17.856  0.00  0.00    +0.000 C 
ATOM     14  C   UNL     1       8.931   9.372  18.917  0.00  0.00    +0.000 C 
BRANCH  14  15
ATOM     15  C   UNL     1       9.444  10.736  19.068  0.00  0.00    +0.000 A 
ATOM     16  C   UNL     1       9.960  11.199  20.286  0.00  0.00    +0.000 A 
ATOM     17  C   UNL     1      10.464  12.494  20.397  0.00  0.00    +0.000 A 
ATOM     18  C   UNL     1      10.469  13.338  19.290  0.00  0.00    +0.000 A 
ATOM     19  C   UNL     1       9.984  12.881  18.065  0.00  0.00    +0.000 A 
ATOM     20  C   UNL     1       9.480  11.584  17.952  0.00  0.00    +0.000 A 
ENDBRANCH  14  15
ENDBRANCH  10  13
ENDBRANCH   1   9
BRANCH   1  21
ATOM     21  C   UNL     1       5.527   5.836  15.313  0.00  0.00    +0.000 C 
BRANCH  21  22
ATOM     22  C   UNL     1       5.468   4.349  14.942  0.00  0.00    +0.000 C 
BRANCH  22  24
ATOM     23  C   UNL     1       5.853   3.490  12.694  0.00  0.00    +0.000 C 
ATOM     24  N   UNL     1       6.471   3.898  13.960  0.00  0.00    +0.000 NA
ATOM     25  C   UNL     1       7.417   4.992  13.703  0.00  0.00    +0.000 C 
ENDBRANCH  22  24
ENDBRANCH  21  22
ENDBRANCH   1  21
TORSDOF 7
ENDMDL
MODEL 2
REMARK VINA RESULT:      -7.9      4.932      6.692
REMARK  Name = 
REMARK  9 active torsions:
REMARK  status: ('A' for Active; 'I' for Inactive)
REMARK    1  A    between atoms: C_1  and  N_2
REMARK    2  A    between atoms: N_2  and  C_3
REMARK    3  A    between atoms: N_2  and  C_4
REMARK    4  A    between atoms: C_4  and  C_5
REMARK    5  A    between atoms: C_5  and  C_6
REMARK    6  A    between atoms: C_6  and  N_7
REMARK    7  A    between atoms: C_6  and  C_18
REMARK    8  A    between atoms: C_8  and  C_10
REMARK    9  A    between atoms: C_11  and  C_12
REMARK                            x       y       z     vdW  Elec       q    Type
REMARK                         _______ _______ _______ _____ _____    ______ ____
ROOT
ATOM      1  C   UNL     1       3.382   5.637  19.740  0.00  0.00    +0.000 C 
ENDROOT
BRANCH   1   2
ATOM      2  C   UNL     1       2.659   6.938  19.393  0.00  0.00    +0.000 A 
ATOM      3  C   UNL     1       1.902   7.608  20.368  0.00  0.00    +0.000 A 
ATOM      4  C   UNL     1       1.225   8.793  20.059  0.00  0.00    +0.000 A 
ATOM      5  C   UNL     1       1.305   9.325  18.772  0.00  0.00    +0.000 A 
ATOM      6 CL   UNL     1       0.465  10.776  18.387  0.00  0.00    +0.000 Cl
ATOM      7  C   UNL     1       2.066   8.690  17.798  0.00  0.00    +0.000 A 
ATOM      8  C   UNL     1       2.745   7.512  18.111  0.00  0.00    +0.000 A 
ENDBRANCH   1   2
BRANCH   1   9
ATOM      9  N   UNL     1       4.164   5.155  18.604  0.00  0.00    +0.000 N 
ATOM     10  C   UNL     1       5.520   4.954  18.653  0.00  0.00    +0.000 C 
ATOM     11  O   UNL     1       6.217   5.107  19.650  0.00  0.00    +0.000 OA
ATOM     12  H   UNL     1       3.669   5.031  17.733  0.00  0.00    +0.000 HD
BRANCH  10  13
ATOM     13  C   UNL     1       6.102   4.575  17.345  0.00  0.00    +0.000 C 
ATOM     14  C   UNL     1       5.545   5.062  16.222  0.00  0.00    +0.000 C 
BRANCH  14  15
ATOM     15  C   UNL     1       5.993   4.700  14.875  0.00  0.00    +0.000 A 
ATOM     16  C   UNL     1       5.229   3.871  14.042  0.00  0.00    +0.000 A 
ATOM     17  C   UNL     1       5.666   3.562  12.755  0.00  0.00    +0.000 A 
ATOM     18  C   UNL     1       6.866   4.086  12.280  0.00  0.00    +0.000 A 
ATOM     19  C   UNL     1       7.623   4.934  13.089  0.00  0.00    +0.000 A 
ATOM     20  C   UNL     1       7.184   5.246  14.378  0.00  0.00    +0.000 A 
ENDBRANCH  14  15
ENDBRANCH  10  13
ENDBRANCH   1   9
BRANCH   1  21
ATOM     21  C   UNL     1       2.452   4.559  20.342  0.00  0.00    +0.000 C 
BRANCH  21  22
ATOM     22  C   UNL     1       2.878   3.109  20.080  0.00  0.00    +0.000 C 
BRANCH  22  24
ATOM     23  C   UNL     1       3.497   1.490  18.367  0.00  0.00    +0.000 C 
ATOM     24  N   UNL     1       2.613   2.605  18.720  0.00  0.00    +0.000 NA
ATOM     25  C   UNL     1       1.217   2.157  18.637  0.00  0.00    +0.000 C 
ENDBRANCH  22  24
ENDBRANCH  21  22
ENDBRANCH   1  21
TORSDOF 7
ENDMDL
MODEL 3
REMARK VINA RESULT:      -7.9      5.120      6.899
REMARK  Name = 
REMARK  9 active torsions:
REMARK  status: ('A' for Active; 'I' for Inactive)
REMARK    1  A    between atoms: C_1  and  N_2
REMARK    2  A    between atoms: N_2  and  C_3
REMARK    3  A    between atoms: N_2  and  C_4
REMARK    4  A    between atoms: C_4  and  C_5
REMARK    5  A    between atoms: C_5  and  C_6
REMARK    6  A    between atoms: C_6  and  N_7
REMARK    7  A    between atoms: C_6  and  C_18
REMARK    8  A    between atoms: C_8  and  C_10
REMARK    9  A    between atoms: C_11  and  C_12
REMARK                            x       y       z     vdW  Elec       q    Type
REMARK                         _______ _______ _______ _____ _____    ______ ____
ROOT
ATOM      1  C   UNL     1       2.933   5.775  19.485  0.00  0.00    +0.000 C 
ENDROOT
BRANCH   1   2
ATOM      2  C   UNL     1       2.298   7.157  19.334  0.00  0.00    +0.000 A 
ATOM      3  C   UNL     1       2.288   7.797  18.084  0.00  0.00    +0.000 A 
ATOM      4  C   UNL     1       1.720   9.068  17.936  0.00  0.00    +0.000 A 
ATOM      5  C   UNL     1       1.151   9.708  19.036  0.00  0.00    +0.000 A 
ATOM      6 CL   UNL     1       0.463  11.276  18.858  0.00  0.00    +0.000 Cl
ATOM      7  C   UNL     1       1.132   9.085  20.277  0.00  0.00    +0.000 A 
ATOM      8  C   UNL     1       1.692   7.815  20.420  0.00  0.00    +0.000 A 
ENDBRANCH   1   2
BRANCH   1   9
ATOM      9  N   UNL     1       3.396   5.270  18.195  0.00  0.00    +0.000 N 
ATOM     10  C   UNL     1       4.723   5.121  17.876  0.00  0.00    +0.000 C 
ATOM     11  O   UNL     1       5.657   5.345  18.636  0.00  0.00    +0.000 OA
ATOM     12  H   UNL     1       2.689   5.088  17.499  0.00  0.00    +0.000 HD
BRANCH  10  13
ATOM     13  C   UNL     1       4.941   4.703  16.472  0.00  0.00    +0.000 C 
ATOM     14  C   UNL     1       6.145   4.915  15.912  0.00  0.00    +0.000 C 
BRANCH  14  15
ATOM     15  C   UNL     1       6.453   4.605  14.513  0.00  0.00    +0.000 A 
ATOM     16  C   UNL     1       5.739   3.632  13.800  0.00  0.00    +0.000 A 
ATOM     17  C   UNL     1       6.036   3.374  12.462  0.00  0.00    +0.000 A 
ATOM     18  C   UNL     1       7.040   4.091  11.818  0.00  0.00    +0.000 A 
ATOM     19  C   UNL     1       7.740   5.081  12.509  0.00  0.00    +0.000 A 
ATOM     20  C   UNL     1       7.442   5.342  13.848  0.00  0.00    +0.000 A 
ENDBRANCH  14  15
ENDBRANCH  10  13
ENDBRANCH   1   9
BRANCH   1  21
ATOM     21  C   UNL     1       2.043   4.769  20.250  0.00  0.00    +0.000 C 
BRANCH  21  22
ATOM     22  C   UNL     1       2.669   3.388  20.482  0.00  0.00    +0.000 C 
BRANCH  22  24
ATOM     23  C   UNL     1       0.908   2.708  18.941  0.00  0.00    +0.000 C 
ATOM     24  N   UNL     1       2.113   2.293  19.667  0.00  0.00    +0.000 NA
ATOM     25  C   UNL     1       3.128   1.850  18.701  0.00  0.00    +0.000 C 
ENDBRANCH  22  24
ENDBRANCH  21  22
ENDBRANCH   1  21
TORSDOF 7
ENDMDL
MODEL 4
REMARK VINA RESULT:      -7.8      4.886      6.856
REMARK  Name = 
REMARK  9 active torsions:
REMARK  status: ('A' for Active; 'I' for Inactive)
REMARK    1  A    between atoms: C_1  and  N_2
REMARK    2  A    between atoms: N_2  and  C_3
REMARK    3  A    between atoms: N_2  and  C_4
REMARK    4  A    between atoms: C_4  and  C_5
REMARK    5  A    between atoms: C_5  and  C_6
REMARK    6  A    between atoms: C_6  and  N_7
REMARK    7  A    between atoms: C_6  and  C_18
REMARK    8  A    between atoms: C_8  and  C_10
REMARK    9  A    between atoms: C_11  and  C_12
REMARK                            x       y       z     vdW  Elec       q    Type
REMARK                         _______ _______ _______ _____ _____    ______ ____
ROOT
ATOM      1  C   UNL     1       2.817   6.059  19.186  0.00  0.00    +0.000 C 
ENDROOT
BRANCH   1   2
ATOM      2  C   UNL     1       2.153   7.433  19.268  0.00  0.00    +0.000 A 
ATOM      3  C   UNL     1       1.605   7.883  20.480  0.00  0.00    +0.000 A 
ATOM      4  C   UNL     1       0.984   9.134  20.565  0.00  0.00    +0.000 A 
ATOM      5  C   UNL     1       0.911   9.952  19.438  0.00  0.00    +0.000 A 
ATOM      6 CL   UNL     1       0.137  11.485  19.537  0.00  0.00    +0.000 Cl
ATOM      7  C   UNL     1       1.464   9.536  18.233  0.00  0.00    +0.000 A 
ATOM      8  C   UNL     1       2.089   8.291  18.154  0.00  0.00    +0.000 A 
ENDBRANCH   1   2
BRANCH   1   9
ATOM      9  N   UNL     1       3.436   5.855  17.879  0.00  0.00    +0.000 N 
ATOM     10  C   UNL     1       4.794   5.844  17.681  0.00  0.00    +0.000 C 
ATOM     11  O   UNL     1       5.633   5.956  18.567  0.00  0.00    +0.000 OA
ATOM     12  H   UNL     1       2.813   5.783  17.089  0.00  0.00    +0.000 HD
BRANCH  10  13
ATOM     13  C   UNL     1       5.174   5.736  16.254  0.00  0.00    +0.000 C 
ATOM     14  C   UNL     1       5.692   4.579  15.807  0.00  0.00    +0.000 C 
BRANCH  14  15
ATOM     15  C   UNL     1       6.166   4.382  14.434  0.00  0.00    +0.000 A 
ATOM     16  C   UNL     1       5.482   3.557  13.530  0.00  0.00    +0.000 A 
ATOM     17  C   UNL     1       5.940   3.405  12.222  0.00  0.00    +0.000 A 
ATOM     18  C   UNL     1       7.079   4.083  11.798  0.00  0.00    +0.000 A 
ATOM     19  C   UNL     1       7.754   4.928  12.680  0.00  0.00    +0.000 A 
ATOM     20  C   UNL     1       7.295   5.082  13.990  0.00  0.00    +0.000 A 
ENDBRANCH  14  15
ENDBRANCH  10  13
ENDBRANCH   1   9
BRANCH   1  21
ATOM     21  C   UNL     1       1.885   4.900  19.608  0.00  0.00    +0.000 C 
BRANCH  21  22
ATOM     22  C   UNL     1       2.059   3.600  18.812  0.00  0.00    +0.000 C 
BRANCH  22  24
ATOM     23  C   UNL     1       3.720   2.581  20.276  0.00  0.00    +0.000 C 
ATOM     24  N   UNL     1       3.390   2.974  18.902  0.00  0.00    +0.000 NA
ATOM     25  C   UNL     1       3.422   1.784  18.041  0.00  0.00    +0.000 C 
ENDBRANCH  22  24
ENDBRANCH  21  22
ENDBRANCH   1  21
TORSDOF 7
ENDMDL
MODEL 5
REMARK VINA RESULT:      -7.8      4.796      6.657
REMARK  Name = 
REMARK  9 active torsions:
REMARK  status: ('A' for Active; 'I' for Inactive)
REMARK    1  A    between atoms: C_1  and  N_2
REMARK    2  A    between atoms: N_2  and  C_3
REMARK    3  A    between atoms: N_2  and  C_4
REMARK    4  A    between atoms: C_4  and  C_5
REMARK    5  A    between atoms: C_5  and  C_6
REMARK    6  A    between atoms: C_6  and  N_7
REMARK    7  A    between atoms: C_6  and  C_18
REMARK    8  A    between atoms: C_8  and  C_10
REMARK    9  A    between atoms: C_11  and  C_12
REMARK                            x       y       z     vdW  Elec       q    Type
REMARK                         _______ _______ _______ _____ _____    ______ ____
ROOT
ATOM      1  C   UNL     1       3.399   5.803  19.447  0.00  0.00    +0.000 C 
ENDROOT
BRANCH   1   2
ATOM      2  C   UNL     1       2.602   7.094  19.264  0.00  0.00    +0.000 A 
ATOM      3  C   UNL     1       2.590   7.747  18.021  0.00  0.00    +0.000 A 
ATOM      4  C   UNL     1       1.874   8.936  17.844  0.00  0.00    +0.000 A 
ATOM      5  C   UNL     1       1.156   9.481  18.908  0.00  0.00    +0.000 A 
ATOM      6 CL   UNL     1       0.284  10.949  18.696  0.00  0.00    +0.000 Cl
ATOM      7  C   UNL     1       1.137   8.841  20.141  0.00  0.00    +0.000 A 
ATOM      8  C   UNL     1       1.846   7.652  20.312  0.00  0.00    +0.000 A 
ENDBRANCH   1   2
BRANCH   1   9
ATOM      9  N   UNL     1       4.230   5.532  18.276  0.00  0.00    +0.000 N 
ATOM     10  C   UNL     1       5.556   5.188  18.357  0.00  0.00    +0.000 C 
ATOM     11  O   UNL     1       6.177   5.023  19.400  0.00  0.00    +0.000 OA
ATOM     12  H   UNL     1       3.801   5.674  17.374  0.00  0.00    +0.000 HD
BRANCH  10  13
ATOM     13  C   UNL     1       6.211   5.078  17.033  0.00  0.00    +0.000 C 
ATOM     14  C   UNL     1       5.461   4.767  15.962  0.00  0.00    +0.000 C 
BRANCH  14  15
ATOM     15  C   UNL     1       6.012   4.566  14.619  0.00  0.00    +0.000 A 
ATOM     16  C   UNL     1       7.215   5.163  14.219  0.00  0.00    +0.000 A 
ATOM     17  C   UNL     1       7.730   4.937  12.944  0.00  0.00    +0.000 A 
ATOM     18  C   UNL     1       7.056   4.103  12.056  0.00  0.00    +0.000 A 
ATOM     19  C   UNL     1       5.871   3.480  12.451  0.00  0.00    +0.000 A 
ATOM     20  C   UNL     1       5.355   3.705  13.729  0.00  0.00    +0.000 A 
ENDBRANCH  14  15
ENDBRANCH  10  13
ENDBRANCH   1   9
BRANCH   1  21
ATOM     21  C   UNL     1       2.529   4.597  19.870  0.00  0.00    +0.000 C 
BRANCH  21  22
ATOM     22  C   UNL     1       3.266   3.254  19.941  0.00  0.00    +0.000 C 
BRANCH  22  24
ATOM     23  C   UNL     1       1.545   2.613  18.338  0.00  0.00    +0.000 C 
ATOM     24  N   UNL     1       2.644   2.147  19.191  0.00  0.00    +0.000 NA
ATOM     25  C   UNL     1       3.663   1.502  18.352  0.00  0.00    +0.000 C 
ENDBRANCH  22  24
ENDBRANCH  21  22
ENDBRANCH   1  21
TORSDOF 7
ENDMDL
MODEL 6
REMARK VINA RESULT:      -7.8      0.343      1.232
REMARK  Name = 
REMARK  9 active torsions:
REMARK  status: ('A' for Active; 'I' for Inactive)
REMARK    1  A    between atoms: C_1  and  N_2
REMARK    2  A    between atoms: N_2  and  C_3
REMARK    3  A    between atoms: N_2  and  C_4
REMARK    4  A    between atoms: C_4  and  C_5
REMARK    5  A    between atoms: C_5  and  C_6
REMARK    6  A    between atoms: C_6  and  N_7
REMARK    7  A    between atoms: C_6  and  C_18
REMARK    8  A    between atoms: C_8  and  C_10
REMARK    9  A    between atoms: C_11  and  C_12
REMARK                            x       y       z     vdW  Elec       q    Type
REMARK                         _______ _______ _______ _____ _____    ______ ____
ROOT
ATOM      1  C   UNL     1       5.938   6.105  16.765  0.00  0.00    +0.000 C 
ENDROOT
BRANCH   1   2
ATOM      2  C   UNL     1       4.789   6.066  17.773  0.00  0.00    +0.000 A 
ATOM      3  C   UNL     1       3.718   6.967  17.658  0.00  0.00    +0.000 A 
ATOM      4  C   UNL     1       2.666   6.950  18.582  0.00  0.00    +0.000 A 
ATOM      5  C   UNL     1       2.673   6.026  19.626  0.00  0.00    +0.000 A 
ATOM      6 CL   UNL     1       1.387   6.012  20.769  0.00  0.00    +0.000 Cl
ATOM      7  C   UNL     1       3.712   5.112  19.747  0.00  0.00    +0.000 A 
ATOM      8  C   UNL     1       4.755   5.128  18.820  0.00  0.00    +0.000 A 
ENDBRANCH   1   2
BRANCH   1   9
ATOM      9  N   UNL     1       6.713   7.335  16.905  0.00  0.00    +0.000 N 
ATOM     10  C   UNL     1       7.697   7.502  17.847  0.00  0.00    +0.000 C 
ATOM     11  O   UNL     1       8.066   6.642  18.637  0.00  0.00    +0.000 OA
ATOM     12  H   UNL     1       6.451   8.106  16.309  0.00  0.00    +0.000 HD
BRANCH  10  13
ATOM     13  C   UNL     1       8.258   8.873  17.867  0.00  0.00    +0.000 C 
ATOM     14  C   UNL     1       8.920   9.287  18.961  0.00  0.00    +0.000 C 
BRANCH  14  15
ATOM     15  C   UNL     1       9.456  10.642  19.118  0.00  0.00    +0.000 A 
ATOM     16  C   UNL     1       9.762  11.446  18.011  0.00  0.00    +0.000 A 
ATOM     17  C   UNL     1      10.249  12.740  18.187  0.00  0.00    +0.000 A 
ATOM     18  C   UNL     1      10.426  13.251  19.470  0.00  0.00    +0.000 A 
ATOM     19  C   UNL     1      10.099  12.471  20.580  0.00  0.00    +0.000 A 
ATOM     20  C   UNL     1       9.610  11.175  20.404  0.00  0.00    +0.000 A 
ENDBRANCH  14  15
ENDBRANCH  10  13
ENDBRANCH   1   9
BRANCH   1  21
ATOM     21  C   UNL     1       5.490   5.828  15.311  0.00  0.00    +0.000 C 
BRANCH  21  22
ATOM     22  C   UNL     1       6.054   4.544  14.688  0.00  0.00    +0.000 C 
BRANCH  22  24
ATOM     23  C   UNL     1       7.855   5.068  13.132  0.00  0.00    +0.000 C 
ATOM     24  N   UNL     1       6.457   4.649  13.274  0.00  0.00    +0.000 NA
ATOM     25  C   UNL     1       6.278   3.344  12.625  0.00  0.00    +0.000 C 
ENDBRANCH  22  24
ENDBRANCH  21  22
ENDBRANCH   1  21
TORSDOF 7
ENDMDL
MODEL 7
REMARK VINA RESULT:      -7.8      5.041      6.947
REMARK  Name = 
REMARK  9 active torsions:
REMARK  status: ('A' for Active; 'I' for Inactive)
REMARK    1  A    between atoms: C_1  and  N_2
REMARK    2  A    between atoms: N_2  and  C_3
REMARK    3  A    between atoms: N_2  and  C_4
REMARK    4  A    between atoms: C_4  and  C_5
REMARK    5  A    between atoms: C_5  and  C_6
REMARK    6  A    between atoms: C_6  and  N_7
REMARK    7  A    between atoms: C_6  and  C_18
REMARK    8  A    between atoms: C_8  and  C_10
REMARK    9  A    between atoms: C_11  and  C_12
REMARK                            x       y       z     vdW  Elec       q    Type
REMARK                         _______ _______ _______ _____ _____    ______ ____
ROOT
ATOM      1  C   UNL     1       3.048   6.369  19.489  0.00  0.00    +0.000 C 
ENDROOT
BRANCH   1   2
ATOM      2  C   UNL     1       2.199   7.636  19.381  0.00  0.00    +0.000 A 
ATOM      3  C   UNL     1       1.515   8.126  20.505  0.00  0.00    +0.000 A 
ATOM      4  C   UNL     1       0.724   9.277  20.416  0.00  0.00    +0.000 A 
ATOM      5  C   UNL     1       0.616   9.954  19.202  0.00  0.00    +0.000 A 
ATOM      6 CL   UNL     1      -0.365  11.363  19.087  0.00  0.00    +0.000 Cl
ATOM      7  C   UNL     1       1.300   9.498  18.082  0.00  0.00    +0.000 A 
ATOM      8  C   UNL     1       2.093   8.354  18.176  0.00  0.00    +0.000 A 
ENDBRANCH   1   2
BRANCH   1   9
ATOM      9  N   UNL     1       3.444   5.891  18.167  0.00  0.00    +0.000 N 
ATOM     10  C   UNL     1       4.733   5.549  17.843  0.00  0.00    +0.000 C 
ATOM     11  O   UNL     1       5.678   5.559  18.623  0.00  0.00    +0.000 OA
ATOM     12  H   UNL     1       2.728   5.881  17.456  0.00  0.00    +0.000 HD
BRANCH  10  13
ATOM     13  C   UNL     1       4.904   5.206  16.413  0.00  0.00    +0.000 C 
ATOM     14  C   UNL     1       6.140   4.945  15.951  0.00  0.00    +0.000 C 
BRANCH  14  15
ATOM     15  C   UNL     1       6.435   4.663  14.544  0.00  0.00    +0.000 A 
ATOM     16  C   UNL     1       7.479   5.306  13.867  0.00  0.00    +0.000 A 
ATOM     17  C   UNL     1       7.755   5.001  12.535  0.00  0.00    +0.000 A 
ATOM     18  C   UNL     1       6.998   4.043  11.867  0.00  0.00    +0.000 A 
ATOM     19  C   UNL     1       5.973   3.375  12.537  0.00  0.00    +0.000 A 
ATOM     20  C   UNL     1       5.697   3.679  13.872  0.00  0.00    +0.000 A 
ENDBRANCH  14  15
ENDBRANCH  10  13
ENDBRANCH   1   9
BRANCH   1  21
ATOM     21  C   UNL     1       2.406   5.271  20.367  0.00  0.00    +0.000 C 
BRANCH  21  22
ATOM     22  C   UNL     1       1.507   4.279  19.618  0.00  0.00    +0.000 C 
BRANCH  22  24
ATOM     23  C   UNL     1       3.272   2.611  19.826  0.00  0.00    +0.000 C 
ATOM     24  N   UNL     1       2.204   3.149  18.977  0.00  0.00    +0.000 NA
ATOM     25  C   UNL     1       1.234   2.084  18.693  0.00  0.00    +0.000 C 
ENDBRANCH  22  24
ENDBRANCH  21  22
ENDBRANCH   1  21
TORSDOF 7
ENDMDL
MODEL 8
REMARK VINA RESULT:      -7.8      4.932      6.896
REMARK  Name = 
REMARK  9 active torsions:
REMARK  status: ('A' for Active; 'I' for Inactive)
REMARK    1  A    between atoms: C_1  and  N_2
REMARK    2  A    between atoms: N_2  and  C_3
REMARK    3  A    between atoms: N_2  and  C_4
REMARK    4  A    between atoms: C_4  and  C_5
REMARK    5  A    between atoms: C_5  and  C_6
REMARK    6  A    between atoms: C_6  and  N_7
REMARK    7  A    between atoms: C_6  and  C_18
REMARK    8  A    between atoms: C_8  and  C_10
REMARK    9  A    between atoms: C_11  and  C_12
REMARK                            x       y       z     vdW  Elec       q    Type
REMARK                         _______ _______ _______ _____ _____    ______ ____
ROOT
ATOM      1  C   UNL     1       2.847   6.330  19.286  0.00  0.00    +0.000 C 
ENDROOT
BRANCH   1   2
ATOM      2  C   UNL     1       2.123   7.675  19.334  0.00  0.00    +0.000 A 
ATOM      3  C   UNL     1       2.043   8.476  18.184  0.00  0.00    +0.000 A 
ATOM      4  C   UNL     1       1.393   9.716  18.218  0.00  0.00    +0.000 A 
ATOM      5  C   UNL     1       0.810  10.162  19.403  0.00  0.00    +0.000 A 
ATOM      6 CL   UNL     1       0.021  11.691  19.451  0.00  0.00    +0.000 Cl
ATOM      7  C   UNL     1       0.860   9.377  20.548  0.00  0.00    +0.000 A 
ATOM      8  C   UNL     1       1.502   8.139  20.508  0.00  0.00    +0.000 A 
ENDBRANCH   1   2
BRANCH   1   9
ATOM      9  N   UNL     1       3.400   6.083  17.957  0.00  0.00    +0.000 N 
ATOM     10  C   UNL     1       4.730   5.832  17.728  0.00  0.00    +0.000 C 
ATOM     11  O   UNL     1       5.587   5.741  18.599  0.00  0.00    +0.000 OA
ATOM     12  H   UNL     1       2.764   6.168  17.178  0.00  0.00    +0.000 HD
BRANCH  10  13
ATOM     13  C   UNL     1       5.065   5.729  16.289  0.00  0.00    +0.000 C 
ATOM     14  C   UNL     1       5.774   4.669  15.862  0.00  0.00    +0.000 C 
BRANCH  14  15
ATOM     15  C   UNL     1       6.219   4.498  14.477  0.00  0.00    +0.000 A 
ATOM     16  C   UNL     1       7.340   5.172  13.975  0.00  0.00    +0.000 A 
ATOM     17  C   UNL     1       7.758   4.974  12.660  0.00  0.00    +0.000 A 
ATOM     18  C   UNL     1       7.067   4.092  11.834  0.00  0.00    +0.000 A 
ATOM     19  C   UNL     1       5.965   3.393  12.329  0.00  0.00    +0.000 A 
ATOM     20  C   UNL     1       5.548   3.590  13.647  0.00  0.00    +0.000 A 
ENDBRANCH  14  15
ENDBRANCH  10  13
ENDBRANCH   1   9
BRANCH   1  21
ATOM     21  C   UNL     1       1.999   5.155  19.822  0.00  0.00    +0.000 C 
BRANCH  21  22
ATOM     22  C   UNL     1       2.800   3.970  20.376  0.00  0.00    +0.000 C 
BRANCH  22  24
ATOM     23  C   UNL     1       4.423   2.214  19.901  0.00  0.00    +0.000 C 
ATOM     24  N   UNL     1       3.330   3.034  19.368  0.00  0.00    +0.000 NA
ATOM     25  C   UNL     1       2.246   2.153  18.913  0.00  0.00    +0.000 C 
ENDBRANCH  22  24
ENDBRANCH  21  22
ENDBRANCH   1  21
TORSDOF 7
ENDMDL
MODEL 9
REMARK VINA RESULT:      -7.7      0.623      1.177
REMARK  Name = 
REMARK  9 active torsions:
REMARK  status: ('A' for Active; 'I' for Inactive)
REMARK    1  A    between atoms: C_1  and  N_2
REMARK    2  A    between atoms: N_2  and  C_3
REMARK    3  A    between atoms: N_2  and  C_4
REMARK    4  A    between atoms: C_4  and  C_5
REMARK    5  A    between atoms: C_5  and  C_6
REMARK    6  A    between atoms: C_6  and  N_7
REMARK    7  A    between atoms: C_6  and  C_18
REMARK    8  A    between atoms: C_8  and  C_10
REMARK    9  A    between atoms: C_11  and  C_12
REMARK                            x       y       z     vdW  Elec       q    Type
REMARK                         _______ _______ _______ _____ _____    ______ ____
ROOT
ATOM      1  C   UNL     1       6.253   5.940  16.867  0.00  0.00    +0.000 C 
ENDROOT
BRANCH   1   2
ATOM      2  C   UNL     1       5.041   5.884  17.797  0.00  0.00    +0.000 A 
ATOM      3  C   UNL     1       5.033   5.008  18.895  0.00  0.00    +0.000 A 
ATOM      4  C   UNL     1       3.924   4.938  19.747  0.00  0.00    +0.000 A 
ATOM      5  C   UNL     1       2.815   5.749  19.512  0.00  0.00    +0.000 A 
ATOM      6 CL   UNL     1       1.446   5.656  20.551  0.00  0.00    +0.000 Cl
ATOM      7  C   UNL     1       2.809   6.637  18.443  0.00  0.00    +0.000 A 
ATOM      8  C   UNL     1       3.919   6.709  17.600  0.00  0.00    +0.000 A 
ENDBRANCH   1   2
BRANCH   1   9
ATOM      9  N   UNL     1       6.883   7.257  16.910  0.00  0.00    +0.000 N 
ATOM     10  C   UNL     1       7.790   7.627  17.871  0.00  0.00    +0.000 C 
ATOM     11  O   UNL     1       8.207   6.897  18.762  0.00  0.00    +0.000 OA
ATOM     12  H   UNL     1       6.572   7.931  16.226  0.00  0.00    +0.000 HD
BRANCH  10  13
ATOM     13  C   UNL     1       8.199   9.047  17.771  0.00  0.00    +0.000 C 
ATOM     14  C   UNL     1       8.956   9.575  18.748  0.00  0.00    +0.000 C 
BRANCH  14  15
ATOM     15  C   UNL     1       9.361  10.983  18.787  0.00  0.00    +0.000 A 
ATOM     16  C   UNL     1      10.350  11.441  19.669  0.00  0.00    +0.000 A 
ATOM     17  C   UNL     1      10.735  12.781  19.669  0.00  0.00    +0.000 A 
ATOM     18  C   UNL     1      10.144  13.677  18.783  0.00  0.00    +0.000 A 
ATOM     19  C   UNL     1       9.177  13.229  17.881  0.00  0.00    +0.000 A 
ATOM     20  C   UNL     1       8.793  11.886  17.879  0.00  0.00    +0.000 A 
ENDBRANCH  14  15
ENDBRANCH  10  13
ENDBRANCH   1   9
BRANCH   1  21
ATOM     21  C   UNL     1       5.949   5.456  15.431  0.00  0.00    +0.000 C 
BRANCH  21  22
ATOM     22  C   UNL     1       6.994   4.510  14.826  0.00  0.00    +0.000 C 
BRANCH  22  24
ATOM     23  C   UNL     1       5.152   3.884  13.358  0.00  0.00    +0.000 C 
ATOM     24  N   UNL     1       6.603   3.856  13.563  0.00  0.00    +0.000 NA
ATOM     25  C   UNL     1       7.261   4.541  12.443  0.00  0.00    +0.000 C 
ENDBRANCH  22  24
ENDBRANCH  21  22
ENDBRANCH   1  21
TORSDOF 7
ENDMDL
