MODEL 1
REMARK VINA RESULT:      -6.8      0.000      0.000
REMARK  Name = 
REMARK  13 active torsions:
REMARK  status: ('A' for Active; 'I' for Inactive)
REMARK    1  A    between atoms: C_1  and  O_2
REMARK    2  A    between atoms: O_2  and  C_3
REMARK    3  A    between atoms: C_3  and  C_4
REMARK    4  A    between atoms: C_4  and  N_5
REMARK    5  A    between atoms: N_5  and  C_6
REMARK    6  A    between atoms: N_5  and  C_7
REMARK    7  A    between atoms: C_7  and  C_8
REMARK    8  A    between atoms: C_9  and  C_10
REMARK    9  A    between atoms: C_24  and  C_25
REMARK   10  A    between atoms: C_26  and  C_27
REMARK   11  A    between atoms: C_27  and  C_28
REMARK   12  A    between atoms: C_27  and  C_29
REMARK   13  A    between atoms: C_27  and  O_30
REMARK                            x       y       z     vdW  Elec       q    Type
REMARK                         _______ _______ _______ _____ _____    ______ ____
ROOT
ATOM      1  C   UNL     1       0.352  12.083  20.594  0.00  0.00    +0.000 A 
ATOM      2  C   UNL     1       0.350  12.058  19.205  0.00  0.00    +0.000 A 
ATOM      3  N   UNL     1       0.679  10.777  18.755  0.00  0.00    +0.000 NA
ATOM      4  C   UNL     1       0.833  10.011  19.831  0.00  0.00    +0.000 A 
ATOM      5  N   UNL     1       0.542  10.763  20.966  0.00  0.00    +0.000 N 
ATOM      6  C   UNL     1       0.489  10.325  22.352  0.00  0.00    +0.000 C 
ATOM      7  C   UNL     1      -0.550   9.220  22.601  0.00  0.00    +0.000 C 
ATOM      8  C   UNL     1       0.527   8.181  22.272  0.00  0.00    +0.000 C 
ATOM      9  C   UNL     1       1.551   9.273  22.751  0.00  0.00    +0.000 C 
ATOM     10  C   UNL     1       0.979   7.697  20.845  0.00  0.00    +0.000 A 
ATOM     11  C   UNL     1       1.440   6.366  20.730  0.00  0.00    +0.000 A 
ATOM     12  C   UNL     1       2.319   5.978  19.735  0.00  0.00    +0.000 A 
ATOM     13  F   UNL     1       2.833   4.745  19.783  0.00  0.00    +0.000 F 
ATOM     14  C   UNL     1       2.742   6.903  18.778  0.00  0.00    +0.000 A 
ATOM     15  C   UNL     1       2.194   8.189  18.789  0.00  0.00    +0.000 A 
ATOM     16  C   UNL     1       1.293   8.601  19.798  0.00  0.00    +0.000 A 
ENDROOT
BRANCH   2  17
ATOM     17  C   UNL     1       0.066  13.180  18.298  0.00  0.00    +0.000 C 
ATOM     18  N   UNL     1      -0.993  12.969  17.462  0.00  0.00    +0.000 N 
ATOM     19  O   UNL     1       0.678  14.241  18.252  0.00  0.00    +0.000 OA
ATOM     20  H   UNL     1      -1.575  12.153  17.599  0.00  0.00    +0.000 HD
ATOM     21  H   UNL     1      -1.312  13.748  16.906  0.00  0.00    +0.000 HD
ENDBRANCH   2  17
BRANCH  14  22
ATOM     22  C   UNL     1       3.764   6.534  17.840  0.00  0.00    +0.000 C 
ATOM     23  C   UNL     1       4.618   6.219  17.077  0.00  0.00    +0.000 C 
BRANCH  23  24
ATOM     24  C   UNL     1       5.638   5.781  16.102  0.00  0.00    +0.000 C 
ATOM     25  C   UNL     1       7.036   5.963  16.690  0.00  0.00    +0.000 C 
ATOM     26  C   UNL     1       5.403   4.323  15.720  0.00  0.00    +0.000 C 
BRANCH  24  27
ATOM     27  O   UNL     1       5.536   6.563  14.915  0.00  0.00    +0.000 OA
ATOM     28  H   UNL     1       4.759   7.136  15.012  0.00  0.00    +0.000 HD
ENDBRANCH  24  27
ENDBRANCH  23  24
ENDBRANCH  14  22
BRANCH   1  29
ATOM     29  C   UNL     1       0.167  13.222  21.563  0.00  0.00    +0.000 C 
BRANCH  29  30
ATOM     30  N   UNL     1      -1.239  13.493  21.854  0.00  0.00    +0.000 NA
ATOM     31  C   UNL     1      -1.675  14.796  21.338  0.00  0.00    +0.000 C 
BRANCH  30  32
ATOM     32  C   UNL     1      -1.520  13.373  23.292  0.00  0.00    +0.000 C 
BRANCH  32  33
ATOM     33  C   UNL     1      -1.783  14.736  23.927  0.00  0.00    +0.000 C 
BRANCH  33  35
ATOM     34  C   UNL     1      -1.283  15.590  26.021  0.00  0.00    +0.000 C 
ATOM     35  O   UNL     1      -0.720  15.125  24.796  0.00  0.00    +0.000 OA
ENDBRANCH  33  35
ENDBRANCH  32  33
ENDBRANCH  30  32
ENDBRANCH  29  30
ENDBRANCH   1  29
TORSDOF 9
ENDMDL
MODEL 2
REMARK VINA RESULT:      -6.8      1.166      1.310
REMARK  Name = 
REMARK  13 active torsions:
REMARK  status: ('A' for Active; 'I' for Inactive)
REMARK    1  A    between atoms: C_1  and  O_2
REMARK    2  A    between atoms: O_2  and  C_3
REMARK    3  A    between atoms: C_3  and  C_4
REMARK    4  A    between atoms: C_4  and  N_5
REMARK    5  A    between atoms: N_5  and  C_6
REMARK    6  A    between atoms: N_5  and  C_7
REMARK    7  A    between atoms: C_7  and  C_8
REMARK    8  A    between atoms: C_9  and  C_10
REMARK    9  A    between atoms: C_24  and  C_25
REMARK   10  A    between atoms: C_26  and  C_27
REMARK   11  A    between atoms: C_27  and  C_28
REMARK   12  A    between atoms: C_27  and  C_29
REMARK   13  A    between atoms: C_27  and  O_30
REMARK                            x       y       z     vdW  Elec       q    Type
REMARK                         _______ _______ _______ _____ _____    ______ ____
ROOT
ATOM      1  C   UNL     1       0.213  12.060  20.542  0.00  0.00    +0.000 A 
ATOM      2  C   UNL     1       0.194  12.007  19.155  0.00  0.00    +0.000 A 
ATOM      3  N   UNL     1       0.550  10.725  18.727  0.00  0.00    +0.000 NA
ATOM      4  C   UNL     1       0.737   9.986  19.815  0.00  0.00    +0.000 A 
ATOM      5  N   UNL     1       0.441  10.753  20.939  0.00  0.00    +0.000 N 
ATOM      6  C   UNL     1       0.415  10.341  22.333  0.00  0.00    +0.000 C 
ATOM      7  C   UNL     1      -0.593   9.216  22.618  0.00  0.00    +0.000 C 
ATOM      8  C   UNL     1       0.507   8.199  22.296  0.00  0.00    +0.000 C 
ATOM      9  C   UNL     1       1.508   9.326  22.740  0.00  0.00    +0.000 C 
ATOM     10  C   UNL     1       0.953   7.697  20.873  0.00  0.00    +0.000 A 
ATOM     11  C   UNL     1       1.447   6.376  20.780  0.00  0.00    +0.000 A 
ATOM     12  C   UNL     1       2.323   5.989  19.781  0.00  0.00    +0.000 A 
ATOM     13  F   UNL     1       2.868   4.772  19.848  0.00  0.00    +0.000 F 
ATOM     14  C   UNL     1       2.711   6.905  18.801  0.00  0.00    +0.000 A 
ATOM     15  C   UNL     1       2.131   8.178  18.793  0.00  0.00    +0.000 A 
ATOM     16  C   UNL     1       1.232   8.587  19.805  0.00  0.00    +0.000 A 
ENDROOT
BRANCH   2  17
ATOM     17  C   UNL     1      -0.129  13.102  18.229  0.00  0.00    +0.000 C 
ATOM     18  N   UNL     1      -1.107  12.801  17.325  0.00  0.00    +0.000 N 
ATOM     19  O   UNL     1       0.386  14.214  18.222  0.00  0.00    +0.000 OA
ATOM     20  H   UNL     1      -1.621  11.935  17.424  0.00  0.00    +0.000 HD
ATOM     21  H   UNL     1      -1.457  13.550  16.748  0.00  0.00    +0.000 HD
ENDBRANCH   2  17
BRANCH  14  22
ATOM     22  C   UNL     1       3.730   6.544  17.858  0.00  0.00    +0.000 C 
ATOM     23  C   UNL     1       4.570   6.227  17.080  0.00  0.00    +0.000 C 
BRANCH  23  24
ATOM     24  C   UNL     1       5.572   5.846  16.062  0.00  0.00    +0.000 C 
ATOM     25  C   UNL     1       6.981   6.007  16.628  0.00  0.00    +0.000 C 
ATOM     26  C   UNL     1       5.336   4.408  15.610  0.00  0.00    +0.000 C 
BRANCH  24  27
ATOM     27  O   UNL     1       5.439   6.688  14.918  0.00  0.00    +0.000 OA
ATOM     28  H   UNL     1       5.197   6.120  14.169  0.00  0.00    +0.000 HD
ENDBRANCH  24  27
ENDBRANCH  23  24
ENDBRANCH  14  22
BRANCH   1  29
ATOM     29  C   UNL     1       0.011  13.213  21.491  0.00  0.00    +0.000 C 
BRANCH  29  30
ATOM     30  N   UNL     1      -1.383  13.650  21.560  0.00  0.00    +0.000 NA
ATOM     31  C   UNL     1      -1.540  14.893  22.325  0.00  0.00    +0.000 C 
BRANCH  30  32
ATOM     32  C   UNL     1      -2.251  12.589  22.091  0.00  0.00    +0.000 C 
BRANCH  32  33
ATOM     33  C   UNL     1      -3.099  13.091  23.256  0.00  0.00    +0.000 C 
BRANCH  33  35
ATOM     34  C   UNL     1      -4.661  12.357  24.800  0.00  0.00    +0.000 C 
ATOM     35  O   UNL     1      -4.274  12.300  23.430  0.00  0.00    +0.000 OA
ENDBRANCH  33  35
ENDBRANCH  32  33
ENDBRANCH  30  32
ENDBRANCH  29  30
ENDBRANCH   1  29
TORSDOF 9
ENDMDL
MODEL 3
REMARK VINA RESULT:      -6.6      1.701      2.431
REMARK  Name = 
REMARK  13 active torsions:
REMARK  status: ('A' for Active; 'I' for Inactive)
REMARK    1  A    between atoms: C_1  and  O_2
REMARK    2  A    between atoms: O_2  and  C_3
REMARK    3  A    between atoms: C_3  and  C_4
REMARK    4  A    between atoms: C_4  and  N_5
REMARK    5  A    between atoms: N_5  and  C_6
REMARK    6  A    between atoms: N_5  and  C_7
REMARK    7  A    between atoms: C_7  and  C_8
REMARK    8  A    between atoms: C_9  and  C_10
REMARK    9  A    between atoms: C_24  and  C_25
REMARK   10  A    between atoms: C_26  and  C_27
REMARK   11  A    between atoms: C_27  and  C_28
REMARK   12  A    between atoms: C_27  and  C_29
REMARK   13  A    between atoms: C_27  and  O_30
REMARK                            x       y       z     vdW  Elec       q    Type
REMARK                         _______ _______ _______ _____ _____    ______ ____
ROOT
ATOM      1  C   UNL     1       0.051  12.064  20.483  0.00  0.00    +0.000 A 
ATOM      2  C   UNL     1      -0.004  11.975  19.098  0.00  0.00    +0.000 A 
ATOM      3  N   UNL     1       0.387  10.697  18.692  0.00  0.00    +0.000 NA
ATOM      4  C   UNL     1       0.632   9.993  19.792  0.00  0.00    +0.000 A 
ATOM      5  N   UNL     1       0.339  10.777  20.905  0.00  0.00    +0.000 N 
ATOM      6  C   UNL     1       0.368  10.401  22.309  0.00  0.00    +0.000 C 
ATOM      7  C   UNL     1      -0.588   9.247  22.650  0.00  0.00    +0.000 C 
ATOM      8  C   UNL     1       0.539   8.263  22.322  0.00  0.00    +0.000 C 
ATOM      9  C   UNL     1       1.509   9.437  22.708  0.00  0.00    +0.000 C 
ATOM     10  C   UNL     1       0.964   7.742  20.899  0.00  0.00    +0.000 A 
ATOM     11  C   UNL     1       1.503   6.438  20.824  0.00  0.00    +0.000 A 
ATOM     12  C   UNL     1       2.365   6.058  19.810  0.00  0.00    +0.000 A 
ATOM     13  F   UNL     1       2.957   4.863  19.890  0.00  0.00    +0.000 F 
ATOM     14  C   UNL     1       2.690   6.962  18.797  0.00  0.00    +0.000 A 
ATOM     15  C   UNL     1       2.063   8.212  18.775  0.00  0.00    +0.000 A 
ATOM     16  C   UNL     1       1.179   8.613  19.801  0.00  0.00    +0.000 A 
ENDROOT
BRANCH   2  17
ATOM     17  C   UNL     1      -0.395  13.034  18.156  0.00  0.00    +0.000 C 
ATOM     18  N   UNL     1      -1.239  12.619  17.166  0.00  0.00    +0.000 N 
ATOM     19  O   UNL     1      -0.039  14.206  18.203  0.00  0.00    +0.000 OA
ATOM     20  H   UNL     1      -1.634  11.690  17.213  0.00  0.00    +0.000 HD
ATOM     21  H   UNL     1      -1.637  13.325  16.566  0.00  0.00    +0.000 HD
ENDBRANCH   2  17
BRANCH  14  22
ATOM     22  C   UNL     1       3.696   6.614  17.833  0.00  0.00    +0.000 C 
ATOM     23  C   UNL     1       4.539   6.322  17.050  0.00  0.00    +0.000 C 
BRANCH  23  24
ATOM     24  C   UNL     1       5.557   5.899  16.066  0.00  0.00    +0.000 C 
ATOM     25  C   UNL     1       6.958   6.106  16.638  0.00  0.00    +0.000 C 
ATOM     26  C   UNL     1       5.342   4.436  15.689  0.00  0.00    +0.000 C 
BRANCH  24  27
ATOM     27  O   UNL     1       5.429   6.676  14.877  0.00  0.00    +0.000 OA
ATOM     28  H   UNL     1       6.321   6.792  14.511  0.00  0.00    +0.000 HD
ENDBRANCH  24  27
ENDBRANCH  23  24
ENDBRANCH  14  22
BRANCH   1  29
ATOM     29  C   UNL     1      -0.167  13.233  21.408  0.00  0.00    +0.000 C 
BRANCH  29  30
ATOM     30  N   UNL     1       1.085  13.855  21.838  0.00  0.00    +0.000 NA
ATOM     31  C   UNL     1       0.915  15.271  22.183  0.00  0.00    +0.000 C 
BRANCH  30  32
ATOM     32  C   UNL     1       2.143  13.678  20.834  0.00  0.00    +0.000 C 
BRANCH  32  33
ATOM     33  C   UNL     1       2.747  15.016  20.416  0.00  0.00    +0.000 C 
BRANCH  33  35
ATOM     34  C   UNL     1       2.811  16.320  18.503  0.00  0.00    +0.000 C 
ATOM     35  O   UNL     1       3.094  15.027  19.031  0.00  0.00    +0.000 OA
ENDBRANCH  33  35
ENDBRANCH  32  33
ENDBRANCH  30  32
ENDBRANCH  29  30
ENDBRANCH   1  29
TORSDOF 9
ENDMDL
MODEL 4
REMARK VINA RESULT:      -6.4      1.664      2.144
REMARK  Name = 
REMARK  13 active torsions:
REMARK  status: ('A' for Active; 'I' for Inactive)
REMARK    1  A    between atoms: C_1  and  O_2
REMARK    2  A    between atoms: O_2  and  C_3
REMARK    3  A    between atoms: C_3  and  C_4
REMARK    4  A    between atoms: C_4  and  N_5
REMARK    5  A    between atoms: N_5  and  C_6
REMARK    6  A    between atoms: N_5  and  C_7
REMARK    7  A    between atoms: C_7  and  C_8
REMARK    8  A    between atoms: C_9  and  C_10
REMARK    9  A    between atoms: C_24  and  C_25
REMARK   10  A    between atoms: C_26  and  C_27
REMARK   11  A    between atoms: C_27  and  C_28
REMARK   12  A    between atoms: C_27  and  C_29
REMARK   13  A    between atoms: C_27  and  O_30
REMARK                            x       y       z     vdW  Elec       q    Type
REMARK                         _______ _______ _______ _____ _____    ______ ____
ROOT
ATOM      1  C   UNL     1       0.346  12.095  20.539  0.00  0.00    +0.000 A 
ATOM      2  C   UNL     1       0.361  12.052  19.151  0.00  0.00    +0.000 A 
ATOM      3  N   UNL     1       0.700  10.765  18.723  0.00  0.00    +0.000 NA
ATOM      4  C   UNL     1       0.842  10.015  19.810  0.00  0.00    +0.000 A 
ATOM      5  N   UNL     1       0.535  10.780  20.932  0.00  0.00    +0.000 N 
ATOM      6  C   UNL     1       0.465  10.360  22.322  0.00  0.00    +0.000 C 
ATOM      7  C   UNL     1      -0.574   9.256  22.573  0.00  0.00    +0.000 C 
ATOM      8  C   UNL     1       0.510   8.216  22.272  0.00  0.00    +0.000 C 
ATOM      9  C   UNL     1       1.525   9.318  22.748  0.00  0.00    +0.000 C 
ATOM     10  C   UNL     1       0.981   7.714  20.857  0.00  0.00    +0.000 A 
ATOM     11  C   UNL     1       1.448   6.384  20.766  0.00  0.00    +0.000 A 
ATOM     12  C   UNL     1       2.340   5.984  19.787  0.00  0.00    +0.000 A 
ATOM     13  F   UNL     1       2.856   4.754  19.858  0.00  0.00    +0.000 F 
ATOM     14  C   UNL     1       2.772   6.898  18.824  0.00  0.00    +0.000 A 
ATOM     15  C   UNL     1       2.221   8.183  18.810  0.00  0.00    +0.000 A 
ATOM     16  C   UNL     1       1.306   8.605  19.802  0.00  0.00    +0.000 A 
ENDROOT
BRANCH   2  17
ATOM     17  C   UNL     1       0.085  13.160  18.225  0.00  0.00    +0.000 C 
ATOM     18  N   UNL     1      -1.061  13.011  17.500  0.00  0.00    +0.000 N 
ATOM     19  O   UNL     1       0.776  14.162  18.078  0.00  0.00    +0.000 OA
ATOM     20  H   UNL     1      -1.692  12.254  17.724  0.00  0.00    +0.000 HD
ATOM     21  H   UNL     1      -1.366  13.794  16.941  0.00  0.00    +0.000 HD
ENDBRANCH   2  17
BRANCH  14  22
ATOM     22  C   UNL     1       3.808   6.520  17.903  0.00  0.00    +0.000 C 
ATOM     23  C   UNL     1       4.664   6.224  17.135  0.00  0.00    +0.000 C 
BRANCH  23  24
ATOM     24  C   UNL     1       5.774   5.865  16.228  0.00  0.00    +0.000 C 
ATOM     25  C   UNL     1       7.105   6.317  16.825  0.00  0.00    +0.000 C 
ATOM     26  C   UNL     1       5.780   4.359  15.983  0.00  0.00    +0.000 C 
BRANCH  24  27
ATOM     27  O   UNL     1       5.594   6.509  14.969  0.00  0.00    +0.000 OA
ATOM     28  H   UNL     1       5.281   5.837  14.343  0.00  0.00    +0.000 HD
ENDBRANCH  24  27
ENDBRANCH  23  24
ENDBRANCH  14  22
BRANCH   1  29
ATOM     29  C   UNL     1       0.146  13.246  21.490  0.00  0.00    +0.000 C 
BRANCH  29  30
ATOM     30  N   UNL     1       1.357  14.043  21.675  0.00  0.00    +0.000 NA
ATOM     31  C   UNL     1       1.180  15.435  21.243  0.00  0.00    +0.000 C 
BRANCH  30  32
ATOM     32  C   UNL     1       2.511  13.426  21.007  0.00  0.00    +0.000 C 
BRANCH  32  33
ATOM     33  C   UNL     1       3.812  14.144  21.357  0.00  0.00    +0.000 C 
BRANCH  33  35
ATOM     34  C   UNL     1       4.625  15.382  23.138  0.00  0.00    +0.000 C 
ATOM     35  O   UNL     1       4.059  14.128  22.763  0.00  0.00    +0.000 OA
ENDBRANCH  33  35
ENDBRANCH  32  33
ENDBRANCH  30  32
ENDBRANCH  29  30
ENDBRANCH   1  29
TORSDOF 9
ENDMDL
MODEL 5
REMARK VINA RESULT:      -6.4      1.169      1.427
REMARK  Name = 
REMARK  13 active torsions:
REMARK  status: ('A' for Active; 'I' for Inactive)
REMARK    1  A    between atoms: C_1  and  O_2
REMARK    2  A    between atoms: O_2  and  C_3
REMARK    3  A    between atoms: C_3  and  C_4
REMARK    4  A    between atoms: C_4  and  N_5
REMARK    5  A    between atoms: N_5  and  C_6
REMARK    6  A    between atoms: N_5  and  C_7
REMARK    7  A    between atoms: C_7  and  C_8
REMARK    8  A    between atoms: C_9  and  C_10
REMARK    9  A    between atoms: C_24  and  C_25
REMARK   10  A    between atoms: C_26  and  C_27
REMARK   11  A    between atoms: C_27  and  C_28
REMARK   12  A    between atoms: C_27  and  C_29
REMARK   13  A    between atoms: C_27  and  O_30
REMARK                            x       y       z     vdW  Elec       q    Type
REMARK                         _______ _______ _______ _____ _____    ______ ____
ROOT
ATOM      1  C   UNL     1       0.572  12.028  20.566  0.00  0.00    +0.000 A 
ATOM      2  C   UNL     1       0.694  11.988  19.183  0.00  0.00    +0.000 A 
ATOM      3  N   UNL     1       0.985  10.685  18.772  0.00  0.00    +0.000 NA
ATOM      4  C   UNL     1       0.994   9.924  19.861  0.00  0.00    +0.000 A 
ATOM      5  N   UNL     1       0.647  10.704  20.961  0.00  0.00    +0.000 N 
ATOM      6  C   UNL     1       0.441  10.284  22.339  0.00  0.00    +0.000 C 
ATOM      7  C   UNL     1      -0.680   9.246  22.498  0.00  0.00    +0.000 C 
ATOM      8  C   UNL     1       0.358   8.142  22.275  0.00  0.00    +0.000 C 
ATOM      9  C   UNL     1       1.398   9.176  22.839  0.00  0.00    +0.000 C 
ATOM     10  C   UNL     1       0.908   7.616  20.897  0.00  0.00    +0.000 A 
ATOM     11  C   UNL     1       1.297   6.259  20.833  0.00  0.00    +0.000 A 
ATOM     12  C   UNL     1       2.237   5.808  19.925  0.00  0.00    +0.000 A 
ATOM     13  F   UNL     1       2.670   4.548  20.026  0.00  0.00    +0.000 F 
ATOM     14  C   UNL     1       2.800   6.695  19.006  0.00  0.00    +0.000 A 
ATOM     15  C   UNL     1       2.333   8.013  18.959  0.00  0.00    +0.000 A 
ATOM     16  C   UNL     1       1.370   8.488  19.879  0.00  0.00    +0.000 A 
ENDROOT
BRANCH   2  17
ATOM     17  C   UNL     1       0.562  13.115  18.247  0.00  0.00    +0.000 C 
ATOM     18  N   UNL     1      -0.643  13.172  17.606  0.00  0.00    +0.000 N 
ATOM     19  O   UNL     1       1.413  13.968  18.024  0.00  0.00    +0.000 OA
ATOM     20  H   UNL     1      -1.385  12.549  17.895  0.00  0.00    +0.000 HD
ATOM     21  H   UNL     1      -0.837  13.989  17.048  0.00  0.00    +0.000 HD
ENDBRANCH   2  17
BRANCH  14  22
ATOM     22  C   UNL     1       3.880   6.257  18.167  0.00  0.00    +0.000 C 
ATOM     23  C   UNL     1       4.766   5.905  17.459  0.00  0.00    +0.000 C 
BRANCH  23  24
ATOM     24  C   UNL     1       5.910   5.510  16.611  0.00  0.00    +0.000 C 
ATOM     25  C   UNL     1       5.533   5.630  15.135  0.00  0.00    +0.000 C 
ATOM     26  C   UNL     1       7.121   6.383  16.928  0.00  0.00    +0.000 C 
BRANCH  24  27
ATOM     27  O   UNL     1       6.267   4.157  16.883  0.00  0.00    +0.000 OA
ATOM     28  H   UNL     1       6.401   3.716  16.028  0.00  0.00    +0.000 HD
ENDBRANCH  24  27
ENDBRANCH  23  24
ENDBRANCH  14  22
BRANCH   1  29
ATOM     29  C   UNL     1       0.368  13.187  21.507  0.00  0.00    +0.000 C 
BRANCH  29  30
ATOM     30  N   UNL     1      -1.039  13.409  21.834  0.00  0.00    +0.000 NA
ATOM     31  C   UNL     1      -1.643  14.464  21.012  0.00  0.00    +0.000 C 
BRANCH  30  32
ATOM     32  C   UNL     1      -1.219  13.686  23.266  0.00  0.00    +0.000 C 
BRANCH  32  33
ATOM     33  C   UNL     1      -2.694  13.845  23.626  0.00  0.00    +0.000 C 
BRANCH  33  35
ATOM     34  C   UNL     1      -4.279  12.432  24.551  0.00  0.00    +0.000 C 
ATOM     35  O   UNL     1      -3.416  12.628  23.434  0.00  0.00    +0.000 OA
ENDBRANCH  33  35
ENDBRANCH  32  33
ENDBRANCH  30  32
ENDBRANCH  29  30
ENDBRANCH   1  29
TORSDOF 9
ENDMDL
MODEL 6
REMARK VINA RESULT:      -6.3      3.556      9.548
REMARK  Name = 
REMARK  13 active torsions:
REMARK  status: ('A' for Active; 'I' for Inactive)
REMARK    1  A    between atoms: C_1  and  O_2
REMARK    2  A    between atoms: O_2  and  C_3
REMARK    3  A    between atoms: C_3  and  C_4
REMARK    4  A    between atoms: C_4  and  N_5
REMARK    5  A    between atoms: N_5  and  C_6
REMARK    6  A    between atoms: N_5  and  C_7
REMARK    7  A    between atoms: C_7  and  C_8
REMARK    8  A    between atoms: C_9  and  C_10
REMARK    9  A    between atoms: C_24  and  C_25
REMARK   10  A    between atoms: C_26  and  C_27
REMARK   11  A    between atoms: C_27  and  C_28
REMARK   12  A    between atoms: C_27  and  C_29
REMARK   13  A    between atoms: C_27  and  O_30
REMARK                            x       y       z     vdW  Elec       q    Type
REMARK                         _______ _______ _______ _____ _____    ______ ____
ROOT
ATOM      1  C   UNL     1       3.924   5.344  17.384  0.00  0.00    +0.000 A 
ATOM      2  C   UNL     1       4.383   6.623  17.099  0.00  0.00    +0.000 A 
ATOM      3  N   UNL     1       3.746   7.548  17.931  0.00  0.00    +0.000 NA
ATOM      4  C   UNL     1       2.951   6.862  18.745  0.00  0.00    +0.000 A 
ATOM      5  N   UNL     1       3.115   5.502  18.496  0.00  0.00    +0.000 N 
ATOM      6  C   UNL     1       2.521   4.376  19.200  0.00  0.00    +0.000 C 
ATOM      7  C   UNL     1       2.889   4.328  20.691  0.00  0.00    +0.000 C 
ATOM      8  C   UNL     1       1.668   5.206  20.984  0.00  0.00    +0.000 C 
ATOM      9  C   UNL     1       1.064   4.589  19.672  0.00  0.00    +0.000 C 
ATOM     10  C   UNL     1       1.571   6.772  20.865  0.00  0.00    +0.000 A 
ATOM     11  C   UNL     1       0.689   7.434  21.749  0.00  0.00    +0.000 A 
ATOM     12  C   UNL     1       0.119   8.655  21.438  0.00  0.00    +0.000 A 
ATOM     13  F   UNL     1      -0.823   9.144  22.249  0.00  0.00    +0.000 F 
ATOM     14  C   UNL     1       0.445   9.292  20.239  0.00  0.00    +0.000 A 
ATOM     15  C   UNL     1       1.417   8.723  19.410  0.00  0.00    +0.000 A 
ATOM     16  C   UNL     1       2.011   7.477  19.715  0.00  0.00    +0.000 A 
ENDROOT
BRANCH   2  17
ATOM     17  C   UNL     1       5.374   7.005  16.083  0.00  0.00    +0.000 C 
ATOM     18  N   UNL     1       6.608   7.300  16.587  0.00  0.00    +0.000 N 
ATOM     19  O   UNL     1       5.178   7.063  14.874  0.00  0.00    +0.000 OA
ATOM     20  H   UNL     1       6.798   7.119  17.563  0.00  0.00    +0.000 HD
ATOM     21  H   UNL     1       7.358   7.448  15.929  0.00  0.00    +0.000 HD
ENDBRANCH   2  17
BRANCH  14  22
ATOM     22  C   UNL     1      -0.260  10.482  19.855  0.00  0.00    +0.000 C 
ATOM     23  C   UNL     1      -0.858  11.458  19.538  0.00  0.00    +0.000 C 
BRANCH  23  24
ATOM     24  C   UNL     1      -1.599  12.693  19.207  0.00  0.00    +0.000 C 
ATOM     25  C   UNL     1      -2.896  12.757  20.012  0.00  0.00    +0.000 C 
ATOM     26  C   UNL     1      -0.731  13.915  19.492  0.00  0.00    +0.000 C 
BRANCH  24  27
ATOM     27  O   UNL     1      -1.922  12.703  17.818  0.00  0.00    +0.000 OA
ATOM     28  H   UNL     1      -1.392  13.403  17.404  0.00  0.00    +0.000 HD
ENDBRANCH  24  27
ENDBRANCH  23  24
ENDBRANCH  14  22
BRANCH   1  29
ATOM     29  C   UNL     1       4.206   4.022  16.719  0.00  0.00    +0.000 C 
BRANCH  29  30
ATOM     30  N   UNL     1       5.578   3.564  16.930  0.00  0.00    +0.000 NA
ATOM     31  C   UNL     1       6.163   4.106  18.163  0.00  0.00    +0.000 C 
BRANCH  30  32
ATOM     32  C   UNL     1       6.427   3.863  15.767  0.00  0.00    +0.000 C 
BRANCH  32  33
ATOM     33  C   UNL     1       5.672   3.657  14.456  0.00  0.00    +0.000 C 
BRANCH  33  35
ATOM     34  C   UNL     1       5.974   3.295  12.189  0.00  0.00    +0.000 C 
ATOM     35  O   UNL     1       6.480   3.987  13.327  0.00  0.00    +0.000 OA
ENDBRANCH  33  35
ENDBRANCH  32  33
ENDBRANCH  30  32
ENDBRANCH  29  30
ENDBRANCH   1  29
TORSDOF 9
ENDMDL
MODEL 7
REMARK VINA RESULT:      -6.2      7.376      8.642
REMARK  Name = 
REMARK  13 active torsions:
REMARK  status: ('A' for Active; 'I' for Inactive)
REMARK    1  A    between atoms: C_1  and  O_2
REMARK    2  A    between atoms: O_2  and  C_3
REMARK    3  A    between atoms: C_3  and  C_4
REMARK    4  A    between atoms: C_4  and  N_5
REMARK    5  A    between atoms: N_5  and  C_6
REMARK    6  A    between atoms: N_5  and  C_7
REMARK    7  A    between atoms: C_7  and  C_8
REMARK    8  A    between atoms: C_9  and  C_10
REMARK    9  A    between atoms: C_24  and  C_25
REMARK   10  A    between atoms: C_26  and  C_27
REMARK   11  A    between atoms: C_27  and  C_28
REMARK   12  A    between atoms: C_27  and  C_29
REMARK   13  A    between atoms: C_27  and  O_30
REMARK                            x       y       z     vdW  Elec       q    Type
REMARK                         _______ _______ _______ _____ _____    ______ ____
ROOT
ATOM      1  C   UNL     1       8.135  14.033  23.858  0.00  0.00    +0.000 A 
ATOM      2  C   UNL     1       8.109  12.718  24.303  0.00  0.00    +0.000 A 
ATOM      3  N   UNL     1       8.596  11.872  23.303  0.00  0.00    +0.000 NA
ATOM      4  C   UNL     1       8.962  12.640  22.283  0.00  0.00    +0.000 A 
ATOM      5  N   UNL     1       8.781  13.976  22.635  0.00  0.00    +0.000 N 
ATOM      6  C   UNL     1       9.128  15.166  21.875  0.00  0.00    +0.000 C 
ATOM      7  C   UNL     1      10.628  15.269  21.555  0.00  0.00    +0.000 C 
ATOM      8  C   UNL     1      10.373  14.474  20.271  0.00  0.00    +0.000 C 
ATOM      9  C   UNL     1       8.915  15.056  20.346  0.00  0.00    +0.000 C 
ATOM     10  C   UNL     1      10.257  12.912  20.125  0.00  0.00    +0.000 A 
ATOM     11  C   UNL     1      10.677  12.344  18.901  0.00  0.00    +0.000 A 
ATOM     12  C   UNL     1      10.174  11.141  18.439  0.00  0.00    +0.000 A 
ATOM     13  F   UNL     1      10.499  10.745  17.206  0.00  0.00    +0.000 F 
ATOM     14  C   UNL     1       9.254  10.428  19.211  0.00  0.00    +0.000 A 
ATOM     15  C   UNL     1       8.926  10.901  20.486  0.00  0.00    +0.000 A 
ATOM     16  C   UNL     1       9.434  12.127  20.973  0.00  0.00    +0.000 A 
ENDROOT
BRANCH   2  17
ATOM     17  C   UNL     1       7.641  12.232  25.609  0.00  0.00    +0.000 C 
ATOM     18  N   UNL     1       8.277  12.795  26.678  0.00  0.00    +0.000 N 
ATOM     19  O   UNL     1       6.754  11.407  25.793  0.00  0.00    +0.000 OA
ATOM     20  H   UNL     1       8.908  13.571  26.523  0.00  0.00    +0.000 HD
ATOM     21  H   UNL     1       7.915  12.594  27.597  0.00  0.00    +0.000 HD
ENDBRANCH   2  17
BRANCH  14  22
ATOM     22  C   UNL     1       8.625   9.259  18.664  0.00  0.00    +0.000 C 
ATOM     23  C   UNL     1       8.096   8.303  18.199  0.00  0.00    +0.000 C 
BRANCH  23  24
ATOM     24  C   UNL     1       7.492   7.103  17.584  0.00  0.00    +0.000 C 
ATOM     25  C   UNL     1       7.714   5.887  18.481  0.00  0.00    +0.000 C 
ATOM     26  C   UNL     1       6.002   7.331  17.349  0.00  0.00    +0.000 C 
BRANCH  24  27
ATOM     27  O   UNL     1       8.098   6.854  16.318  0.00  0.00    +0.000 OA
ATOM     28  H   UNL     1       7.495   7.194  15.637  0.00  0.00    +0.000 HD
ENDBRANCH  24  27
ENDBRANCH  23  24
ENDBRANCH  14  22
BRANCH   1  29
ATOM     29  C   UNL     1       7.633  15.303  24.495  0.00  0.00    +0.000 C 
BRANCH  29  30
ATOM     30  N   UNL     1       6.197  15.270  24.765  0.00  0.00    +0.000 NA
ATOM     31  C   UNL     1       5.396  15.431  23.546  0.00  0.00    +0.000 C 
BRANCH  30  32
ATOM     32  C   UNL     1       5.821  16.265  25.780  0.00  0.00    +0.000 C 
BRANCH  32  33
ATOM     33  C   UNL     1       5.093  15.619  26.956  0.00  0.00    +0.000 C 
BRANCH  33  35
ATOM     34  C   UNL     1       4.536  13.620  27.984  0.00  0.00    +0.000 C 
ATOM     35  O   UNL     1       5.483  14.257  27.131  0.00  0.00    +0.000 OA
ENDBRANCH  33  35
ENDBRANCH  32  33
ENDBRANCH  30  32
ENDBRANCH  29  30
ENDBRANCH   1  29
TORSDOF 9
ENDMDL
MODEL 8
REMARK VINA RESULT:      -6.1      7.307      8.619
REMARK  Name = 
REMARK  13 active torsions:
REMARK  status: ('A' for Active; 'I' for Inactive)
REMARK    1  A    between atoms: C_1  and  O_2
REMARK    2  A    between atoms: O_2  and  C_3
REMARK    3  A    between atoms: C_3  and  C_4
REMARK    4  A    between atoms: C_4  and  N_5
REMARK    5  A    between atoms: N_5  and  C_6
REMARK    6  A    between atoms: N_5  and  C_7
REMARK    7  A    between atoms: C_7  and  C_8
REMARK    8  A    between atoms: C_9  and  C_10
REMARK    9  A    between atoms: C_24  and  C_25
REMARK   10  A    between atoms: C_26  and  C_27
REMARK   11  A    between atoms: C_27  and  C_28
REMARK   12  A    between atoms: C_27  and  C_29
REMARK   13  A    between atoms: C_27  and  O_30
REMARK                            x       y       z     vdW  Elec       q    Type
REMARK                         _______ _______ _______ _____ _____    ______ ____
ROOT
ATOM      1  C   UNL     1       8.233  14.348  23.564  0.00  0.00    +0.000 A 
ATOM      2  C   UNL     1       8.160  13.053  24.059  0.00  0.00    +0.000 A 
ATOM      3  N   UNL     1       8.651  12.156  23.106  0.00  0.00    +0.000 NA
ATOM      4  C   UNL     1       9.065  12.874  22.068  0.00  0.00    +0.000 A 
ATOM      5  N   UNL     1       8.910  14.226  22.363  0.00  0.00    +0.000 N 
ATOM      6  C   UNL     1       9.309  15.376  21.568  0.00  0.00    +0.000 C 
ATOM      7  C   UNL     1      10.819  15.429  21.287  0.00  0.00    +0.000 C 
ATOM      8  C   UNL     1      10.578  14.591  20.027  0.00  0.00    +0.000 C 
ATOM      9  C   UNL     1       9.135  15.212  20.039  0.00  0.00    +0.000 C 
ATOM     10  C   UNL     1      10.424  13.027  19.938  0.00  0.00    +0.000 A 
ATOM     11  C   UNL     1      10.862  12.402  18.749  0.00  0.00    +0.000 A 
ATOM     12  C   UNL     1      10.340  11.195  18.320  0.00  0.00    +0.000 A 
ATOM     13  F   UNL     1      10.687  10.743  17.112  0.00  0.00    +0.000 F 
ATOM     14  C   UNL     1       9.380  10.537  19.092  0.00  0.00    +0.000 A 
ATOM     15  C   UNL     1       9.030  11.067  20.338  0.00  0.00    +0.000 A 
ATOM     16  C   UNL     1       9.558  12.298  20.792  0.00  0.00    +0.000 A 
ENDROOT
BRANCH   2  17
ATOM     17  C   UNL     1       7.643  12.630  25.369  0.00  0.00    +0.000 C 
ATOM     18  N   UNL     1       6.842  11.525  25.325  0.00  0.00    +0.000 N 
ATOM     19  O   UNL     1       7.881  13.170  26.443  0.00  0.00    +0.000 OA
ATOM     20  H   UNL     1       6.762  11.008  24.460  0.00  0.00    +0.000 HD
ATOM     21  H   UNL     1       6.560  11.118  26.203  0.00  0.00    +0.000 HD
ENDBRANCH   2  17
BRANCH  14  22
ATOM     22  C   UNL     1       8.736   9.364  18.573  0.00  0.00    +0.000 C 
ATOM     23  C   UNL     1       8.204   8.386  18.160  0.00  0.00    +0.000 C 
BRANCH  23  24
ATOM     24  C   UNL     1       7.483   7.200  17.652  0.00  0.00    +0.000 C 
ATOM     25  C   UNL     1       7.688   6.018  18.596  0.00  0.00    +0.000 C 
ATOM     26  C   UNL     1       5.997   7.516  17.504  0.00  0.00    +0.000 C 
BRANCH  24  27
ATOM     27  O   UNL     1       7.982   6.848  16.363  0.00  0.00    +0.000 OA
ATOM     28  H   UNL     1       8.906   6.573  16.477  0.00  0.00    +0.000 HD
ENDBRANCH  24  27
ENDBRANCH  23  24
ENDBRANCH  14  22
BRANCH   1  29
ATOM     29  C   UNL     1       7.748  15.654  24.138  0.00  0.00    +0.000 C 
BRANCH  29  30
ATOM     30  N   UNL     1       6.505  16.116  23.521  0.00  0.00    +0.000 NA
ATOM     31  C   UNL     1       6.555  17.537  23.160  0.00  0.00    +0.000 C 
BRANCH  30  32
ATOM     32  C   UNL     1       5.345  15.828  24.376  0.00  0.00    +0.000 C 
BRANCH  32  33
ATOM     33  C   UNL     1       4.032  15.999  23.616  0.00  0.00    +0.000 C 
BRANCH  33  35
ATOM     34  C   UNL     1       2.641  15.140  21.976  0.00  0.00    +0.000 C 
ATOM     35  O   UNL     1       3.688  14.821  22.888  0.00  0.00    +0.000 OA
ENDBRANCH  33  35
ENDBRANCH  32  33
ENDBRANCH  30  32
ENDBRANCH  29  30
ENDBRANCH   1  29
TORSDOF 9
ENDMDL
MODEL 9
REMARK VINA RESULT:      -6.1      1.704      2.021
REMARK  Name = 
REMARK  13 active torsions:
REMARK  status: ('A' for Active; 'I' for Inactive)
REMARK    1  A    between atoms: C_1  and  O_2
REMARK    2  A    between atoms: O_2  and  C_3
REMARK    3  A    between atoms: C_3  and  C_4
REMARK    4  A    between atoms: C_4  and  N_5
REMARK    5  A    between atoms: N_5  and  C_6
REMARK    6  A    between atoms: N_5  and  C_7
REMARK    7  A    between atoms: C_7  and  C_8
REMARK    8  A    between atoms: C_9  and  C_10
REMARK    9  A    between atoms: C_24  and  C_25
REMARK   10  A    between atoms: C_26  and  C_27
REMARK   11  A    between atoms: C_27  and  C_28
REMARK   12  A    between atoms: C_27  and  C_29
REMARK   13  A    between atoms: C_27  and  O_30
REMARK                            x       y       z     vdW  Elec       q    Type
REMARK                         _______ _______ _______ _____ _____    ______ ____
ROOT
ATOM      1  C   UNL     1       0.857  11.865  20.342  0.00  0.00    +0.000 A 
ATOM      2  C   UNL     1       1.094  11.901  18.974  0.00  0.00    +0.000 A 
ATOM      3  N   UNL     1       1.429  10.623  18.520  0.00  0.00    +0.000 NA
ATOM      4  C   UNL     1       1.354   9.804  19.564  0.00  0.00    +0.000 A 
ATOM      5  N   UNL     1       0.910  10.522  20.671  0.00  0.00    +0.000 N 
ATOM      6  C   UNL     1       0.593  10.027  22.002  0.00  0.00    +0.000 C 
ATOM      7  C   UNL     1      -0.529   8.978  22.011  0.00  0.00    +0.000 C 
ATOM      8  C   UNL     1       0.533   7.891  21.816  0.00  0.00    +0.000 C 
ATOM      9  C   UNL     1       1.514   8.897  22.520  0.00  0.00    +0.000 C 
ATOM     10  C   UNL     1       1.200   7.443  20.463  0.00  0.00    +0.000 A 
ATOM     11  C   UNL     1       1.604   6.093  20.359  0.00  0.00    +0.000 A 
ATOM     12  C   UNL     1       2.621   5.695  19.509  0.00  0.00    +0.000 A 
ATOM     13  F   UNL     1       3.053   4.433  19.579  0.00  0.00    +0.000 F 
ATOM     14  C   UNL     1       3.251   6.633  18.689  0.00  0.00    +0.000 A 
ATOM     15  C   UNL     1       2.778   7.949  18.675  0.00  0.00    +0.000 A 
ATOM     16  C   UNL     1       1.738   8.370  19.535  0.00  0.00    +0.000 A 
ENDROOT
BRANCH   2  17
ATOM     17  C   UNL     1       1.031  13.076  18.093  0.00  0.00    +0.000 C 
ATOM     18  N   UNL     1       2.208  13.372  17.468  0.00  0.00    +0.000 N 
ATOM     19  O   UNL     1       0.039  13.765  17.883  0.00  0.00    +0.000 OA
ATOM     20  H   UNL     1       2.980  12.722  17.538  0.00  0.00    +0.000 HD
ATOM     21  H   UNL     1       2.194  14.088  16.759  0.00  0.00    +0.000 HD
ENDBRANCH   2  17
BRANCH  14  22
ATOM     22  C   UNL     1       4.400   6.245  17.921  0.00  0.00    +0.000 C 
ATOM     23  C   UNL     1       5.341   5.928  17.270  0.00  0.00    +0.000 C 
BRANCH  23  24
ATOM     24  C   UNL     1       6.540   5.592  16.474  0.00  0.00    +0.000 C 
ATOM     25  C   UNL     1       7.331   4.480  17.161  0.00  0.00    +0.000 C 
ATOM     26  C   UNL     1       6.130   5.169  15.067  0.00  0.00    +0.000 C 
BRANCH  24  27
ATOM     27  O   UNL     1       7.376   6.741  16.356  0.00  0.00    +0.000 OA
ATOM     28  H   UNL     1       7.654   6.990  17.253  0.00  0.00    +0.000 HD
ENDBRANCH  24  27
ENDBRANCH  23  24
ENDBRANCH  14  22
BRANCH   1  29
ATOM     29  C   UNL     1       0.566  12.970  21.325  0.00  0.00    +0.000 C 
BRANCH  29  30
ATOM     30  N   UNL     1      -0.703  13.646  21.056  0.00  0.00    +0.000 NA
ATOM     31  C   UNL     1      -0.681  15.056  21.462  0.00  0.00    +0.000 C 
BRANCH  30  32
ATOM     32  C   UNL     1      -1.829  12.934  21.677  0.00  0.00    +0.000 C 
BRANCH  32  33
ATOM     33  C   UNL     1      -2.840  12.467  20.634  0.00  0.00    +0.000 C 
BRANCH  33  35
ATOM     34  C   UNL     1      -5.100  12.634  21.110  0.00  0.00    +0.000 C 
ATOM     35  O   UNL     1      -3.976  13.329  20.577  0.00  0.00    +0.000 OA
ENDBRANCH  33  35
ENDBRANCH  32  33
ENDBRANCH  30  32
ENDBRANCH  29  30
ENDBRANCH   1  29
TORSDOF 9
ENDMDL
