MODEL 1
REMARK VINA RESULT:      -8.0      0.000      0.000
REMARK  Name = 
REMARK  8 active torsions:
REMARK  status: ('A' for Active; 'I' for Inactive)
REMARK    1  A    between atoms: C_1  and  C_2
REMARK    2  A    between atoms: C_5  and  C_6
REMARK    3  A    between atoms: N_8  and  C_9
REMARK    4  A    between atoms: C_9  and  N_10
REMARK    5  A    between atoms: C_12  and  C_13
REMARK    6  A    between atoms: C_16  and  C_17
REMARK    7  A    between atoms: C_18  and  C_19
REMARK    8  A    between atoms: C_22  and  C_23
REMARK                            x       y       z     vdW  Elec       q    Type
REMARK                         _______ _______ _______ _____ _____    ______ ____
ROOT
ATOM      1  C   UNL     1       0.980   9.455  20.014  0.00  0.00    +0.000 A 
ATOM      2  N   UNL     1       0.413  10.197  19.043  0.00  0.00    +0.000 NA
ATOM      3  N   UNL     1      -0.234  11.211  19.696  0.00  0.00    +0.000 N 
ATOM      4  C   UNL     1      -0.141  11.110  21.068  0.00  0.00    +0.000 A 
ATOM      5  C   UNL     1       0.681  10.016  21.287  0.00  0.00    +0.000 A 
ATOM      6 CL   UNL     1       1.183   9.403  22.809  0.00  0.00    +0.000 Cl
ENDROOT
BRANCH   1  11
ATOM      7  C   UNL     1       2.765   4.176  18.542  0.00  0.00    +0.000 C 
ATOM      8  C   UNL     1       2.477   5.574  19.003  0.00  0.00    +0.000 A 
ATOM      9  C   UNL     1       1.936   5.809  20.266  0.00  0.00    +0.000 A 
ATOM     10  C   UNL     1       1.577   7.106  20.648  0.00  0.00    +0.000 A 
ATOM     11  C   UNL     1       1.683   8.184  19.755  0.00  0.00    +0.000 A 
ATOM     12  C   UNL     1       2.320   7.960  18.529  0.00  0.00    +0.000 A 
ATOM     13  C   UNL     1       2.715   6.666  18.158  0.00  0.00    +0.000 A 
ENDBRANCH   1  11
BRANCH   4  14
ATOM     14  C   UNL     1      -0.801  11.947  22.081  0.00  0.00    +0.000 A 
ATOM     15  C   UNL     1      -0.392  13.284  22.229  0.00  0.00    +0.000 A 
ATOM     16  C   UNL     1      -1.098  14.177  23.032  0.00  0.00    +0.000 A 
ATOM     17  C   UNL     1      -2.194  13.732  23.768  0.00  0.00    +0.000 A 
ATOM     18  C   UNL     1      -2.990  14.682  24.608  0.00  0.00    +0.000 C 
ATOM     19  C   UNL     1      -2.560  12.385  23.694  0.00  0.00    +0.000 A 
ATOM     20  C   UNL     1      -1.889  11.507  22.836  0.00  0.00    +0.000 A 
ENDBRANCH   4  14
BRANCH   3  21
ATOM     21  C   UNL     1      -0.821  12.282  18.892  0.00  0.00    +0.000 C 
BRANCH  21  22
ATOM     22  N   UNL     1      -2.044  11.941  18.171  0.00  0.00    +0.000 N 
ATOM     23  N   UNL     1      -1.951  11.301  16.975  0.00  0.00    +0.000 NA
ATOM     24  C   UNL     1      -3.220  11.010  16.644  0.00  0.00    +0.000 A 
ATOM     25  C   UNL     1      -3.546  10.305  15.380  0.00  0.00    +0.000 C 
ATOM     26  C   UNL     1      -4.109  11.410  17.661  0.00  0.00    +0.000 A 
ATOM     27 CL   UNL     1      -5.794  11.180  17.665  0.00  0.00    +0.000 Cl
ATOM     28  C   UNL     1      -3.336  11.972  18.649  0.00  0.00    +0.000 A 
ATOM     29  C   UNL     1      -3.701  12.516  19.981  0.00  0.00    +0.000 C 
ENDBRANCH  21  22
ENDBRANCH   3  21
TORSDOF 4
ENDMDL
MODEL 2
REMARK VINA RESULT:      -7.9      0.675      1.119
REMARK  Name = 
REMARK  8 active torsions:
REMARK  status: ('A' for Active; 'I' for Inactive)
REMARK    1  A    between atoms: C_1  and  C_2
REMARK    2  A    between atoms: C_5  and  C_6
REMARK    3  A    between atoms: N_8  and  C_9
REMARK    4  A    between atoms: C_9  and  N_10
REMARK    5  A    between atoms: C_12  and  C_13
REMARK    6  A    between atoms: C_16  and  C_17
REMARK    7  A    between atoms: C_18  and  C_19
REMARK    8  A    between atoms: C_22  and  C_23
REMARK                            x       y       z     vdW  Elec       q    Type
REMARK                         _______ _______ _______ _____ _____    ______ ____
ROOT
ATOM      1  C   UNL     1       1.156   9.366  19.471  0.00  0.00    +0.000 A 
ATOM      2  N   UNL     1       0.522  10.127  18.558  0.00  0.00    +0.000 NA
ATOM      3  N   UNL     1      -0.085  11.122  19.275  0.00  0.00    +0.000 N 
ATOM      4  C   UNL     1       0.100  10.991  20.635  0.00  0.00    +0.000 A 
ATOM      5  C   UNL     1       0.940   9.897  20.774  0.00  0.00    +0.000 A 
ATOM      6 CL   UNL     1       1.546   9.254  22.244  0.00  0.00    +0.000 Cl
ENDROOT
BRANCH   1  11
ATOM      7  C   UNL     1       4.715   4.901  18.689  0.00  0.00    +0.000 C 
ATOM      8  C   UNL     1       3.658   5.960  18.792  0.00  0.00    +0.000 A 
ATOM      9  C   UNL     1       3.553   6.957  17.822  0.00  0.00    +0.000 A 
ATOM     10  C   UNL     1       2.631   7.997  17.979  0.00  0.00    +0.000 A 
ATOM     11  C   UNL     1       1.846   8.106  19.137  0.00  0.00    +0.000 A 
ATOM     12  C   UNL     1       1.881   7.050  20.056  0.00  0.00    +0.000 A 
ATOM     13  C   UNL     1       2.779   5.986  19.882  0.00  0.00    +0.000 A 
ENDBRANCH   1  11
BRANCH   4  14
ATOM     14  C   UNL     1      -0.495  11.801  21.708  0.00  0.00    +0.000 A 
ATOM     15  C   UNL     1      -0.107  13.146  21.839  0.00  0.00    +0.000 A 
ATOM     16  C   UNL     1      -0.766  14.013  22.708  0.00  0.00    +0.000 A 
ATOM     17  C   UNL     1      -1.787  13.534  23.524  0.00  0.00    +0.000 A 
ATOM     18  C   UNL     1      -2.534  14.455  24.438  0.00  0.00    +0.000 C 
ATOM     19  C   UNL     1      -2.126  12.179  23.464  0.00  0.00    +0.000 A 
ATOM     20  C   UNL     1      -1.507  11.327  22.543  0.00  0.00    +0.000 A 
ENDBRANCH   4  14
BRANCH   3  21
ATOM     21  C   UNL     1      -0.730  12.206  18.536  0.00  0.00    +0.000 C 
BRANCH  21  22
ATOM     22  N   UNL     1      -2.008  11.880  17.910  0.00  0.00    +0.000 N 
ATOM     23  N   UNL     1      -2.013  11.250  16.705  0.00  0.00    +0.000 NA
ATOM     24  C   UNL     1      -3.306  10.971  16.472  0.00  0.00    +0.000 A 
ATOM     25  C   UNL     1      -3.735  10.278  15.231  0.00  0.00    +0.000 C 
ATOM     26  C   UNL     1      -4.111  11.366  17.559  0.00  0.00    +0.000 A 
ATOM     27 CL   UNL     1      -5.792  11.148  17.692  0.00  0.00    +0.000 Cl
ATOM     28  C   UNL     1      -3.258  11.915  18.487  0.00  0.00    +0.000 A 
ATOM     29  C   UNL     1      -3.515  12.449  19.848  0.00  0.00    +0.000 C 
ENDBRANCH  21  22
ENDBRANCH   3  21
TORSDOF 4
ENDMDL
MODEL 3
REMARK VINA RESULT:      -7.8      0.730      1.667
REMARK  Name = 
REMARK  8 active torsions:
REMARK  status: ('A' for Active; 'I' for Inactive)
REMARK    1  A    between atoms: C_1  and  C_2
REMARK    2  A    between atoms: C_5  and  C_6
REMARK    3  A    between atoms: N_8  and  C_9
REMARK    4  A    between atoms: C_9  and  N_10
REMARK    5  A    between atoms: C_12  and  C_13
REMARK    6  A    between atoms: C_16  and  C_17
REMARK    7  A    between atoms: C_18  and  C_19
REMARK    8  A    between atoms: C_22  and  C_23
REMARK                            x       y       z     vdW  Elec       q    Type
REMARK                         _______ _______ _______ _____ _____    ______ ____
ROOT
ATOM      1  C   UNL     1       1.112   9.147  19.795  0.00  0.00    +0.000 A 
ATOM      2  N   UNL     1       0.380   9.760  18.845  0.00  0.00    +0.000 NA
ATOM      3  N   UNL     1      -0.249  10.793  19.486  0.00  0.00    +0.000 N 
ATOM      4  C   UNL     1       0.019  10.828  20.838  0.00  0.00    +0.000 A 
ATOM      5  C   UNL     1       0.935   9.808  21.043  0.00  0.00    +0.000 A 
ATOM      6 CL   UNL     1       1.662   9.373  22.535  0.00  0.00    +0.000 Cl
ENDROOT
BRANCH   1  11
ATOM      7  C   UNL     1       3.128   3.946  18.344  0.00  0.00    +0.000 C 
ATOM      8  C   UNL     1       2.774   5.326  18.811  0.00  0.00    +0.000 A 
ATOM      9  C   UNL     1       2.142   5.521  20.040  0.00  0.00    +0.000 A 
ATOM     10  C   UNL     1       1.725   6.800  20.422  0.00  0.00    +0.000 A 
ATOM     11  C   UNL     1       1.863   7.899  19.560  0.00  0.00    +0.000 A 
ATOM     12  C   UNL     1       2.588   7.718  18.376  0.00  0.00    +0.000 A 
ATOM     13  C   UNL     1       3.040   6.442  18.007  0.00  0.00    +0.000 A 
ENDBRANCH   1  11
BRANCH   4  14
ATOM     14  C   UNL     1      -0.567  11.719  21.851  0.00  0.00    +0.000 A 
ATOM     15  C   UNL     1      -0.139  13.056  21.908  0.00  0.00    +0.000 A 
ATOM     16  C   UNL     1      -0.784  13.994  22.713  0.00  0.00    +0.000 A 
ATOM     17  C   UNL     1      -1.833  13.595  23.538  0.00  0.00    +0.000 A 
ATOM     18  C   UNL     1      -2.565  14.592  24.382  0.00  0.00    +0.000 C 
ATOM     19  C   UNL     1      -2.214  12.250  23.551  0.00  0.00    +0.000 A 
ATOM     20  C   UNL     1      -1.607  11.326  22.694  0.00  0.00    +0.000 A 
ENDBRANCH   4  14
BRANCH   3  21
ATOM     21  C   UNL     1      -1.004  11.747  18.674  0.00  0.00    +0.000 C 
BRANCH  21  22
ATOM     22  N   UNL     1      -2.454  11.726  18.846  0.00  0.00    +0.000 N 
ATOM     23  N   UNL     1      -3.030  12.599  19.714  0.00  0.00    +0.000 NA
ATOM     24  C   UNL     1      -4.351  12.428  19.541  0.00  0.00    +0.000 A 
ATOM     25  C   UNL     1      -5.340  13.208  20.327  0.00  0.00    +0.000 C 
ATOM     26  C   UNL     1      -4.609  11.493  18.519  0.00  0.00    +0.000 A 
ATOM     27 CL   UNL     1      -6.143  11.028  17.952  0.00  0.00    +0.000 Cl
ATOM     28  C   UNL     1      -3.381  11.080  18.059  0.00  0.00    +0.000 A 
ATOM     29  C   UNL     1      -3.016  10.154  16.957  0.00  0.00    +0.000 C 
ENDBRANCH  21  22
ENDBRANCH   3  21
TORSDOF 4
ENDMDL
MODEL 4
REMARK VINA RESULT:      -7.5      0.943      1.995
REMARK  Name = 
REMARK  8 active torsions:
REMARK  status: ('A' for Active; 'I' for Inactive)
REMARK    1  A    between atoms: C_1  and  C_2
REMARK    2  A    between atoms: C_5  and  C_6
REMARK    3  A    between atoms: N_8  and  C_9
REMARK    4  A    between atoms: C_9  and  N_10
REMARK    5  A    between atoms: C_12  and  C_13
REMARK    6  A    between atoms: C_16  and  C_17
REMARK    7  A    between atoms: C_18  and  C_19
REMARK    8  A    between atoms: C_22  and  C_23
REMARK                            x       y       z     vdW  Elec       q    Type
REMARK                         _______ _______ _______ _____ _____    ______ ____
ROOT
ATOM      1  C   UNL     1       1.075   9.228  19.449  0.00  0.00    +0.000 A 
ATOM      2  N   UNL     1       0.306   9.877  18.554  0.00  0.00    +0.000 NA
ATOM      3  N   UNL     1      -0.311  10.872  19.264  0.00  0.00    +0.000 N 
ATOM      4  C   UNL     1       0.004  10.847  20.606  0.00  0.00    +0.000 A 
ATOM      5  C   UNL     1       0.936   9.829  20.732  0.00  0.00    +0.000 A 
ATOM      6 CL   UNL     1       1.718   9.332  22.175  0.00  0.00    +0.000 Cl
ENDROOT
BRANCH   1  11
ATOM      7  C   UNL     1       4.839   4.916  18.769  0.00  0.00    +0.000 C 
ATOM      8  C   UNL     1       3.738   5.932  18.838  0.00  0.00    +0.000 A 
ATOM      9  C   UNL     1       3.639   6.941  17.880  0.00  0.00    +0.000 A 
ATOM     10  C   UNL     1       2.672   7.941  18.009  0.00  0.00    +0.000 A 
ATOM     11  C   UNL     1       1.829   8.000  19.129  0.00  0.00    +0.000 A 
ATOM     12  C   UNL     1       1.862   6.931  20.032  0.00  0.00    +0.000 A 
ATOM     13  C   UNL     1       2.808   5.905  19.886  0.00  0.00    +0.000 A 
ENDBRANCH   1  11
BRANCH   4  14
ATOM     14  C   UNL     1      -0.554  11.683  21.679  0.00  0.00    +0.000 A 
ATOM     15  C   UNL     1      -0.135  13.021  21.786  0.00  0.00    +0.000 A 
ATOM     16  C   UNL     1      -0.760  13.913  22.655  0.00  0.00    +0.000 A 
ATOM     17  C   UNL     1      -1.777  13.466  23.495  0.00  0.00    +0.000 A 
ATOM     18  C   UNL     1      -2.487  14.414  24.410  0.00  0.00    +0.000 C 
ATOM     19  C   UNL     1      -2.146  12.118  23.457  0.00  0.00    +0.000 A 
ATOM     20  C   UNL     1      -1.561  11.241  22.537  0.00  0.00    +0.000 A 
ENDBRANCH   4  14
BRANCH   3  21
ATOM     21  C   UNL     1      -1.101  11.855  18.524  0.00  0.00    +0.000 C 
BRANCH  21  22
ATOM     22  N   UNL     1      -2.545  11.807  18.741  0.00  0.00    +0.000 N 
ATOM     23  N   UNL     1      -3.098  12.609  19.689  0.00  0.00    +0.000 NA
ATOM     24  C   UNL     1      -4.423  12.438  19.548  0.00  0.00    +0.000 A 
ATOM     25  C   UNL     1      -5.390  13.150  20.421  0.00  0.00    +0.000 C 
ATOM     26  C   UNL     1      -4.708  11.579  18.469  0.00  0.00    +0.000 A 
ATOM     27 CL   UNL     1      -6.256  11.142  17.918  0.00  0.00    +0.000 Cl
ATOM     28  C   UNL     1      -3.493  11.212  17.939  0.00  0.00    +0.000 A 
ATOM     29  C   UNL     1      -3.158  10.373  16.761  0.00  0.00    +0.000 C 
ENDBRANCH  21  22
ENDBRANCH   3  21
TORSDOF 4
ENDMDL
MODEL 5
REMARK VINA RESULT:      -7.4      3.044      7.668
REMARK  Name = 
REMARK  8 active torsions:
REMARK  status: ('A' for Active; 'I' for Inactive)
REMARK    1  A    between atoms: C_1  and  C_2
REMARK    2  A    between atoms: C_5  and  C_6
REMARK    3  A    between atoms: N_8  and  C_9
REMARK    4  A    between atoms: C_9  and  N_10
REMARK    5  A    between atoms: C_12  and  C_13
REMARK    6  A    between atoms: C_16  and  C_17
REMARK    7  A    between atoms: C_18  and  C_19
REMARK    8  A    between atoms: C_22  and  C_23
REMARK                            x       y       z     vdW  Elec       q    Type
REMARK                         _______ _______ _______ _____ _____    ______ ____
ROOT
ATOM      1  C   UNL     1      -2.607  11.860  19.023  0.00  0.00    +0.000 A 
ATOM      2  N   UNL     1      -1.819  12.655  19.773  0.00  0.00    +0.000 NA
ATOM      3  N   UNL     1      -0.603  12.027  19.808  0.00  0.00    +0.000 N 
ATOM      4  C   UNL     1      -0.604  10.820  19.142  0.00  0.00    +0.000 A 
ATOM      5  C   UNL     1      -1.870  10.723  18.587  0.00  0.00    +0.000 A 
ATOM      6 CL   UNL     1      -2.465   9.439  17.619  0.00  0.00    +0.000 Cl
ENDROOT
BRANCH   1  11
ATOM      7  C   UNL     1      -7.911  13.814  17.897  0.00  0.00    +0.000 C 
ATOM      8  C   UNL     1      -6.618  13.142  18.250  0.00  0.00    +0.000 A 
ATOM      9  C   UNL     1      -6.074  13.272  19.528  0.00  0.00    +0.000 A 
ATOM     10  C   UNL     1      -4.819  12.727  19.818  0.00  0.00    +0.000 A 
ATOM     11  C   UNL     1      -4.048  12.104  18.824  0.00  0.00    +0.000 A 
ATOM     12  C   UNL     1      -4.640  11.886  17.575  0.00  0.00    +0.000 A 
ATOM     13  C   UNL     1      -5.915  12.400  17.292  0.00  0.00    +0.000 A 
ENDBRANCH   1  11
BRANCH   4  14
ATOM     14  C   UNL     1       0.481   9.829  19.070  0.00  0.00    +0.000 A 
ATOM     15  C   UNL     1       0.832   9.122  20.233  0.00  0.00    +0.000 A 
ATOM     16  C   UNL     1       1.715   8.045  20.192  0.00  0.00    +0.000 A 
ATOM     17  C   UNL     1       2.325   7.694  18.990  0.00  0.00    +0.000 A 
ATOM     18  C   UNL     1       3.247   6.517  18.915  0.00  0.00    +0.000 C 
ATOM     19  C   UNL     1       2.047   8.442  17.843  0.00  0.00    +0.000 A 
ATOM     20  C   UNL     1       1.111   9.481  17.876  0.00  0.00    +0.000 A 
ENDBRANCH   4  14
BRANCH   3  21
ATOM     21  C   UNL     1       0.518  12.735  20.426  0.00  0.00    +0.000 C 
BRANCH  21  22
ATOM     22  N   UNL     1       1.010  13.905  19.703  0.00  0.00    +0.000 N 
ATOM     23  N   UNL     1       0.689  15.146  20.155  0.00  0.00    +0.000 NA
ATOM     24  C   UNL     1       1.393  15.985  19.377  0.00  0.00    +0.000 A 
ATOM     25  C   UNL     1       1.308  17.456  19.553  0.00  0.00    +0.000 C 
ATOM     26  C   UNL     1       2.209  15.271  18.477  0.00  0.00    +0.000 A 
ATOM     27 CL   UNL     1       3.293  15.948  17.356  0.00  0.00    +0.000 Cl
ATOM     28  C   UNL     1       1.978  13.938  18.724  0.00  0.00    +0.000 A 
ATOM     29  C   UNL     1       2.587  12.720  18.134  0.00  0.00    +0.000 C 
ENDBRANCH  21  22
ENDBRANCH   3  21
TORSDOF 4
ENDMDL
MODEL 6
REMARK VINA RESULT:      -7.3      2.845      4.532
REMARK  Name = 
REMARK  8 active torsions:
REMARK  status: ('A' for Active; 'I' for Inactive)
REMARK    1  A    between atoms: C_1  and  C_2
REMARK    2  A    between atoms: C_5  and  C_6
REMARK    3  A    between atoms: N_8  and  C_9
REMARK    4  A    between atoms: C_9  and  N_10
REMARK    5  A    between atoms: C_12  and  C_13
REMARK    6  A    between atoms: C_16  and  C_17
REMARK    7  A    between atoms: C_18  and  C_19
REMARK    8  A    between atoms: C_22  and  C_23
REMARK                            x       y       z     vdW  Elec       q    Type
REMARK                         _______ _______ _______ _____ _____    ______ ____
ROOT
ATOM      1  C   UNL     1       1.242   9.601  19.447  0.00  0.00    +0.000 A 
ATOM      2  N   UNL     1       1.450  10.754  18.783  0.00  0.00    +0.000 NA
ATOM      3  N   UNL     1       0.613  11.665  19.369  0.00  0.00    +0.000 N 
ATOM      4  C   UNL     1      -0.168  11.113  20.362  0.00  0.00    +0.000 A 
ATOM      5  C   UNL     1       0.262   9.799  20.460  0.00  0.00    +0.000 A 
ATOM      6 CL   UNL     1      -0.328   8.609  21.547  0.00  0.00    +0.000 Cl
ENDROOT
BRANCH   1  11
ATOM      7  C   UNL     1       4.581   5.030  18.361  0.00  0.00    +0.000 C 
ATOM      8  C   UNL     1       3.569   6.120  18.557  0.00  0.00    +0.000 A 
ATOM      9  C   UNL     1       3.400   7.115  17.595  0.00  0.00    +0.000 A 
ATOM     10  C   UNL     1       2.528   8.182  17.831  0.00  0.00    +0.000 A 
ATOM     11  C   UNL     1       1.860   8.319  19.058  0.00  0.00    +0.000 A 
ATOM     12  C   UNL     1       1.953   7.268  19.977  0.00  0.00    +0.000 A 
ATOM     13  C   UNL     1       2.800   6.177  19.727  0.00  0.00    +0.000 A 
ENDBRANCH   1  11
BRANCH   4  14
ATOM     14  C   UNL     1      -1.250  11.757  21.121  0.00  0.00    +0.000 A 
ATOM     15  C   UNL     1      -2.365  12.254  20.425  0.00  0.00    +0.000 A 
ATOM     16  C   UNL     1      -3.502  12.703  21.095  0.00  0.00    +0.000 A 
ATOM     17  C   UNL     1      -3.520  12.732  22.487  0.00  0.00    +0.000 A 
ATOM     18  C   UNL     1      -4.743  13.175  23.228  0.00  0.00    +0.000 C 
ATOM     19  C   UNL     1      -2.385  12.318  23.191  0.00  0.00    +0.000 A 
ATOM     20  C   UNL     1      -1.272  11.807  22.515  0.00  0.00    +0.000 A 
ENDBRANCH   4  14
BRANCH   3  21
ATOM     21  C   UNL     1       0.727  13.065  18.961  0.00  0.00    +0.000 C 
BRANCH  21  22
ATOM     22  N   UNL     1       2.018  13.700  19.212  0.00  0.00    +0.000 N 
ATOM     23  N   UNL     1       2.897  13.840  18.184  0.00  0.00    +0.000 NA
ATOM     24  C   UNL     1       3.903  14.570  18.694  0.00  0.00    +0.000 A 
ATOM     25  C   UNL     1       5.083  14.937  17.872  0.00  0.00    +0.000 C 
ATOM     26  C   UNL     1       3.629  14.944  20.024  0.00  0.00    +0.000 A 
ATOM     27 CL   UNL     1       4.616  15.912  21.014  0.00  0.00    +0.000 Cl
ATOM     28  C   UNL     1       2.400  14.409  20.329  0.00  0.00    +0.000 A 
ATOM     29  C   UNL     1       1.569  14.515  21.554  0.00  0.00    +0.000 C 
ENDBRANCH  21  22
ENDBRANCH   3  21
TORSDOF 4
ENDMDL
MODEL 7
REMARK VINA RESULT:      -7.2      2.657      3.725
REMARK  Name = 
REMARK  8 active torsions:
REMARK  status: ('A' for Active; 'I' for Inactive)
REMARK    1  A    between atoms: C_1  and  C_2
REMARK    2  A    between atoms: C_5  and  C_6
REMARK    3  A    between atoms: N_8  and  C_9
REMARK    4  A    between atoms: C_9  and  N_10
REMARK    5  A    between atoms: C_12  and  C_13
REMARK    6  A    between atoms: C_16  and  C_17
REMARK    7  A    between atoms: C_18  and  C_19
REMARK    8  A    between atoms: C_22  and  C_23
REMARK                            x       y       z     vdW  Elec       q    Type
REMARK                         _______ _______ _______ _____ _____    ______ ____
ROOT
ATOM      1  C   UNL     1       1.023   9.709  19.906  0.00  0.00    +0.000 A 
ATOM      2  N   UNL     1       0.821  10.550  18.873  0.00  0.00    +0.000 NA
ATOM      3  N   UNL     1       0.109  11.597  19.394  0.00  0.00    +0.000 N 
ATOM      4  C   UNL     1      -0.196  11.426  20.728  0.00  0.00    +0.000 A 
ATOM      5  C   UNL     1       0.429  10.242  21.085  0.00  0.00    +0.000 A 
ATOM      6 CL   UNL     1       0.427   9.513  22.638  0.00  0.00    +0.000 Cl
ENDROOT
BRANCH   1  11
ATOM      7  C   UNL     1       2.507   4.231  18.904  0.00  0.00    +0.000 C 
ATOM      8  C   UNL     1       2.299   5.678  19.240  0.00  0.00    +0.000 A 
ATOM      9  C   UNL     1       1.780   6.053  20.479  0.00  0.00    +0.000 A 
ATOM     10  C   UNL     1       1.495   7.396  20.744  0.00  0.00    +0.000 A 
ATOM     11  C   UNL     1       1.653   8.383  19.759  0.00  0.00    +0.000 A 
ATOM     12  C   UNL     1       2.270   8.018  18.557  0.00  0.00    +0.000 A 
ATOM     13  C   UNL     1       2.591   6.676  18.301  0.00  0.00    +0.000 A 
ENDBRANCH   1  11
BRANCH   4  14
ATOM     14  C   UNL     1      -1.037  12.282  21.577  0.00  0.00    +0.000 A 
ATOM     15  C   UNL     1      -2.435  12.181  21.471  0.00  0.00    +0.000 A 
ATOM     16  C   UNL     1      -3.282  12.823  22.372  0.00  0.00    +0.000 A 
ATOM     17  C   UNL     1      -2.749  13.643  23.363  0.00  0.00    +0.000 A 
ATOM     18  C   UNL     1      -3.637  14.312  24.365  0.00  0.00    +0.000 C 
ATOM     19  C   UNL     1      -1.363  13.818  23.427  0.00  0.00    +0.000 A 
ATOM     20  C   UNL     1      -0.513  13.121  22.562  0.00  0.00    +0.000 A 
ENDBRANCH   4  14
BRANCH   3  21
ATOM     21  C   UNL     1      -0.130  12.758  18.538  0.00  0.00    +0.000 C 
BRANCH  21  22
ATOM     22  N   UNL     1       0.814  13.863  18.683  0.00  0.00    +0.000 N 
ATOM     23  N   UNL     1       2.043  13.763  18.111  0.00  0.00    +0.000 NA
ATOM     24  C   UNL     1       2.606  14.968  18.299  0.00  0.00    +0.000 A 
ATOM     25  C   UNL     1       3.978  15.263  17.815  0.00  0.00    +0.000 C 
ATOM     26  C   UNL     1       1.708  15.849  18.933  0.00  0.00    +0.000 A 
ATOM     27 CL   UNL     1       2.004  17.481  19.308  0.00  0.00    +0.000 Cl
ATOM     28  C   UNL     1       0.551  15.136  19.140  0.00  0.00    +0.000 A 
ATOM     29  C   UNL     1      -0.756  15.546  19.710  0.00  0.00    +0.000 C 
ENDBRANCH  21  22
ENDBRANCH   3  21
TORSDOF 4
ENDMDL
MODEL 8
REMARK VINA RESULT:      -7.2      2.814      7.770
REMARK  Name = 
REMARK  8 active torsions:
REMARK  status: ('A' for Active; 'I' for Inactive)
REMARK    1  A    between atoms: C_1  and  C_2
REMARK    2  A    between atoms: C_5  and  C_6
REMARK    3  A    between atoms: N_8  and  C_9
REMARK    4  A    between atoms: C_9  and  N_10
REMARK    5  A    between atoms: C_12  and  C_13
REMARK    6  A    between atoms: C_16  and  C_17
REMARK    7  A    between atoms: C_18  and  C_19
REMARK    8  A    between atoms: C_22  and  C_23
REMARK                            x       y       z     vdW  Elec       q    Type
REMARK                         _______ _______ _______ _____ _____    ______ ____
ROOT
ATOM      1  C   UNL     1      -1.769  11.683  19.275  0.00  0.00    +0.000 A 
ATOM      2  N   UNL     1      -0.975  12.226  20.218  0.00  0.00    +0.000 NA
ATOM      3  N   UNL     1       0.186  11.504  20.171  0.00  0.00    +0.000 N 
ATOM      4  C   UNL     1       0.141  10.474  19.256  0.00  0.00    +0.000 A 
ATOM      5  C   UNL     1      -1.091  10.608  18.634  0.00  0.00    +0.000 A 
ATOM      6 CL   UNL     1      -1.715   9.619  17.379  0.00  0.00    +0.000 Cl
ENDROOT
BRANCH   1  11
ATOM      7  C   UNL     1      -7.491  12.274  18.917  0.00  0.00    +0.000 C 
ATOM      8  C   UNL     1      -5.992  12.294  18.924  0.00  0.00    +0.000 A 
ATOM      9  C   UNL     1      -5.268  11.765  17.855  0.00  0.00    +0.000 A 
ATOM     10  C   UNL     1      -3.873  11.696  17.915  0.00  0.00    +0.000 A 
ATOM     11  C   UNL     1      -3.173  12.086  19.067  0.00  0.00    +0.000 A 
ATOM     12  C   UNL     1      -3.893  12.709  20.093  0.00  0.00    +0.000 A 
ATOM     13  C   UNL     1      -5.291  12.814  20.020  0.00  0.00    +0.000 A 
ENDBRANCH   1  11
BRANCH   4  14
ATOM     14  C   UNL     1       1.152   9.433  19.018  0.00  0.00    +0.000 A 
ATOM     15  C   UNL     1       1.356   8.449  20.000  0.00  0.00    +0.000 A 
ATOM     16  C   UNL     1       2.158   7.335  19.759  0.00  0.00    +0.000 A 
ATOM     17  C   UNL     1       2.836   7.217  18.548  0.00  0.00    +0.000 A 
ATOM     18  C   UNL     1       3.673   6.011  18.253  0.00  0.00    +0.000 C 
ATOM     19  C   UNL     1       2.706   8.231  17.595  0.00  0.00    +0.000 A 
ATOM     20  C   UNL     1       1.849   9.314  17.816  0.00  0.00    +0.000 A 
ENDBRANCH   4  14
BRANCH   3  21
ATOM     21  C   UNL     1       1.314  11.963  20.982  0.00  0.00    +0.000 C 
BRANCH  21  22
ATOM     22  N   UNL     1       1.692  13.364  20.814  0.00  0.00    +0.000 N 
ATOM     23  N   UNL     1       1.636  14.197  21.887  0.00  0.00    +0.000 NA
ATOM     24  C   UNL     1       2.168  15.351  21.449  0.00  0.00    +0.000 A 
ATOM     25  C   UNL     1       2.282  16.534  22.338  0.00  0.00    +0.000 C 
ATOM     26  C   UNL     1       2.619  15.226  20.120  0.00  0.00    +0.000 A 
ATOM     27 CL   UNL     1       3.399  16.432  19.210  0.00  0.00    +0.000 Cl
ATOM     28  C   UNL     1       2.338  13.935  19.740  0.00  0.00    +0.000 A 
ATOM     29  C   UNL     1       2.631  13.206  18.480  0.00  0.00    +0.000 C 
ENDBRANCH  21  22
ENDBRANCH   3  21
TORSDOF 4
ENDMDL
MODEL 9
REMARK VINA RESULT:      -7.2      2.917      4.624
REMARK  Name = 
REMARK  8 active torsions:
REMARK  status: ('A' for Active; 'I' for Inactive)
REMARK    1  A    between atoms: C_1  and  C_2
REMARK    2  A    between atoms: C_5  and  C_6
REMARK    3  A    between atoms: N_8  and  C_9
REMARK    4  A    between atoms: C_9  and  N_10
REMARK    5  A    between atoms: C_12  and  C_13
REMARK    6  A    between atoms: C_16  and  C_17
REMARK    7  A    between atoms: C_18  and  C_19
REMARK    8  A    between atoms: C_22  and  C_23
REMARK                            x       y       z     vdW  Elec       q    Type
REMARK                         _______ _______ _______ _____ _____    ______ ____
ROOT
ATOM      1  C   UNL     1       1.882   9.023  18.688  0.00  0.00    +0.000 A 
ATOM      2  N   UNL     1       1.906  10.210  18.053  0.00  0.00    +0.000 NA
ATOM      3  N   UNL     1       1.186  11.059  18.849  0.00  0.00    +0.000 N 
ATOM      4  C   UNL     1       0.654  10.434  19.957  0.00  0.00    +0.000 A 
ATOM      5  C   UNL     1       1.137   9.136  19.896  0.00  0.00    +0.000 A 
ATOM      6 CL   UNL     1       0.833   7.879  21.023  0.00  0.00    +0.000 Cl
ENDROOT
BRANCH   1  11
ATOM      7  C   UNL     1       4.568   4.081  17.432  0.00  0.00    +0.000 C 
ATOM      8  C   UNL     1       3.801   5.361  17.576  0.00  0.00    +0.000 A 
ATOM      9  C   UNL     1       4.397   6.586  17.274  0.00  0.00    +0.000 A 
ATOM     10  C   UNL     1       3.709   7.780  17.508  0.00  0.00    +0.000 A 
ATOM     11  C   UNL     1       2.444   7.785  18.114  0.00  0.00    +0.000 A 
ATOM     12  C   UNL     1       1.810   6.554  18.320  0.00  0.00    +0.000 A 
ATOM     13  C   UNL     1       2.484   5.353  18.051  0.00  0.00    +0.000 A 
ENDBRANCH   1  11
BRANCH   4  14
ATOM     14  C   UNL     1      -0.260  11.000  20.961  0.00  0.00    +0.000 A 
ATOM     15  C   UNL     1      -1.301  11.842  20.533  0.00  0.00    +0.000 A 
ATOM     16  C   UNL     1      -2.306  12.257  21.403  0.00  0.00    +0.000 A 
ATOM     17  C   UNL     1      -2.254  11.895  22.747  0.00  0.00    +0.000 A 
ATOM     18  C   UNL     1      -3.343  12.298  23.692  0.00  0.00    +0.000 C 
ATOM     19  C   UNL     1      -1.178  11.126  23.202  0.00  0.00    +0.000 A 
ATOM     20  C   UNL     1      -0.206  10.658  22.312  0.00  0.00    +0.000 A 
ENDBRANCH   4  14
BRANCH   3  21
ATOM     21  C   UNL     1       1.164  12.479  18.497  0.00  0.00    +0.000 C 
BRANCH  21  22
ATOM     22  N   UNL     1       2.346  13.249  18.875  0.00  0.00    +0.000 N 
ATOM     23  N   UNL     1       3.307  13.486  17.943  0.00  0.00    +0.000 NA
ATOM     24  C   UNL     1       4.170  14.319  18.549  0.00  0.00    +0.000 A 
ATOM     25  C   UNL     1       5.383  14.814  17.852  0.00  0.00    +0.000 C 
ATOM     26  C   UNL     1       3.720  14.657  19.841  0.00  0.00    +0.000 A 
ATOM     27 CL   UNL     1       4.488  15.723  20.921  0.00  0.00    +0.000 Cl
ATOM     28  C   UNL     1       2.531  13.991  20.020  0.00  0.00    +0.000 A 
ATOM     29  C   UNL     1       1.570  14.003  21.151  0.00  0.00    +0.000 C 
ENDBRANCH  21  22
ENDBRANCH   3  21
TORSDOF 4
ENDMDL
