MODEL 1
REMARK VINA RESULT:      -8.1      0.000      0.000
REMARK  Name = 
REMARK  6 active torsions:
REMARK  status: ('A' for Active; 'I' for Inactive)
REMARK    1  A    between atoms: C_1  and  N_2
REMARK    2  A    between atoms: C_3  and  C_4
REMARK    3  A    between atoms: C_4  and  C_5
REMARK    4  A    between atoms: C_5  and  O_6
REMARK    5  A    between atoms: C_5  and  C_7
REMARK    6  A    between atoms: N_15  and  C_16
REMARK                            x       y       z     vdW  Elec       q    Type
REMARK                         _______ _______ _______ _____ _____    ______ ____
ROOT
ATOM      1  C   UNL     1       5.792   6.205  18.151  0.00  0.00    +0.000 C 
ENDROOT
BRANCH   1   2
ATOM      2  C   UNL     1       4.728   5.445  18.901  0.00  0.00    +0.000 A 
ATOM      3  N   UNL     1       4.888   4.210  19.348  0.00  0.00    +0.000 NA
ATOM      4  C   UNL     1       3.687   3.855  19.909  0.00  0.00    +0.000 A 
ATOM      5  C   UNL     1       3.318   2.654  20.535  0.00  0.00    +0.000 A 
ATOM      6  C   UNL     1       2.014   2.514  21.024  0.00  0.00    +0.000 A 
ATOM      7  C   UNL     1       1.092   3.553  20.891  0.00  0.00    +0.000 A 
ATOM      8  C   UNL     1       1.443   4.758  20.271  0.00  0.00    +0.000 A 
ATOM      9  C   UNL     1       2.755   4.882  19.791  0.00  0.00    +0.000 A 
ATOM     10  N   UNL     1       3.442   5.886  19.142  0.00  0.00    +0.000 N 
ATOM     11  C   UNL     1       2.896   7.165  18.759  0.00  0.00    +0.000 C 
ENDBRANCH   1   2
BRANCH   1  12
ATOM     12  O   UNL     1       5.112   6.779  17.024  0.00  0.00    +0.000 OA
ATOM     13  H   UNL     1       4.795   7.651  17.332  0.00  0.00    +0.000 HD
ENDBRANCH   1  12
BRANCH   1  14
ATOM     14  C   UNL     1       6.898   5.261  17.656  0.00  0.00    +0.000 C 
BRANCH  14  17
ATOM     15  C   UNL     1       4.992   3.251  16.175  0.00  0.00    +0.000 C 
ATOM     16  N   UNL     1       5.989   4.094  15.565  0.00  0.00    +0.000 N 
ATOM     17  C   UNL     1       6.825   5.007  16.179  0.00  0.00    +0.000 A 
ATOM     18  N   UNL     1       7.604   5.593  15.286  0.00  0.00    +0.000 NA
ATOM     19  C   UNL     1       7.295   5.020  14.077  0.00  0.00    +0.000 A 
ATOM     20  C   UNL     1       7.847   5.252  12.808  0.00  0.00    +0.000 A 
ATOM     21  C   UNL     1       7.369   4.514  11.716  0.00  0.00    +0.000 A 
ATOM     22  C   UNL     1       6.359   3.567  11.883  0.00  0.00    +0.000 A 
ATOM     23  C   UNL     1       5.794   3.325  13.140  0.00  0.00    +0.000 A 
ATOM     24  C   UNL     1       6.289   4.072  14.219  0.00  0.00    +0.000 A 
ENDBRANCH  14  17
ENDBRANCH   1  14
TORSDOF 4
ENDMDL
MODEL 2
REMARK VINA RESULT:      -7.8      1.823      7.232
REMARK  Name = 
REMARK  6 active torsions:
REMARK  status: ('A' for Active; 'I' for Inactive)
REMARK    1  A    between atoms: C_1  and  N_2
REMARK    2  A    between atoms: C_3  and  C_4
REMARK    3  A    between atoms: C_4  and  C_5
REMARK    4  A    between atoms: C_5  and  O_6
REMARK    5  A    between atoms: C_5  and  C_7
REMARK    6  A    between atoms: N_15  and  C_16
REMARK                            x       y       z     vdW  Elec       q    Type
REMARK                         _______ _______ _______ _____ _____    ______ ____
ROOT
ATOM      1  C   UNL     1       5.069   4.693  18.030  0.00  0.00    +0.000 C 
ENDROOT
BRANCH   1   2
ATOM      2  C   UNL     1       5.558   4.660  16.604  0.00  0.00    +0.000 A 
ATOM      3  N   UNL     1       5.067   3.850  15.681  0.00  0.00    +0.000 NA
ATOM      4  C   UNL     1       5.811   4.075  14.549  0.00  0.00    +0.000 A 
ATOM      5  C   UNL     1       5.703   3.484  13.282  0.00  0.00    +0.000 A 
ATOM      6  C   UNL     1       6.595   3.868  12.273  0.00  0.00    +0.000 A 
ATOM      7  C   UNL     1       7.581   4.822  12.526  0.00  0.00    +0.000 A 
ATOM      8  C   UNL     1       7.704   5.423  13.784  0.00  0.00    +0.000 A 
ATOM      9  C   UNL     1       6.797   5.030  14.781  0.00  0.00    +0.000 A 
ATOM     10  N   UNL     1       6.618   5.387  16.100  0.00  0.00    +0.000 N 
ATOM     11  C   UNL     1       7.420   6.338  16.829  0.00  0.00    +0.000 C 
ENDBRANCH   1   2
BRANCH   1  12
ATOM     12  O   UNL     1       5.570   3.486  18.622  0.00  0.00    +0.000 OA
ATOM     13  H   UNL     1       6.295   3.771  19.214  0.00  0.00    +0.000 HD
ENDBRANCH   1  12
BRANCH   1  14
ATOM     14  C   UNL     1       3.533   4.693  18.086  0.00  0.00    +0.000 C 
BRANCH  14  17
ATOM     15  C   UNL     1       2.194   5.354  20.849  0.00  0.00    +0.000 C 
ATOM     16  N   UNL     1       2.364   6.260  19.740  0.00  0.00    +0.000 N 
ATOM     17  C   UNL     1       2.969   6.013  18.524  0.00  0.00    +0.000 A 
ATOM     18  N   UNL     1       2.934   7.093  17.762  0.00  0.00    +0.000 NA
ATOM     19  C   UNL     1       2.257   8.045  18.484  0.00  0.00    +0.000 A 
ATOM     20  C   UNL     1       1.910   9.358  18.132  0.00  0.00    +0.000 A 
ATOM     21  C   UNL     1       1.189  10.137  19.047  0.00  0.00    +0.000 A 
ATOM     22  C   UNL     1       0.822   9.620  20.290  0.00  0.00    +0.000 A 
ATOM     23  C   UNL     1       1.161   8.313  20.659  0.00  0.00    +0.000 A 
ATOM     24  C   UNL     1       1.881   7.551  19.727  0.00  0.00    +0.000 A 
ENDBRANCH  14  17
ENDBRANCH   1  14
TORSDOF 4
ENDMDL
MODEL 3
REMARK VINA RESULT:      -7.7      1.044      1.075
REMARK  Name = 
REMARK  6 active torsions:
REMARK  status: ('A' for Active; 'I' for Inactive)
REMARK    1  A    between atoms: C_1  and  N_2
REMARK    2  A    between atoms: C_3  and  C_4
REMARK    3  A    between atoms: C_4  and  C_5
REMARK    4  A    between atoms: C_5  and  O_6
REMARK    5  A    between atoms: C_5  and  C_7
REMARK    6  A    between atoms: N_15  and  C_16
REMARK                            x       y       z     vdW  Elec       q    Type
REMARK                         _______ _______ _______ _____ _____    ______ ____
ROOT
ATOM      1  C   UNL     1       6.568   4.846  18.527  0.00  0.00    +0.000 C 
ENDROOT
BRANCH   1   2
ATOM      2  C   UNL     1       5.245   4.479  19.151  0.00  0.00    +0.000 A 
ATOM      3  N   UNL     1       4.965   3.274  19.620  0.00  0.00    +0.000 NA
ATOM      4  C   UNL     1       3.659   3.327  20.038  0.00  0.00    +0.000 A 
ATOM      5  C   UNL     1       2.871   2.325  20.621  0.00  0.00    +0.000 A 
ATOM      6  C   UNL     1       1.542   2.611  20.955  0.00  0.00    +0.000 A 
ATOM      7  C   UNL     1       1.007   3.876  20.709  0.00  0.00    +0.000 A 
ATOM      8  C   UNL     1       1.779   4.889  20.128  0.00  0.00    +0.000 A 
ATOM      9  C   UNL     1       3.110   4.585  19.806  0.00  0.00    +0.000 A 
ATOM     10  N   UNL     1       4.140   5.303  19.237  0.00  0.00    +0.000 N 
ATOM     11  C   UNL     1       4.062   6.671  18.786  0.00  0.00    +0.000 C 
ENDBRANCH   1   2
BRANCH   1  12
ATOM     12  O   UNL     1       7.373   5.319  19.617  0.00  0.00    +0.000 OA
ATOM     13  H   UNL     1       6.965   4.941  20.422  0.00  0.00    +0.000 HD
ENDBRANCH   1  12
BRANCH   1  14
ATOM     14  C   UNL     1       6.397   5.967  17.491  0.00  0.00    +0.000 C 
BRANCH  14  17
ATOM     15  C   UNL     1       4.269   4.116  16.109  0.00  0.00    +0.000 C 
ATOM     16  N   UNL     1       5.478   4.625  15.512  0.00  0.00    +0.000 N 
ATOM     17  C   UNL     1       6.421   5.460  16.079  0.00  0.00    +0.000 A 
ATOM     18  N   UNL     1       7.393   5.711  15.219  0.00  0.00    +0.000 NA
ATOM     19  C   UNL     1       7.095   4.992  14.088  0.00  0.00    +0.000 A 
ATOM     20  C   UNL     1       7.809   4.873  12.886  0.00  0.00    +0.000 A 
ATOM     21  C   UNL     1       7.299   4.050  11.873  0.00  0.00    +0.000 A 
ATOM     22  C   UNL     1       6.100   3.360  12.051  0.00  0.00    +0.000 A 
ATOM     23  C   UNL     1       5.372   3.469  13.241  0.00  0.00    +0.000 A 
ATOM     24  C   UNL     1       5.902   4.296  14.242  0.00  0.00    +0.000 A 
ENDBRANCH  14  17
ENDBRANCH   1  14
TORSDOF 4
ENDMDL
MODEL 4
REMARK VINA RESULT:      -7.7      0.797      6.945
REMARK  Name = 
REMARK  6 active torsions:
REMARK  status: ('A' for Active; 'I' for Inactive)
REMARK    1  A    between atoms: C_1  and  N_2
REMARK    2  A    between atoms: C_3  and  C_4
REMARK    3  A    between atoms: C_4  and  C_5
REMARK    4  A    between atoms: C_5  and  O_6
REMARK    5  A    between atoms: C_5  and  C_7
REMARK    6  A    between atoms: N_15  and  C_16
REMARK                            x       y       z     vdW  Elec       q    Type
REMARK                         _______ _______ _______ _____ _____    ______ ____
ROOT
ATOM      1  C   UNL     1       6.242   6.145  17.431  0.00  0.00    +0.000 C 
ENDROOT
BRANCH   1   2
ATOM      2  C   UNL     1       6.371   5.481  16.083  0.00  0.00    +0.000 A 
ATOM      3  N   UNL     1       7.363   5.719  15.241  0.00  0.00    +0.000 NA
ATOM      4  C   UNL     1       7.088   4.982  14.117  0.00  0.00    +0.000 A 
ATOM      5  C   UNL     1       7.821   4.867  12.927  0.00  0.00    +0.000 A 
ATOM      6  C   UNL     1       7.328   4.055  11.899  0.00  0.00    +0.000 A 
ATOM      7  C   UNL     1       6.122   3.372  12.053  0.00  0.00    +0.000 A 
ATOM      8  C   UNL     1       5.377   3.473  13.234  0.00  0.00    +0.000 A 
ATOM      9  C   UNL     1       5.890   4.286  14.256  0.00  0.00    +0.000 A 
ATOM     10  N   UNL     1       5.449   4.623  15.517  0.00  0.00    +0.000 N 
ATOM     11  C   UNL     1       4.221   4.172  16.126  0.00  0.00    +0.000 C 
ENDBRANCH   1   2
BRANCH   1  12
ATOM     12  O   UNL     1       7.292   7.124  17.464  0.00  0.00    +0.000 OA
ATOM     13  H   UNL     1       8.102   6.640  17.206  0.00  0.00    +0.000 HD
ENDBRANCH   1  12
BRANCH   1  14
ATOM     14  C   UNL     1       6.451   5.131  18.566  0.00  0.00    +0.000 C 
BRANCH  14  17
ATOM     15  C   UNL     1       3.733   6.685  18.828  0.00  0.00    +0.000 C 
ATOM     16  N   UNL     1       3.987   5.327  19.239  0.00  0.00    +0.000 N 
ATOM     17  C   UNL     1       5.158   4.604  19.117  0.00  0.00    +0.000 A 
ATOM     18  N   UNL     1       5.003   3.387  19.608  0.00  0.00    +0.000 NA
ATOM     19  C   UNL     1       3.721   3.334  20.096  0.00  0.00    +0.000 A 
ATOM     20  C   UNL     1       3.052   2.287  20.750  0.00  0.00    +0.000 A 
ATOM     21  C   UNL     1       1.733   2.487  21.176  0.00  0.00    +0.000 A 
ATOM     22  C   UNL     1       1.088   3.704  20.953  0.00  0.00    +0.000 A 
ATOM     23  C   UNL     1       1.738   4.758  20.300  0.00  0.00    +0.000 A 
ATOM     24  C   UNL     1       3.058   4.537  19.884  0.00  0.00    +0.000 A 
ENDBRANCH  14  17
ENDBRANCH   1  14
TORSDOF 4
ENDMDL
MODEL 5
REMARK VINA RESULT:      -7.5      0.978      6.918
REMARK  Name = 
REMARK  6 active torsions:
REMARK  status: ('A' for Active; 'I' for Inactive)
REMARK    1  A    between atoms: C_1  and  N_2
REMARK    2  A    between atoms: C_3  and  C_4
REMARK    3  A    between atoms: C_4  and  C_5
REMARK    4  A    between atoms: C_5  and  O_6
REMARK    5  A    between atoms: C_5  and  C_7
REMARK    6  A    between atoms: N_15  and  C_16
REMARK                            x       y       z     vdW  Elec       q    Type
REMARK                         _______ _______ _______ _____ _____    ______ ____
ROOT
ATOM      1  C   UNL     1       6.432   5.883  17.603  0.00  0.00    +0.000 C 
ENDROOT
BRANCH   1   2
ATOM      2  C   UNL     1       6.527   5.332  16.203  0.00  0.00    +0.000 A 
ATOM      3  N   UNL     1       7.488   5.653  15.353  0.00  0.00    +0.000 NA
ATOM      4  C   UNL     1       7.187   5.004  14.182  0.00  0.00    +0.000 A 
ATOM      5  C   UNL     1       7.884   4.998  12.965  0.00  0.00    +0.000 A 
ATOM      6  C   UNL     1       7.369   4.264  11.889  0.00  0.00    +0.000 A 
ATOM      7  C   UNL     1       6.178   3.551  12.024  0.00  0.00    +0.000 A 
ATOM      8  C   UNL     1       5.470   3.544  13.232  0.00  0.00    +0.000 A 
ATOM      9  C   UNL     1       6.004   4.281  14.300  0.00  0.00    +0.000 A 
ATOM     10  N   UNL     1       5.599   4.507  15.598  0.00  0.00    +0.000 N 
ATOM     11  C   UNL     1       4.397   3.990  16.205  0.00  0.00    +0.000 C 
ENDBRANCH   1   2
BRANCH   1  12
ATOM     12  O   UNL     1       7.632   6.650  17.782  0.00  0.00    +0.000 OA
ATOM     13  H   UNL     1       8.272   6.034  18.193  0.00  0.00    +0.000 HD
ENDBRANCH   1  12
BRANCH   1  14
ATOM     14  C   UNL     1       6.389   4.749  18.639  0.00  0.00    +0.000 C 
BRANCH  14  17
ATOM     15  C   UNL     1       5.057   2.035  19.492  0.00  0.00    +0.000 C 
ATOM     16  N   UNL     1       4.462   3.345  19.575  0.00  0.00    +0.000 N 
ATOM     17  C   UNL     1       5.025   4.560  19.235  0.00  0.00    +0.000 A 
ATOM     18  N   UNL     1       4.168   5.543  19.453  0.00  0.00    +0.000 NA
ATOM     19  C   UNL     1       3.015   4.950  19.904  0.00  0.00    +0.000 A 
ATOM     20  C   UNL     1       1.785   5.529  20.251  0.00  0.00    +0.000 A 
ATOM     21  C   UNL     1       0.737   4.697  20.669  0.00  0.00    +0.000 A 
ATOM     22  C   UNL     1       0.911   3.315  20.744  0.00  0.00    +0.000 A 
ATOM     23  C   UNL     1       2.132   2.720  20.404  0.00  0.00    +0.000 A 
ATOM     24  C   UNL     1       3.165   3.571  19.986  0.00  0.00    +0.000 A 
ENDBRANCH  14  17
ENDBRANCH   1  14
TORSDOF 4
ENDMDL
MODEL 6
REMARK VINA RESULT:      -7.4      3.924      5.580
REMARK  Name = 
REMARK  6 active torsions:
REMARK  status: ('A' for Active; 'I' for Inactive)
REMARK    1  A    between atoms: C_1  and  N_2
REMARK    2  A    between atoms: C_3  and  C_4
REMARK    3  A    between atoms: C_4  and  C_5
REMARK    4  A    between atoms: C_5  and  O_6
REMARK    5  A    between atoms: C_5  and  C_7
REMARK    6  A    between atoms: N_15  and  C_16
REMARK                            x       y       z     vdW  Elec       q    Type
REMARK                         _______ _______ _______ _____ _____    ______ ____
ROOT
ATOM      1  C   UNL     1       2.099   8.649  18.734  0.00  0.00    +0.000 C 
ENDROOT
BRANCH   1   2
ATOM      2  C   UNL     1       1.327   9.369  19.810  0.00  0.00    +0.000 A 
ATOM      3  N   UNL     1       0.772   8.761  20.845  0.00  0.00    +0.000 NA
ATOM      4  C   UNL     1       0.116   9.740  21.549  0.00  0.00    +0.000 A 
ATOM      5  C   UNL     1      -0.629   9.636  22.733  0.00  0.00    +0.000 A 
ATOM      6  C   UNL     1      -1.227  10.785  23.263  0.00  0.00    +0.000 A 
ATOM      7  C   UNL     1      -1.088  12.017  22.623  0.00  0.00    +0.000 A 
ATOM      8  C   UNL     1      -0.348  12.140  21.441  0.00  0.00    +0.000 A 
ATOM      9  C   UNL     1       0.249  10.978  20.927  0.00  0.00    +0.000 A 
ATOM     10  N   UNL     1       1.024  10.717  19.818  0.00  0.00    +0.000 N 
ATOM     11  C   UNL     1       1.425  11.684  18.825  0.00  0.00    +0.000 C 
ENDBRANCH   1   2
BRANCH   1  12
ATOM     12  O   UNL     1       1.230   8.647  17.592  0.00  0.00    +0.000 OA
ATOM     13  H   UNL     1       1.694   9.180  16.915  0.00  0.00    +0.000 HD
ENDBRANCH   1  12
BRANCH   1  14
ATOM     14  C   UNL     1       2.403   7.201  19.149  0.00  0.00    +0.000 C 
BRANCH  14  17
ATOM     15  C   UNL     1       2.775   4.094  18.881  0.00  0.00    +0.000 C 
ATOM     16  N   UNL     1       3.410   5.106  18.074  0.00  0.00    +0.000 N 
ATOM     17  C   UNL     1       3.251   6.476  18.145  0.00  0.00    +0.000 A 
ATOM     18  N   UNL     1       4.000   7.076  17.237  0.00  0.00    +0.000 NA
ATOM     19  C   UNL     1       4.688   6.078  16.592  0.00  0.00    +0.000 A 
ATOM     20  C   UNL     1       5.642   6.164  15.566  0.00  0.00    +0.000 A 
ATOM     21  C   UNL     1       6.226   4.986  15.082  0.00  0.00    +0.000 A 
ATOM     22  C   UNL     1       5.865   3.744  15.606  0.00  0.00    +0.000 A 
ATOM     23  C   UNL     1       4.913   3.639  16.627  0.00  0.00    +0.000 A 
ATOM     24  C   UNL     1       4.344   4.830  17.098  0.00  0.00    +0.000 A 
ENDBRANCH  14  17
ENDBRANCH   1  14
TORSDOF 4
ENDMDL
MODEL 7
REMARK VINA RESULT:      -7.4      1.155      1.969
REMARK  Name = 
REMARK  6 active torsions:
REMARK  status: ('A' for Active; 'I' for Inactive)
REMARK    1  A    between atoms: C_1  and  N_2
REMARK    2  A    between atoms: C_3  and  C_4
REMARK    3  A    between atoms: C_4  and  C_5
REMARK    4  A    between atoms: C_5  and  O_6
REMARK    5  A    between atoms: C_5  and  C_7
REMARK    6  A    between atoms: N_15  and  C_16
REMARK                            x       y       z     vdW  Elec       q    Type
REMARK                         _______ _______ _______ _____ _____    ______ ____
ROOT
ATOM      1  C   UNL     1       6.393   4.809  18.682  0.00  0.00    +0.000 C 
ENDROOT
BRANCH   1   2
ATOM      2  C   UNL     1       4.985   4.569  19.165  0.00  0.00    +0.000 A 
ATOM      3  N   UNL     1       4.102   5.535  19.357  0.00  0.00    +0.000 NA
ATOM      4  C   UNL     1       2.978   4.924  19.854  0.00  0.00    +0.000 A 
ATOM      5  C   UNL     1       1.748   5.489  20.221  0.00  0.00    +0.000 A 
ATOM      6  C   UNL     1       0.740   4.658  20.724  0.00  0.00    +0.000 A 
ATOM      7  C   UNL     1       0.956   3.286  20.861  0.00  0.00    +0.000 A 
ATOM      8  C   UNL     1       2.177   2.705  20.499  0.00  0.00    +0.000 A 
ATOM      9  C   UNL     1       3.173   3.553  19.992  0.00  0.00    +0.000 A 
ATOM     10  N   UNL     1       4.462   3.350  19.548  0.00  0.00    +0.000 N 
ATOM     11  C   UNL     1       5.150   2.082  19.517  0.00  0.00    +0.000 C 
ENDBRANCH   1   2
BRANCH   1  12
ATOM     12  O   UNL     1       7.134   5.162  19.860  0.00  0.00    +0.000 OA
ATOM     13  H   UNL     1       7.368   6.105  19.743  0.00  0.00    +0.000 HD
ENDBRANCH   1  12
BRANCH   1  14
ATOM     14  C   UNL     1       6.441   5.971  17.678  0.00  0.00    +0.000 C 
BRANCH  14  17
ATOM     15  C   UNL     1       4.319   4.162  16.233  0.00  0.00    +0.000 C 
ATOM     16  N   UNL     1       5.532   4.686  15.658  0.00  0.00    +0.000 N 
ATOM     17  C   UNL     1       6.473   5.504  16.253  0.00  0.00    +0.000 A 
ATOM     18  N   UNL     1       7.449   5.779  15.405  0.00  0.00    +0.000 NA
ATOM     19  C   UNL     1       7.156   5.092  14.252  0.00  0.00    +0.000 A 
ATOM     20  C   UNL     1       7.877   5.007  13.051  0.00  0.00    +0.000 A 
ATOM     21  C   UNL     1       7.372   4.213  12.013  0.00  0.00    +0.000 A 
ATOM     22  C   UNL     1       6.171   3.519  12.165  0.00  0.00    +0.000 A 
ATOM     23  C   UNL     1       5.438   3.595  13.354  0.00  0.00    +0.000 A 
ATOM     24  C   UNL     1       5.962   4.393  14.381  0.00  0.00    +0.000 A 
ENDBRANCH  14  17
ENDBRANCH   1  14
TORSDOF 4
ENDMDL
MODEL 8
REMARK VINA RESULT:      -7.2      2.888      4.668
REMARK  Name = 
REMARK  6 active torsions:
REMARK  status: ('A' for Active; 'I' for Inactive)
REMARK    1  A    between atoms: C_1  and  N_2
REMARK    2  A    between atoms: C_3  and  C_4
REMARK    3  A    between atoms: C_4  and  C_5
REMARK    4  A    between atoms: C_5  and  O_6
REMARK    5  A    between atoms: C_5  and  C_7
REMARK    6  A    between atoms: N_15  and  C_16
REMARK                            x       y       z     vdW  Elec       q    Type
REMARK                         _______ _______ _______ _____ _____    ______ ____
ROOT
ATOM      1  C   UNL     1       2.290   5.663  19.549  0.00  0.00    +0.000 C 
ENDROOT
BRANCH   1   2
ATOM      2  C   UNL     1       1.800   7.005  20.030  0.00  0.00    +0.000 A 
ATOM      3  N   UNL     1       1.239   7.198  21.213  0.00  0.00    +0.000 NA
ATOM      4  C   UNL     1       0.877   8.522  21.246  0.00  0.00    +0.000 A 
ATOM      5  C   UNL     1       0.252   9.248  22.271  0.00  0.00    +0.000 A 
ATOM      6  C   UNL     1      -0.036  10.602  22.067  0.00  0.00    +0.000 A 
ATOM      7  C   UNL     1       0.290  11.222  20.861  0.00  0.00    +0.000 A 
ATOM      8  C   UNL     1       0.915  10.514  19.827  0.00  0.00    +0.000 A 
ATOM      9  C   UNL     1       1.201   9.159  20.051  0.00  0.00    +0.000 A 
ATOM     10  N   UNL     1       1.786   8.171  19.290  0.00  0.00    +0.000 N 
ATOM     11  C   UNL     1       2.275   8.327  17.942  0.00  0.00    +0.000 C 
ENDBRANCH   1   2
BRANCH   1  12
ATOM     12  O   UNL     1       1.610   4.703  20.371  0.00  0.00    +0.000 OA
ATOM     13  H   UNL     1       0.735   5.098  20.558  0.00  0.00    +0.000 HD
ENDBRANCH   1  12
BRANCH   1  14
ATOM     14  C   UNL     1       3.807   5.527  19.748  0.00  0.00    +0.000 C 
BRANCH  14  17
ATOM     15  C   UNL     1       6.912   5.569  19.273  0.00  0.00    +0.000 C 
ATOM     16  N   UNL     1       5.900   5.245  18.298  0.00  0.00    +0.000 N 
ATOM     17  C   UNL     1       4.531   5.191  18.477  0.00  0.00    +0.000 A 
ATOM     18  N   UNL     1       3.930   4.855  17.349  0.00  0.00    +0.000 NA
ATOM     19  C   UNL     1       4.925   4.730  16.411  0.00  0.00    +0.000 A 
ATOM     20  C   UNL     1       4.836   4.423  15.044  0.00  0.00    +0.000 A 
ATOM     21  C   UNL     1       6.011   4.374  14.283  0.00  0.00    +0.000 A 
ATOM     22  C   UNL     1       7.252   4.622  14.870  0.00  0.00    +0.000 A 
ATOM     23  C   UNL     1       7.361   4.927  16.231  0.00  0.00    +0.000 A 
ATOM     24  C   UNL     1       6.172   4.974  16.974  0.00  0.00    +0.000 A 
ENDBRANCH  14  17
ENDBRANCH   1  14
TORSDOF 4
ENDMDL
MODEL 9
REMARK VINA RESULT:      -7.2      4.567      8.806
REMARK  Name = 
REMARK  6 active torsions:
REMARK  status: ('A' for Active; 'I' for Inactive)
REMARK    1  A    between atoms: C_1  and  N_2
REMARK    2  A    between atoms: C_3  and  C_4
REMARK    3  A    between atoms: C_4  and  C_5
REMARK    4  A    between atoms: C_5  and  O_6
REMARK    5  A    between atoms: C_5  and  C_7
REMARK    6  A    between atoms: N_15  and  C_16
REMARK                            x       y       z     vdW  Elec       q    Type
REMARK                         _______ _______ _______ _____ _____    ______ ____
ROOT
ATOM      1  C   UNL     1       2.187   7.931  20.047  0.00  0.00    +0.000 C 
ENDROOT
BRANCH   1   2
ATOM      2  C   UNL     1       2.131   6.488  19.615  0.00  0.00    +0.000 A 
ATOM      3  N   UNL     1       1.445   5.557  20.258  0.00  0.00    +0.000 NA
ATOM      4  C   UNL     1       1.698   4.381  19.598  0.00  0.00    +0.000 A 
ATOM      5  C   UNL     1       1.215   3.091  19.863  0.00  0.00    +0.000 A 
ATOM      6  C   UNL     1       1.630   2.028  19.052  0.00  0.00    +0.000 A 
ATOM      7  C   UNL     1       2.515   2.247  17.996  0.00  0.00    +0.000 A 
ATOM      8  C   UNL     1       3.007   3.527  17.716  0.00  0.00    +0.000 A 
ATOM      9  C   UNL     1       2.575   4.581  18.536  0.00  0.00    +0.000 A 
ATOM     10  N   UNL     1       2.840   5.933  18.568  0.00  0.00    +0.000 N 
ATOM     11  C   UNL     1       3.727   6.637  17.674  0.00  0.00    +0.000 C 
ENDBRANCH   1   2
BRANCH   1  12
ATOM     12  O   UNL     1       1.821   7.917  21.435  0.00  0.00    +0.000 OA
ATOM     13  H   UNL     1       1.107   8.581  21.519  0.00  0.00    +0.000 HD
ENDBRANCH   1  12
BRANCH   1  14
ATOM     14  C   UNL     1       1.179   8.782  19.259  0.00  0.00    +0.000 C 
BRANCH  14  17
ATOM     15  C   UNL     1       1.795  11.851  19.001  0.00  0.00    +0.000 C 
ATOM     16  N   UNL     1       0.907  11.233  19.954  0.00  0.00    +0.000 N 
ATOM     17  C   UNL     1       0.593   9.893  20.080  0.00  0.00    +0.000 A 
ATOM     18  N   UNL     1      -0.262   9.711  21.071  0.00  0.00    +0.000 NA
ATOM     19  C   UNL     1      -0.473  10.950  21.624  0.00  0.00    +0.000 A 
ATOM     20  C   UNL     1      -1.265  11.319  22.722  0.00  0.00    +0.000 A 
ATOM     21  C   UNL     1      -1.301  12.665  23.111  0.00  0.00    +0.000 A 
ATOM     22  C   UNL     1      -0.565  13.627  22.418  0.00  0.00    +0.000 A 
ATOM     23  C   UNL     1       0.228  13.278  21.318  0.00  0.00    +0.000 A 
ATOM     24  C   UNL     1       0.250  11.925  20.949  0.00  0.00    +0.000 A 
ENDBRANCH  14  17
ENDBRANCH   1  14
TORSDOF 4
ENDMDL
