MODEL 1
REMARK VINA RESULT:      -7.2      0.000      0.000
REMARK  Name = 
REMARK  7 active torsions:
REMARK  status: ('A' for Active; 'I' for Inactive)
REMARK    1  A    between atoms: C_1  and  C_2
REMARK    2  A    between atoms: C_4  and  C_5
REMARK    3  A    between atoms: C_8  and  N_9
REMARK    4  A    between atoms: N_9  and  C_10
REMARK    5  A    between atoms: N_9  and  S_13
REMARK    6  A    between atoms: S_13  and  C_16
REMARK    7  A    between atoms: C_19  and  C_20
REMARK                            x       y       z     vdW  Elec       q    Type
REMARK                         _______ _______ _______ _____ _____    ______ ____
ROOT
ATOM      1  N   UNL     1       5.852   4.861  16.986  0.00  0.00    +0.000 N 
ENDROOT
BRANCH   1   7
ATOM      2  C   UNL     1       2.373   7.979  18.096  0.00  0.00    +0.000 C 
ATOM      3  C   UNL     1       2.838   6.555  17.985  0.00  0.00    +0.000 A 
ATOM      4  C   UNL     1       1.952   5.512  18.240  0.00  0.00    +0.000 A 
ATOM      5  C   UNL     1       2.387   4.202  18.044  0.00  0.00    +0.000 A 
ATOM      6  C   UNL     1       3.691   3.975  17.614  0.00  0.00    +0.000 A 
ATOM      7  C   UNL     1       4.524   5.068  17.431  0.00  0.00    +0.000 A 
ATOM      8  N   UNL     1       4.126   6.346  17.597  0.00  0.00    +0.000 NA
BRANCH   5   9
ATOM      9  C   UNL     1       1.494   3.102  18.278  0.00  0.00    +0.000 C 
ATOM     10  N   UNL     1       0.758   2.217  18.456  0.00  0.00    +0.000 NA
ENDBRANCH   5   9
ENDBRANCH   1   7
BRANCH   1  11
ATOM     11  C   UNL     1       6.112   4.070  15.779  0.00  0.00    +0.000 C 
ATOM     12  C   UNL     1       5.485   4.206  14.419  0.00  0.00    +0.000 C 
ATOM     13  C   UNL     1       6.826   4.814  14.666  0.00  0.00    +0.000 C 
ENDBRANCH   1  11
BRANCH   1  14
ATOM     14  S   UNL     1       7.103   4.962  18.119  0.00  0.00    +0.000 S 
ATOM     15  O   UNL     1       6.556   4.729  19.444  0.00  0.00    +0.000 OA
ATOM     16  O   UNL     1       8.216   4.163  17.644  0.00  0.00    +0.000 OA
BRANCH  14  17
ATOM     17  C   UNL     1       7.630   6.653  18.094  0.00  0.00    +0.000 A 
ATOM     18  C   UNL     1       7.109   7.579  17.189  0.00  0.00    +0.000 A 
ATOM     19  C   UNL     1       7.529   8.910  17.272  0.00  0.00    +0.000 A 
ATOM     20  C   UNL     1       8.441   9.260  18.263  0.00  0.00    +0.000 A 
ATOM     21  N   UNL     1       8.915   8.381  19.182  0.00  0.00    +0.000 NA
ATOM     22  C   UNL     1       8.485   7.099  19.086  0.00  0.00    +0.000 A 
BRANCH  20  23
ATOM     23  C   UNL     1       8.961  10.598  18.352  0.00  0.00    +0.000 C 
ATOM     24  N   UNL     1       9.368  11.681  18.461  0.00  0.00    +0.000 NA
ENDBRANCH  20  23
ENDBRANCH  14  17
ENDBRANCH   1  14
TORSDOF 6
ENDMDL
MODEL 2
REMARK VINA RESULT:      -7.1      0.933      2.209
REMARK  Name = 
REMARK  7 active torsions:
REMARK  status: ('A' for Active; 'I' for Inactive)
REMARK    1  A    between atoms: C_1  and  C_2
REMARK    2  A    between atoms: C_4  and  C_5
REMARK    3  A    between atoms: C_8  and  N_9
REMARK    4  A    between atoms: N_9  and  C_10
REMARK    5  A    between atoms: N_9  and  S_13
REMARK    6  A    between atoms: S_13  and  C_16
REMARK    7  A    between atoms: C_19  and  C_20
REMARK                            x       y       z     vdW  Elec       q    Type
REMARK                         _______ _______ _______ _____ _____    ______ ____
ROOT
ATOM      1  N   UNL     1       5.888   4.843  16.896  0.00  0.00    +0.000 N 
ENDROOT
BRANCH   1   7
ATOM      2  C   UNL     1       1.742   2.815  18.219  0.00  0.00    +0.000 C 
ATOM      3  C   UNL     1       2.530   4.060  17.926  0.00  0.00    +0.000 A 
ATOM      4  C   UNL     1       1.956   5.311  18.132  0.00  0.00    +0.000 A 
ATOM      5  C   UNL     1       2.740   6.447  17.935  0.00  0.00    +0.000 A 
ATOM      6  C   UNL     1       4.064   6.298  17.530  0.00  0.00    +0.000 A 
ATOM      7  C   UNL     1       4.542   5.017  17.300  0.00  0.00    +0.000 A 
ATOM      8  N   UNL     1       3.812   3.901  17.498  0.00  0.00    +0.000 NA
BRANCH   5   9
ATOM      9  C   UNL     1       2.188   7.753  18.157  0.00  0.00    +0.000 C 
ATOM     10  N   UNL     1       1.753   8.817  18.347  0.00  0.00    +0.000 NA
ENDBRANCH   5   9
ENDBRANCH   1   7
BRANCH   1  11
ATOM     11  C   UNL     1       6.203   4.093  15.677  0.00  0.00    +0.000 C 
ATOM     12  C   UNL     1       5.535   4.172  14.331  0.00  0.00    +0.000 C 
ATOM     13  C   UNL     1       6.810   4.915  14.555  0.00  0.00    +0.000 C 
ENDBRANCH   1  11
BRANCH   1  14
ATOM     14  S   UNL     1       7.097   4.929  18.075  0.00  0.00    +0.000 S 
ATOM     15  O   UNL     1       6.499   4.697  19.378  0.00  0.00    +0.000 OA
ATOM     16  O   UNL     1       8.219   4.120  17.640  0.00  0.00    +0.000 OA
BRANCH  14  17
ATOM     17  C   UNL     1       7.640   6.614  18.076  0.00  0.00    +0.000 A 
ATOM     18  C   UNL     1       7.175   7.545  17.145  0.00  0.00    +0.000 A 
ATOM     19  C   UNL     1       7.602   8.872  17.248  0.00  0.00    +0.000 A 
ATOM     20  C   UNL     1       8.466   9.215  18.284  0.00  0.00    +0.000 A 
ATOM     21  N   UNL     1       8.885   8.332  19.226  0.00  0.00    +0.000 NA
ATOM     22  C   UNL     1       8.448   7.053  19.110  0.00  0.00    +0.000 A 
BRANCH  20  23
ATOM     23  C   UNL     1       8.994  10.547  18.398  0.00  0.00    +0.000 C 
ATOM     24  N   UNL     1       9.459  11.609  18.486  0.00  0.00    +0.000 NA
ENDBRANCH  20  23
ENDBRANCH  14  17
ENDBRANCH   1  14
TORSDOF 6
ENDMDL
MODEL 3
REMARK VINA RESULT:      -7.0      1.115      2.440
REMARK  Name = 
REMARK  7 active torsions:
REMARK  status: ('A' for Active; 'I' for Inactive)
REMARK    1  A    between atoms: C_1  and  C_2
REMARK    2  A    between atoms: C_4  and  C_5
REMARK    3  A    between atoms: C_8  and  N_9
REMARK    4  A    between atoms: N_9  and  C_10
REMARK    5  A    between atoms: N_9  and  S_13
REMARK    6  A    between atoms: S_13  and  C_16
REMARK    7  A    between atoms: C_19  and  C_20
REMARK                            x       y       z     vdW  Elec       q    Type
REMARK                         _______ _______ _______ _____ _____    ______ ____
ROOT
ATOM      1  N   UNL     1       5.820   4.808  16.748  0.00  0.00    +0.000 N 
ENDROOT
BRANCH   1   7
ATOM      2  C   UNL     1       1.639   2.922  18.166  0.00  0.00    +0.000 C 
ATOM      3  C   UNL     1       2.466   4.140  17.865  0.00  0.00    +0.000 A 
ATOM      4  C   UNL     1       1.945   5.410  18.100  0.00  0.00    +0.000 A 
ATOM      5  C   UNL     1       2.767   6.517  17.894  0.00  0.00    +0.000 A 
ATOM      6  C   UNL     1       4.072   6.324  17.450  0.00  0.00    +0.000 A 
ATOM      7  C   UNL     1       4.494   5.028  17.192  0.00  0.00    +0.000 A 
ATOM      8  N   UNL     1       3.728   3.938  17.398  0.00  0.00    +0.000 NA
BRANCH   5   9
ATOM      9  C   UNL     1       2.271   7.840  18.146  0.00  0.00    +0.000 C 
ATOM     10  N   UNL     1       1.853   8.910  18.342  0.00  0.00    +0.000 NA
ENDBRANCH   5   9
ENDBRANCH   1   7
BRANCH   1  11
ATOM     11  C   UNL     1       6.073   4.070  15.507  0.00  0.00    +0.000 C 
ATOM     12  C   UNL     1       5.465   4.291  14.148  0.00  0.00    +0.000 C 
ATOM     13  C   UNL     1       6.820   4.846  14.439  0.00  0.00    +0.000 C 
ENDBRANCH   1  11
BRANCH   1  14
ATOM     14  S   UNL     1       7.063   4.823  17.895  0.00  0.00    +0.000 S 
ATOM     15  O   UNL     1       6.516   4.440  19.185  0.00  0.00    +0.000 OA
ATOM     16  O   UNL     1       8.199   4.105  17.349  0.00  0.00    +0.000 OA
BRANCH  14  17
ATOM     17  C   UNL     1       7.546   6.519  18.050  0.00  0.00    +0.000 A 
ATOM     18  C   UNL     1       8.378   6.963  19.080  0.00  0.00    +0.000 A 
ATOM     19  C   UNL     1       8.765   8.306  19.101  0.00  0.00    +0.000 A 
ATOM     20  C   UNL     1       8.316   9.145  18.085  0.00  0.00    +0.000 A 
ATOM     21  N   UNL     1       7.550   8.715  17.050  0.00  0.00    +0.000 NA
ATOM     22  C   UNL     1       7.196   7.406  17.047  0.00  0.00    +0.000 A 
BRANCH  20  23
ATOM     23  C   UNL     1       8.624  10.549  18.093  0.00  0.00    +0.000 C 
ATOM     24  N   UNL     1       8.904  11.678  18.074  0.00  0.00    +0.000 NA
ENDBRANCH  20  23
ENDBRANCH  14  17
ENDBRANCH   1  14
TORSDOF 6
ENDMDL
MODEL 4
REMARK VINA RESULT:      -6.3      3.013      4.737
REMARK  Name = 
REMARK  7 active torsions:
REMARK  status: ('A' for Active; 'I' for Inactive)
REMARK    1  A    between atoms: C_1  and  C_2
REMARK    2  A    between atoms: C_4  and  C_5
REMARK    3  A    between atoms: C_8  and  N_9
REMARK    4  A    between atoms: N_9  and  C_10
REMARK    5  A    between atoms: N_9  and  S_13
REMARK    6  A    between atoms: S_13  and  C_16
REMARK    7  A    between atoms: C_19  and  C_20
REMARK                            x       y       z     vdW  Elec       q    Type
REMARK                         _______ _______ _______ _____ _____    ______ ____
ROOT
ATOM      1  N   UNL     1       3.232   4.562  19.077  0.00  0.00    +0.000 N 
ENDROOT
BRANCH   1   7
ATOM      2  C   UNL     1       2.784   8.908  17.087  0.00  0.00    +0.000 C 
ATOM      3  C   UNL     1       2.551   7.999  18.260  0.00  0.00    +0.000 A 
ATOM      4  C   UNL     1       1.834   8.457  19.363  0.00  0.00    +0.000 A 
ATOM      5  C   UNL     1       1.559   7.564  20.397  0.00  0.00    +0.000 A 
ATOM      6  C   UNL     1       2.016   6.253  20.305  0.00  0.00    +0.000 A 
ATOM      7  C   UNL     1       2.765   5.893  19.195  0.00  0.00    +0.000 A 
ATOM      8  N   UNL     1       3.033   6.730  18.172  0.00  0.00    +0.000 NA
BRANCH   5   9
ATOM      9  C   UNL     1       0.805   7.995  21.541  0.00  0.00    +0.000 C 
ATOM     10  N   UNL     1       0.193   8.361  22.461  0.00  0.00    +0.000 NA
ENDBRANCH   5   9
ENDBRANCH   1   7
BRANCH   1  11
ATOM     11  C   UNL     1       2.339   3.436  19.365  0.00  0.00    +0.000 C 
ATOM     12  C   UNL     1       0.895   3.264  18.976  0.00  0.00    +0.000 C 
ATOM     13  C   UNL     1       1.953   2.598  18.160  0.00  0.00    +0.000 C 
ENDBRANCH   1  11
BRANCH   1  14
ATOM     14  S   UNL     1       4.892   4.278  19.225  0.00  0.00    +0.000 S 
ATOM     15  O   UNL     1       5.482   5.346  20.013  0.00  0.00    +0.000 OA
ATOM     16  O   UNL     1       5.087   2.896  19.619  0.00  0.00    +0.000 OA
BRANCH  14  17
ATOM     17  C   UNL     1       5.552   4.451  17.591  0.00  0.00    +0.000 A 
ATOM     18  C   UNL     1       4.799   4.162  16.452  0.00  0.00    +0.000 A 
ATOM     19  C   UNL     1       5.368   4.382  15.194  0.00  0.00    +0.000 A 
ATOM     20  C   UNL     1       6.660   4.895  15.129  0.00  0.00    +0.000 A 
ATOM     21  N   UNL     1       7.384   5.230  16.227  0.00  0.00    +0.000 NA
ATOM     22  C   UNL     1       6.805   5.016  17.435  0.00  0.00    +0.000 A 
BRANCH  20  23
ATOM     23  C   UNL     1       7.322   5.076  13.865  0.00  0.00    +0.000 C 
ATOM     24  N   UNL     1       7.865   5.260  12.854  0.00  0.00    +0.000 NA
ENDBRANCH  20  23
ENDBRANCH  14  17
ENDBRANCH   1  14
TORSDOF 6
ENDMDL
MODEL 5
REMARK VINA RESULT:      -6.3      3.393      5.990
REMARK  Name = 
REMARK  7 active torsions:
REMARK  status: ('A' for Active; 'I' for Inactive)
REMARK    1  A    between atoms: C_1  and  C_2
REMARK    2  A    between atoms: C_4  and  C_5
REMARK    3  A    between atoms: C_8  and  N_9
REMARK    4  A    between atoms: N_9  and  C_10
REMARK    5  A    between atoms: N_9  and  S_13
REMARK    6  A    between atoms: S_13  and  C_16
REMARK    7  A    between atoms: C_19  and  C_20
REMARK                            x       y       z     vdW  Elec       q    Type
REMARK                         _______ _______ _______ _____ _____    ______ ____
ROOT
ATOM      1  N   UNL     1       3.739   3.493  18.937  0.00  0.00    +0.000 N 
ENDROOT
BRANCH   1   7
ATOM      2  C   UNL     1       7.943   5.806  19.102  0.00  0.00    +0.000 C 
ATOM      3  C   UNL     1       6.880   5.124  18.289  0.00  0.00    +0.000 A 
ATOM      4  C   UNL     1       7.059   4.946  16.919  0.00  0.00    +0.000 A 
ATOM      5  C   UNL     1       6.096   4.233  16.207  0.00  0.00    +0.000 A 
ATOM      6  C   UNL     1       4.983   3.734  16.878  0.00  0.00    +0.000 A 
ATOM      7  C   UNL     1       4.858   3.999  18.233  0.00  0.00    +0.000 A 
ATOM      8  N   UNL     1       5.781   4.671  18.951  0.00  0.00    +0.000 NA
BRANCH   5   9
ATOM      9  C   UNL     1       6.257   4.013  14.798  0.00  0.00    +0.000 C 
ATOM     10  N   UNL     1       6.387   3.851  13.652  0.00  0.00    +0.000 NA
ENDBRANCH   5   9
ENDBRANCH   1   7
BRANCH   1  11
ATOM     11  C   UNL     1       3.812   2.192  19.608  0.00  0.00    +0.000 C 
ATOM     12  C   UNL     1       4.869   1.685  20.552  0.00  0.00    +0.000 C 
ATOM     13  C   UNL     1       3.596   2.229  21.109  0.00  0.00    +0.000 C 
ENDBRANCH   1  11
BRANCH   1  14
ATOM     14  S   UNL     1       2.200   4.040  18.498  0.00  0.00    +0.000 S 
ATOM     15  O   UNL     1       2.183   4.294  17.068  0.00  0.00    +0.000 OA
ATOM     16  O   UNL     1       1.214   3.156  19.088  0.00  0.00    +0.000 OA
BRANCH  14  17
ATOM     17  C   UNL     1       2.017   5.619  19.280  0.00  0.00    +0.000 A 
ATOM     18  C   UNL     1       2.279   6.814  18.609  0.00  0.00    +0.000 A 
ATOM     19  C   UNL     1       2.051   8.023  19.273  0.00  0.00    +0.000 A 
ATOM     20  C   UNL     1       1.560   7.985  20.575  0.00  0.00    +0.000 A 
ATOM     21  N   UNL     1       1.252   6.832  21.221  0.00  0.00    +0.000 NA
ATOM     22  C   UNL     1       1.472   5.673  20.551  0.00  0.00    +0.000 A 
BRANCH  20  23
ATOM     23  C   UNL     1       1.374   9.194  21.332  0.00  0.00    +0.000 C 
ATOM     24  N   UNL     1       1.187  10.174  21.928  0.00  0.00    +0.000 NA
ENDBRANCH  20  23
ENDBRANCH  14  17
ENDBRANCH   1  14
TORSDOF 6
ENDMDL
MODEL 6
REMARK VINA RESULT:      -6.0      3.386      6.541
REMARK  Name = 
REMARK  7 active torsions:
REMARK  status: ('A' for Active; 'I' for Inactive)
REMARK    1  A    between atoms: C_1  and  C_2
REMARK    2  A    between atoms: C_4  and  C_5
REMARK    3  A    between atoms: C_8  and  N_9
REMARK    4  A    between atoms: N_9  and  C_10
REMARK    5  A    between atoms: N_9  and  S_13
REMARK    6  A    between atoms: S_13  and  C_16
REMARK    7  A    between atoms: C_19  and  C_20
REMARK                            x       y       z     vdW  Elec       q    Type
REMARK                         _______ _______ _______ _____ _____    ______ ____
ROOT
ATOM      1  N   UNL     1       3.048   5.396  17.756  0.00  0.00    +0.000 N 
ENDROOT
BRANCH   1   7
ATOM      2  C   UNL     1       7.729   5.510  18.819  0.00  0.00    +0.000 C 
ATOM      3  C   UNL     1       6.644   5.280  17.806  0.00  0.00    +0.000 A 
ATOM      4  C   UNL     1       6.970   4.835  16.527  0.00  0.00    +0.000 A 
ATOM      5  C   UNL     1       5.937   4.546  15.637  0.00  0.00    +0.000 A 
ATOM      6  C   UNL     1       4.618   4.723  16.044  0.00  0.00    +0.000 A 
ATOM      7  C   UNL     1       4.382   5.218  17.318  0.00  0.00    +0.000 A 
ATOM      8  N   UNL     1       5.361   5.489  18.205  0.00  0.00    +0.000 NA
BRANCH   5   9
ATOM      9  C   UNL     1       6.234   4.066  14.317  0.00  0.00    +0.000 C 
ATOM     10  N   UNL     1       6.460   3.681  13.241  0.00  0.00    +0.000 NA
ENDBRANCH   5   9
ENDBRANCH   1   7
BRANCH   1  11
ATOM     11  C   UNL     1       2.650   6.635  18.431  0.00  0.00    +0.000 C 
ATOM     12  C   UNL     1       3.004   8.052  18.069  0.00  0.00    +0.000 C 
ATOM     13  C   UNL     1       1.678   7.505  17.655  0.00  0.00    +0.000 C 
ENDBRANCH   1  11
BRANCH   1  14
ATOM     14  S   UNL     1       2.116   4.021  18.071  0.00  0.00    +0.000 S 
ATOM     15  O   UNL     1       1.003   4.395  18.927  0.00  0.00    +0.000 OA
ATOM     16  O   UNL     1       1.867   3.339  16.816  0.00  0.00    +0.000 OA
BRANCH  14  17
ATOM     17  C   UNL     1       3.149   2.960  19.043  0.00  0.00    +0.000 A 
ATOM     18  C   UNL     1       3.833   1.877  18.488  0.00  0.00    +0.000 A 
ATOM     19  C   UNL     1       4.678   1.123  19.307  0.00  0.00    +0.000 A 
ATOM     20  C   UNL     1       4.813   1.491  20.642  0.00  0.00    +0.000 A 
ATOM     21  N   UNL     1       4.195   2.571  21.183  0.00  0.00    +0.000 NA
ATOM     22  C   UNL     1       3.389   3.293  20.365  0.00  0.00    +0.000 A 
BRANCH  20  23
ATOM     23  C   UNL     1       5.612   0.711  21.548  0.00  0.00    +0.000 C 
ATOM     24  N   UNL     1       6.289   0.106  22.276  0.00  0.00    +0.000 NA
ENDBRANCH  20  23
ENDBRANCH  14  17
ENDBRANCH   1  14
TORSDOF 6
ENDMDL
MODEL 7
REMARK VINA RESULT:      -6.0      3.384      5.282
REMARK  Name = 
REMARK  7 active torsions:
REMARK  status: ('A' for Active; 'I' for Inactive)
REMARK    1  A    between atoms: C_1  and  C_2
REMARK    2  A    between atoms: C_4  and  C_5
REMARK    3  A    between atoms: C_8  and  N_9
REMARK    4  A    between atoms: N_9  and  C_10
REMARK    5  A    between atoms: N_9  and  S_13
REMARK    6  A    between atoms: S_13  and  C_16
REMARK    7  A    between atoms: C_19  and  C_20
REMARK                            x       y       z     vdW  Elec       q    Type
REMARK                         _______ _______ _______ _____ _____    ______ ____
ROOT
ATOM      1  N   UNL     1       3.213   4.634  19.323  0.00  0.00    +0.000 N 
ENDROOT
BRANCH   1   7
ATOM      2  C   UNL     1       2.685   8.818  17.028  0.00  0.00    +0.000 C 
ATOM      3  C   UNL     1       2.508   8.004  18.278  0.00  0.00    +0.000 A 
ATOM      4  C   UNL     1       1.850   8.551  19.376  0.00  0.00    +0.000 A 
ATOM      5  C   UNL     1       1.623   7.744  20.490  0.00  0.00    +0.000 A 
ATOM      6  C   UNL     1       2.068   6.425  20.476  0.00  0.00    +0.000 A 
ATOM      7  C   UNL     1       2.759   5.975  19.361  0.00  0.00    +0.000 A 
ATOM      8  N   UNL     1       2.978   6.728  18.265  0.00  0.00    +0.000 NA
BRANCH   5   9
ATOM      9  C   UNL     1       0.930   8.268  21.632  0.00  0.00    +0.000 C 
ATOM     10  N   UNL     1       0.383   8.697  22.567  0.00  0.00    +0.000 NA
ENDBRANCH   5   9
ENDBRANCH   1   7
BRANCH   1  11
ATOM     11  C   UNL     1       2.347   3.545  19.785  0.00  0.00    +0.000 C 
ATOM     12  C   UNL     1       0.852   3.426  19.667  0.00  0.00    +0.000 C 
ATOM     13  C   UNL     1       1.719   2.714  18.682  0.00  0.00    +0.000 C 
ENDBRANCH   1  11
BRANCH   1  14
ATOM     14  S   UNL     1       4.880   4.351  19.356  0.00  0.00    +0.000 S 
ATOM     15  O   UNL     1       5.540   5.505  19.941  0.00  0.00    +0.000 OA
ATOM     16  O   UNL     1       5.110   3.030  19.907  0.00  0.00    +0.000 OA
BRANCH  14  17
ATOM     17  C   UNL     1       5.387   4.302  17.660  0.00  0.00    +0.000 A 
ATOM     18  C   UNL     1       6.692   4.604  17.266  0.00  0.00    +0.000 A 
ATOM     19  C   UNL     1       7.033   4.483  15.916  0.00  0.00    +0.000 A 
ATOM     20  C   UNL     1       6.059   4.054  15.019  0.00  0.00    +0.000 A 
ATOM     21  N   UNL     1       4.801   3.709  15.396  0.00  0.00    +0.000 NA
ATOM     22  C   UNL     1       4.499   3.825  16.713  0.00  0.00    +0.000 A 
BRANCH  20  23
ATOM     23  C   UNL     1       6.331   3.980  13.609  0.00  0.00    +0.000 C 
ATOM     24  N   UNL     1       6.556   3.879  12.473  0.00  0.00    +0.000 NA
ENDBRANCH  20  23
ENDBRANCH  14  17
ENDBRANCH   1  14
TORSDOF 6
ENDMDL
MODEL 8
REMARK VINA RESULT:      -5.9      5.679      8.322
REMARK  Name = 
REMARK  7 active torsions:
REMARK  status: ('A' for Active; 'I' for Inactive)
REMARK    1  A    between atoms: C_1  and  C_2
REMARK    2  A    between atoms: C_4  and  C_5
REMARK    3  A    between atoms: C_8  and  N_9
REMARK    4  A    between atoms: N_9  and  C_10
REMARK    5  A    between atoms: N_9  and  S_13
REMARK    6  A    between atoms: S_13  and  C_16
REMARK    7  A    between atoms: C_19  and  C_20
REMARK                            x       y       z     vdW  Elec       q    Type
REMARK                         _______ _______ _______ _____ _____    ______ ____
ROOT
ATOM      1  N   UNL     1       0.211  11.107  19.953  0.00  0.00    +0.000 N 
ENDROOT
BRANCH   1   7
ATOM      2  C   UNL     1      -4.257  12.858  20.110  0.00  0.00    +0.000 C 
ATOM      3  C   UNL     1      -3.216  12.049  19.390  0.00  0.00    +0.000 A 
ATOM      4  C   UNL     1      -3.491  11.524  18.130  0.00  0.00    +0.000 A 
ATOM      5  C   UNL     1      -2.477  10.853  17.449  0.00  0.00    +0.000 A 
ATOM      6  C   UNL     1      -1.229  10.717  18.049  0.00  0.00    +0.000 A 
ATOM      7  C   UNL     1      -1.053  11.226  19.327  0.00  0.00    +0.000 A 
ATOM      8  N   UNL     1      -2.011  11.894  20.002  0.00  0.00    +0.000 NA
BRANCH   5   9
ATOM      9  C   UNL     1      -2.719  10.317  16.140  0.00  0.00    +0.000 C 
ATOM     10  N   UNL     1      -2.924   9.868  15.085  0.00  0.00    +0.000 NA
ENDBRANCH   5   9
ENDBRANCH   1   7
BRANCH   1  11
ATOM     11  C   UNL     1       1.375  11.812  19.410  0.00  0.00    +0.000 C 
ATOM     12  C   UNL     1       1.417  13.133  18.691  0.00  0.00    +0.000 C 
ATOM     13  C   UNL     1       1.756  13.084  20.145  0.00  0.00    +0.000 C 
ENDBRANCH   1  11
BRANCH   1  14
ATOM     14  S   UNL     1       0.517   9.729  20.885  0.00  0.00    +0.000 S 
ATOM     15  O   UNL     1       1.412  10.087  21.972  0.00  0.00    +0.000 OA
ATOM     16  O   UNL     1      -0.747   9.080  21.172  0.00  0.00    +0.000 OA
BRANCH  14  17
ATOM     17  C   UNL     1       1.434   8.639  19.833  0.00  0.00    +0.000 A 
ATOM     18  C   UNL     1       1.784   8.987  18.527  0.00  0.00    +0.000 A 
ATOM     19  C   UNL     1       2.562   8.099  17.779  0.00  0.00    +0.000 A 
ATOM     20  C   UNL     1       2.967   6.906  18.371  0.00  0.00    +0.000 A 
ATOM     21  N   UNL     1       2.678   6.579  19.656  0.00  0.00    +0.000 NA
ATOM     22  C   UNL     1       1.931   7.462  20.364  0.00  0.00    +0.000 A 
BRANCH  20  23
ATOM     23  C   UNL     1       3.708   5.924  17.628  0.00  0.00    +0.000 C 
ATOM     24  N   UNL     1       4.272   5.111  17.017  0.00  0.00    +0.000 NA
ENDBRANCH  20  23
ENDBRANCH  14  17
ENDBRANCH   1  14
TORSDOF 6
ENDMDL
MODEL 9
REMARK VINA RESULT:      -5.8      9.049     12.112
REMARK  Name = 
REMARK  7 active torsions:
REMARK  status: ('A' for Active; 'I' for Inactive)
REMARK    1  A    between atoms: C_1  and  C_2
REMARK    2  A    between atoms: C_4  and  C_5
REMARK    3  A    between atoms: C_8  and  N_9
REMARK    4  A    between atoms: N_9  and  C_10
REMARK    5  A    between atoms: N_9  and  S_13
REMARK    6  A    between atoms: S_13  and  C_16
REMARK    7  A    between atoms: C_19  and  C_20
REMARK                            x       y       z     vdW  Elec       q    Type
REMARK                         _______ _______ _______ _____ _____    ______ ____
ROOT
ATOM      1  N   UNL     1      -0.858  13.632  20.807  0.00  0.00    +0.000 N 
ENDROOT
BRANCH   1   7
ATOM      2  C   UNL     1      -3.743  11.075  17.946  0.00  0.00    +0.000 C 
ATOM      3  C   UNL     1      -2.385  11.279  18.554  0.00  0.00    +0.000 A 
ATOM      4  C   UNL     1      -1.325  10.455  18.182  0.00  0.00    +0.000 A 
ATOM      5  C   UNL     1      -0.058  10.724  18.695  0.00  0.00    +0.000 A 
ATOM      6  C   UNL     1       0.110  11.794  19.569  0.00  0.00    +0.000 A 
ATOM      7  C   UNL     1      -1.007  12.534  19.926  0.00  0.00    +0.000 A 
ATOM      8  N   UNL     1      -2.241  12.307  19.433  0.00  0.00    +0.000 NA
BRANCH   5   9
ATOM      9  C   UNL     1       1.062   9.908  18.318  0.00  0.00    +0.000 C 
ATOM     10  N   UNL     1       1.960   9.232  18.013  0.00  0.00    +0.000 NA
ENDBRANCH   5   9
ENDBRANCH   1   7
BRANCH   1  11
ATOM     11  C   UNL     1      -0.143  14.836  20.375  0.00  0.00    +0.000 C 
ATOM     12  C   UNL     1      -0.088  15.448  19.001  0.00  0.00    +0.000 C 
ATOM     13  C   UNL     1      -1.028  16.014  20.013  0.00  0.00    +0.000 C 
ENDBRANCH   1  11
BRANCH   1  14
ATOM     14  S   UNL     1      -0.927  13.341  22.472  0.00  0.00    +0.000 S 
ATOM     15  O   UNL     1      -0.440  11.998  22.733  0.00  0.00    +0.000 OA
ATOM     16  O   UNL     1      -0.335  14.472  23.159  0.00  0.00    +0.000 OA
BRANCH  14  17
ATOM     17  C   UNL     1      -2.650  13.328  22.880  0.00  0.00    +0.000 A 
ATOM     18  C   UNL     1      -3.533  14.299  22.404  0.00  0.00    +0.000 A 
ATOM     19  C   UNL     1      -4.890  14.187  22.719  0.00  0.00    +0.000 A 
ATOM     20  C   UNL     1      -5.309  13.103  23.486  0.00  0.00    +0.000 A 
ATOM     21  N   UNL     1      -4.470  12.125  23.911  0.00  0.00    +0.000 NA
ATOM     22  C   UNL     1      -3.160  12.251  23.584  0.00  0.00    +0.000 A 
BRANCH  20  23
ATOM     23  C   UNL     1      -6.680  12.974  23.900  0.00  0.00    +0.000 C 
ATOM     24  N   UNL     1      -7.799  12.866  24.196  0.00  0.00    +0.000 NA
ENDBRANCH  20  23
ENDBRANCH  14  17
ENDBRANCH   1  14
TORSDOF 6
ENDMDL
