MODEL 1
REMARK VINA RESULT:      -8.3      0.000      0.000
REMARK  Name = 
REMARK  11 active torsions:
REMARK  status: ('A' for Active; 'I' for Inactive)
REMARK    1  A    between atoms: C_1  and  N_2
REMARK    2  A    between atoms: C_6  and  C_7
REMARK    3  A    between atoms: C_7  and  O_9
REMARK    4  A    between atoms: O_9  and  C_10
REMARK    5  A    between atoms: C_10  and  C_11
REMARK    6  A    between atoms: N_13  and  C_14
REMARK    7  A    between atoms: C_16  and  C_17
REMARK    8  A    between atoms: C_17  and  C_18
REMARK    9  A    between atoms: C_17  and  C_19
REMARK   10  A    between atoms: C_17  and  C_20
REMARK   11  A    between atoms: N_22  and  C_23
REMARK                            x       y       z     vdW  Elec       q    Type
REMARK                         _______ _______ _______ _____ _____    ______ ____
ROOT
ATOM      1  C   UNL     1       2.948   5.940  18.104  0.00  0.00    +0.000 A 
ATOM      2  C   UNL     1       1.992   5.017  18.449  0.00  0.00    +0.000 A 
ATOM      3  C   UNL     1       2.699   3.833  18.782  0.00  0.00    +0.000 A 
ATOM      4  N   UNL     1       4.013   3.997  18.583  0.00  0.00    +0.000 NA
ATOM      5  N   UNL     1       4.166   5.315  18.300  0.00  0.00    +0.000 N 
ENDROOT
BRANCH   5   6
ATOM      6  C   UNL     1       5.461   5.880  18.241  0.00  0.00    +0.000 A 
ATOM      7  C   UNL     1       6.462   5.437  19.110  0.00  0.00    +0.000 A 
ATOM      8  C   UNL     1       7.719   6.036  19.075  0.00  0.00    +0.000 A 
ATOM      9  C   UNL     1       7.980   7.065  18.171  0.00  0.00    +0.000 A 
ATOM     10  C   UNL     1       6.989   7.497  17.292  0.00  0.00    +0.000 A 
ATOM     11  C   UNL     1       5.725   6.907  17.323  0.00  0.00    +0.000 A 
ENDBRANCH   5   6
BRANCH   1  14
ATOM     12  C   UNL     1       2.185   8.197  18.698  0.00  0.00    +0.000 C 
ATOM     13  O   UNL     1       1.972   7.838  19.841  0.00  0.00    +0.000 OA
ATOM     14  N   UNL     1       2.688   7.260  17.723  0.00  0.00    +0.000 N 
ATOM     15  H   UNL     1       2.854   7.548  16.760  0.00  0.00    +0.000 HD
BRANCH  12  16
ATOM     16  C   UNL     1       1.922   9.601  18.190  0.00  0.00    +0.000 C 
BRANCH  16  17
ATOM     17  O   UNL     1       0.554   9.696  17.768  0.00  0.00    +0.000 OA
BRANCH  17  18
ATOM     18  C   UNL     1      -0.255  10.325  18.696  0.00  0.00    +0.000 C 
ATOM     19  O   UNL     1       0.117  10.642  19.794  0.00  0.00    +0.000 OA
BRANCH  18  25
ATOM     20  C   UNL     1      -2.485  12.351  19.684  0.00  0.00    +0.000 C 
ATOM     21  N   UNL     1      -2.541  11.457  18.542  0.00  0.00    +0.000 N 
ATOM     22  C   UNL     1      -3.638  11.384  17.716  0.00  0.00    +0.000 A 
ATOM     23  C   UNL     1      -3.391  10.439  16.751  0.00  0.00    +0.000 A 
ATOM     24  C   UNL     1      -2.102   9.931  16.999  0.00  0.00    +0.000 A 
ATOM     25  C   UNL     1      -1.567  10.569  18.108  0.00  0.00    +0.000 A 
ENDBRANCH  18  25
ENDBRANCH  17  18
ENDBRANCH  16  17
ENDBRANCH  12  16
ENDBRANCH   1  14
BRANCH   3  26
ATOM     26  C   UNL     1       2.146   2.506  19.294  0.00  0.00    +0.000 C 
ATOM     27  C   UNL     1       3.031   1.336  18.828  0.00  0.00    +0.000 C 
ATOM     28  C   UNL     1       2.078   2.497  20.837  0.00  0.00    +0.000 C 
ATOM     29  C   UNL     1       0.715   2.266  18.765  0.00  0.00    +0.000 C 
ENDBRANCH   3  26
TORSDOF 7
ENDMDL
MODEL 2
REMARK VINA RESULT:      -8.2      1.953      4.698
REMARK  Name = 
REMARK  11 active torsions:
REMARK  status: ('A' for Active; 'I' for Inactive)
REMARK    1  A    between atoms: C_1  and  N_2
REMARK    2  A    between atoms: C_6  and  C_7
REMARK    3  A    between atoms: C_7  and  O_9
REMARK    4  A    between atoms: O_9  and  C_10
REMARK    5  A    between atoms: C_10  and  C_11
REMARK    6  A    between atoms: N_13  and  C_14
REMARK    7  A    between atoms: C_16  and  C_17
REMARK    8  A    between atoms: C_17  and  C_18
REMARK    9  A    between atoms: C_17  and  C_19
REMARK   10  A    between atoms: C_17  and  C_20
REMARK   11  A    between atoms: N_22  and  C_23
REMARK                            x       y       z     vdW  Elec       q    Type
REMARK                         _______ _______ _______ _____ _____    ______ ____
ROOT
ATOM      1  C   UNL     1       3.266   6.670  17.942  0.00  0.00    +0.000 A 
ATOM      2  C   UNL     1       4.436   7.045  17.331  0.00  0.00    +0.000 A 
ATOM      3  C   UNL     1       5.404   6.084  17.720  0.00  0.00    +0.000 A 
ATOM      4  N   UNL     1       4.875   5.206  18.582  0.00  0.00    +0.000 NA
ATOM      5  N   UNL     1       3.548   5.490  18.608  0.00  0.00    +0.000 N 
ENDROOT
BRANCH   5   6
ATOM      6  C   UNL     1       2.649   4.615  19.259  0.00  0.00    +0.000 A 
ATOM      7  C   UNL     1       2.588   4.581  20.656  0.00  0.00    +0.000 A 
ATOM      8  C   UNL     1       1.733   3.680  21.286  0.00  0.00    +0.000 A 
ATOM      9  C   UNL     1       0.935   2.823  20.528  0.00  0.00    +0.000 A 
ATOM     10  C   UNL     1       0.981   2.867  19.135  0.00  0.00    +0.000 A 
ATOM     11  C   UNL     1       1.839   3.763  18.495  0.00  0.00    +0.000 A 
ENDBRANCH   5   6
BRANCH   1  14
ATOM     12  C   UNL     1       2.001   8.774  17.923  0.00  0.00    +0.000 C 
ATOM     13  O   UNL     1       3.018   9.403  18.143  0.00  0.00    +0.000 OA
ATOM     14  N   UNL     1       2.043   7.335  17.814  0.00  0.00    +0.000 N 
ATOM     15  H   UNL     1       1.194   6.800  17.647  0.00  0.00    +0.000 HD
BRANCH  12  16
ATOM     16  C   UNL     1       0.630   9.407  17.782  0.00  0.00    +0.000 C 
BRANCH  16  17
ATOM     17  O   UNL     1       0.481  10.426  18.782  0.00  0.00    +0.000 OA
BRANCH  17  18
ATOM     18  C   UNL     1      -0.774  10.436  19.360  0.00  0.00    +0.000 C 
ATOM     19  O   UNL     1      -1.793  10.548  18.732  0.00  0.00    +0.000 OA
BRANCH  18  25
ATOM     20  C   UNL     1      -1.545  12.464  21.673  0.00  0.00    +0.000 C 
ATOM     21  N   UNL     1      -0.985  11.131  21.810  0.00  0.00    +0.000 N 
ATOM     22  C   UNL     1      -0.707  10.571  23.034  0.00  0.00    +0.000 A 
ATOM     23  C   UNL     1      -0.173   9.323  22.828  0.00  0.00    +0.000 A 
ATOM     24  C   UNL     1      -0.134   9.122  21.436  0.00  0.00    +0.000 A 
ATOM     25  C   UNL     1      -0.646  10.243  20.800  0.00  0.00    +0.000 A 
ENDBRANCH  18  25
ENDBRANCH  17  18
ENDBRANCH  16  17
ENDBRANCH  12  16
ENDBRANCH   1  14
BRANCH   3  26
ATOM     26  C   UNL     1       6.863   5.973  17.290  0.00  0.00    +0.000 C 
ATOM     27  C   UNL     1       6.964   5.414  15.859  0.00  0.00    +0.000 C 
ATOM     28  C   UNL     1       7.556   7.353  17.336  0.00  0.00    +0.000 C 
ATOM     29  C   UNL     1       7.644   5.030  18.231  0.00  0.00    +0.000 C 
ENDBRANCH   3  26
TORSDOF 7
ENDMDL
MODEL 3
REMARK VINA RESULT:      -8.2      1.560      2.537
REMARK  Name = 
REMARK  11 active torsions:
REMARK  status: ('A' for Active; 'I' for Inactive)
REMARK    1  A    between atoms: C_1  and  N_2
REMARK    2  A    between atoms: C_6  and  C_7
REMARK    3  A    between atoms: C_7  and  O_9
REMARK    4  A    between atoms: O_9  and  C_10
REMARK    5  A    between atoms: C_10  and  C_11
REMARK    6  A    between atoms: N_13  and  C_14
REMARK    7  A    between atoms: C_16  and  C_17
REMARK    8  A    between atoms: C_17  and  C_18
REMARK    9  A    between atoms: C_17  and  C_19
REMARK   10  A    between atoms: C_17  and  C_20
REMARK   11  A    between atoms: N_22  and  C_23
REMARK                            x       y       z     vdW  Elec       q    Type
REMARK                         _______ _______ _______ _____ _____    ______ ____
ROOT
ATOM      1  C   UNL     1       2.927   5.936  18.087  0.00  0.00    +0.000 A 
ATOM      2  C   UNL     1       2.004   4.972  18.411  0.00  0.00    +0.000 A 
ATOM      3  C   UNL     1       2.751   3.807  18.719  0.00  0.00    +0.000 A 
ATOM      4  N   UNL     1       4.059   4.021  18.526  0.00  0.00    +0.000 NA
ATOM      5  N   UNL     1       4.167   5.349  18.271  0.00  0.00    +0.000 N 
ENDROOT
BRANCH   5   6
ATOM      6  C   UNL     1       5.440   5.961  18.226  0.00  0.00    +0.000 A 
ATOM      7  C   UNL     1       5.705   6.969  17.294  0.00  0.00    +0.000 A 
ATOM      8  C   UNL     1       6.978   7.529  17.227  0.00  0.00    +0.000 A 
ATOM      9  C   UNL     1       7.981   7.094  18.093  0.00  0.00    +0.000 A 
ATOM     10  C   UNL     1       7.716   6.102  19.036  0.00  0.00    +0.000 A 
ATOM     11  C   UNL     1       6.444   5.531  19.106  0.00  0.00    +0.000 A 
ENDBRANCH   5   6
BRANCH   1  14
ATOM     12  C   UNL     1       2.175   8.178  18.749  0.00  0.00    +0.000 C 
ATOM     13  O   UNL     1       2.048   7.809  19.901  0.00  0.00    +0.000 OA
ATOM     14  N   UNL     1       2.622   7.254  17.734  0.00  0.00    +0.000 N 
ATOM     15  H   UNL     1       2.715   7.549  16.765  0.00  0.00    +0.000 HD
BRANCH  12  16
ATOM     16  C   UNL     1       1.856   9.580  18.271  0.00  0.00    +0.000 C 
BRANCH  16  17
ATOM     17  O   UNL     1       1.402  10.362  19.386  0.00  0.00    +0.000 OA
BRANCH  17  18
ATOM     18  C   UNL     1       0.025  10.424  19.477  0.00  0.00    +0.000 C 
ATOM     19  O   UNL     1      -0.706  10.373  18.524  0.00  0.00    +0.000 OA
BRANCH  18  25
ATOM     20  C   UNL     1      -1.711  12.672  20.887  0.00  0.00    +0.000 C 
ATOM     21  N   UNL     1      -1.125  11.491  21.494  0.00  0.00    +0.000 N 
ATOM     22  C   UNL     1      -1.265  11.204  22.831  0.00  0.00    +0.000 A 
ATOM     23  C   UNL     1      -0.584  10.042  23.098  0.00  0.00    +0.000 A 
ATOM     24  C   UNL     1      -0.023   9.610  21.882  0.00  0.00    +0.000 A 
ATOM     25  C   UNL     1      -0.365  10.507  20.880  0.00  0.00    +0.000 A 
ENDBRANCH  18  25
ENDBRANCH  17  18
ENDBRANCH  16  17
ENDBRANCH  12  16
ENDBRANCH   1  14
BRANCH   3  26
ATOM     26  C   UNL     1       2.245   2.451  19.201  0.00  0.00    +0.000 C 
ATOM     27  C   UNL     1       0.801   2.212  18.725  0.00  0.00    +0.000 C 
ATOM     28  C   UNL     1       3.141   1.309  18.672  0.00  0.00    +0.000 C 
ATOM     29  C   UNL     1       2.260   2.375  20.744  0.00  0.00    +0.000 C 
ENDBRANCH   3  26
TORSDOF 7
ENDMDL
MODEL 4
REMARK VINA RESULT:      -8.2      3.486      7.296
REMARK  Name = 
REMARK  11 active torsions:
REMARK  status: ('A' for Active; 'I' for Inactive)
REMARK    1  A    between atoms: C_1  and  N_2
REMARK    2  A    between atoms: C_6  and  C_7
REMARK    3  A    between atoms: C_7  and  O_9
REMARK    4  A    between atoms: O_9  and  C_10
REMARK    5  A    between atoms: C_10  and  C_11
REMARK    6  A    between atoms: N_13  and  C_14
REMARK    7  A    between atoms: C_16  and  C_17
REMARK    8  A    between atoms: C_17  and  C_18
REMARK    9  A    between atoms: C_17  and  C_19
REMARK   10  A    between atoms: C_17  and  C_20
REMARK   11  A    between atoms: N_22  and  C_23
REMARK                            x       y       z     vdW  Elec       q    Type
REMARK                         _______ _______ _______ _____ _____    ______ ____
ROOT
ATOM      1  C   UNL     1       3.863   5.541  18.571  0.00  0.00    +0.000 A 
ATOM      2  C   UNL     1       3.735   4.179  18.695  0.00  0.00    +0.000 A 
ATOM      3  C   UNL     1       2.505   3.964  19.368  0.00  0.00    +0.000 A 
ATOM      4  N   UNL     1       1.941   5.131  19.703  0.00  0.00    +0.000 NA
ATOM      5  N   UNL     1       2.703   6.079  19.101  0.00  0.00    +0.000 N 
ENDROOT
BRANCH   5   6
ATOM      6  C   UNL     1       2.269   7.424  19.071  0.00  0.00    +0.000 A 
ATOM      7  C   UNL     1       1.709   8.008  20.211  0.00  0.00    +0.000 A 
ATOM      8  C   UNL     1       1.240   9.319  20.154  0.00  0.00    +0.000 A 
ATOM      9  C   UNL     1       1.338  10.047  18.969  0.00  0.00    +0.000 A 
ATOM     10  C   UNL     1       1.912   9.473  17.836  0.00  0.00    +0.000 A 
ATOM     11  C   UNL     1       2.379   8.159  17.882  0.00  0.00    +0.000 A 
ENDBRANCH   5   6
BRANCH   1  14
ATOM     12  C   UNL     1       6.276   5.967  18.419  0.00  0.00    +0.000 C 
ATOM     13  O   UNL     1       6.479   5.228  19.362  0.00  0.00    +0.000 OA
ATOM     14  N   UNL     1       4.930   6.193  17.948  0.00  0.00    +0.000 N 
ATOM     15  H   UNL     1       4.749   6.824  17.169  0.00  0.00    +0.000 HD
BRANCH  12  16
ATOM     16  C   UNL     1       7.366   6.727  17.690  0.00  0.00    +0.000 C 
BRANCH  16  17
ATOM     17  O   UNL     1       7.356   6.347  16.306  0.00  0.00    +0.000 OA
BRANCH  17  18
ATOM     18  C   UNL     1       7.544   4.991  16.118  0.00  0.00    +0.000 C 
ATOM     19  O   UNL     1       8.163   4.295  16.878  0.00  0.00    +0.000 OA
BRANCH  18  25
ATOM     20  C   UNL     1       8.385   5.493  13.101  0.00  0.00    +0.000 C 
ATOM     21  N   UNL     1       7.214   4.787  13.592  0.00  0.00    +0.000 N 
ATOM     22  C   UNL     1       6.282   4.230  12.748  0.00  0.00    +0.000 A 
ATOM     23  C   UNL     1       5.295   3.658  13.512  0.00  0.00    +0.000 A 
ATOM     24  C   UNL     1       5.645   3.872  14.858  0.00  0.00    +0.000 A 
ATOM     25  C   UNL     1       6.844   4.567  14.911  0.00  0.00    +0.000 A 
ENDBRANCH  18  25
ENDBRANCH  17  18
ENDBRANCH  16  17
ENDBRANCH  12  16
ENDBRANCH   1  14
BRANCH   3  26
ATOM     26  C   UNL     1       1.830   2.642  19.718  0.00  0.00    +0.000 C 
ATOM     27  C   UNL     1       1.536   2.568  21.228  0.00  0.00    +0.000 C 
ATOM     28  C   UNL     1       0.503   2.479  18.944  0.00  0.00    +0.000 C 
ATOM     29  C   UNL     1       2.735   1.446  19.346  0.00  0.00    +0.000 C 
ENDBRANCH   3  26
TORSDOF 7
ENDMDL
MODEL 5
REMARK VINA RESULT:      -8.1      0.603      1.032
REMARK  Name = 
REMARK  11 active torsions:
REMARK  status: ('A' for Active; 'I' for Inactive)
REMARK    1  A    between atoms: C_1  and  N_2
REMARK    2  A    between atoms: C_6  and  C_7
REMARK    3  A    between atoms: C_7  and  O_9
REMARK    4  A    between atoms: O_9  and  C_10
REMARK    5  A    between atoms: C_10  and  C_11
REMARK    6  A    between atoms: N_13  and  C_14
REMARK    7  A    between atoms: C_16  and  C_17
REMARK    8  A    between atoms: C_17  and  C_18
REMARK    9  A    between atoms: C_17  and  C_19
REMARK   10  A    between atoms: C_17  and  C_20
REMARK   11  A    between atoms: N_22  and  C_23
REMARK                            x       y       z     vdW  Elec       q    Type
REMARK                         _______ _______ _______ _____ _____    ______ ____
ROOT
ATOM      1  C   UNL     1       2.983   5.964  18.124  0.00  0.00    +0.000 A 
ATOM      2  C   UNL     1       2.043   5.019  18.455  0.00  0.00    +0.000 A 
ATOM      3  C   UNL     1       2.767   3.830  18.725  0.00  0.00    +0.000 A 
ATOM      4  N   UNL     1       4.075   4.013  18.503  0.00  0.00    +0.000 NA
ATOM      5  N   UNL     1       4.211   5.343  18.267  0.00  0.00    +0.000 N 
ENDROOT
BRANCH   5   6
ATOM      6  C   UNL     1       5.499   5.922  18.201  0.00  0.00    +0.000 A 
ATOM      7  C   UNL     1       6.504   5.507  19.080  0.00  0.00    +0.000 A 
ATOM      8  C   UNL     1       7.754   6.119  19.037  0.00  0.00    +0.000 A 
ATOM      9  C   UNL     1       8.005   7.134  18.115  0.00  0.00    +0.000 A 
ATOM     10  C   UNL     1       7.011   7.538  17.224  0.00  0.00    +0.000 A 
ATOM     11  C   UNL     1       5.754   6.933  17.264  0.00  0.00    +0.000 A 
ENDBRANCH   5   6
BRANCH   1  14
ATOM     12  C   UNL     1       2.145   8.170  18.803  0.00  0.00    +0.000 C 
ATOM     13  O   UNL     1       1.900   7.748  19.917  0.00  0.00    +0.000 OA
ATOM     14  N   UNL     1       2.704   7.295  17.800  0.00  0.00    +0.000 N 
ATOM     15  H   UNL     1       2.896   7.635  16.860  0.00  0.00    +0.000 HD
BRANCH  12  16
ATOM     16  C   UNL     1       1.864   9.591  18.356  0.00  0.00    +0.000 C 
BRANCH  16  17
ATOM     17  O   UNL     1       0.873  10.165  19.222  0.00  0.00    +0.000 OA
BRANCH  17  18
ATOM     18  C   UNL     1       0.291  11.303  18.696  0.00  0.00    +0.000 C 
ATOM     19  O   UNL     1       0.882  12.338  18.539  0.00  0.00    +0.000 OA
BRANCH  18  25
ATOM     20  C   UNL     1      -2.340  12.630  19.867  0.00  0.00    +0.000 C 
ATOM     21  N   UNL     1      -2.242  11.600  18.847  0.00  0.00    +0.000 N 
ATOM     22  C   UNL     1      -3.350  11.051  18.246  0.00  0.00    +0.000 A 
ATOM     23  C   UNL     1      -2.929  10.099  17.351  0.00  0.00    +0.000 A 
ATOM     24  C   UNL     1      -1.523  10.078  17.409  0.00  0.00    +0.000 A 
ATOM     25  C   UNL     1      -1.092  11.018  18.335  0.00  0.00    +0.000 A 
ENDBRANCH  18  25
ENDBRANCH  17  18
ENDBRANCH  16  17
ENDBRANCH  12  16
ENDBRANCH   1  14
BRANCH   3  26
ATOM     26  C   UNL     1       2.238   2.480  19.198  0.00  0.00    +0.000 C 
ATOM     27  C   UNL     1       2.233   2.408  20.736  0.00  0.00    +0.000 C 
ATOM     28  C   UNL     1       0.801   2.241  18.683  0.00  0.00    +0.000 C 
ATOM     29  C   UNL     1       3.118   1.327  18.666  0.00  0.00    +0.000 C 
ENDBRANCH   3  26
TORSDOF 7
ENDMDL
MODEL 6
REMARK VINA RESULT:      -8.0      1.653      2.635
REMARK  Name = 
REMARK  11 active torsions:
REMARK  status: ('A' for Active; 'I' for Inactive)
REMARK    1  A    between atoms: C_1  and  N_2
REMARK    2  A    between atoms: C_6  and  C_7
REMARK    3  A    between atoms: C_7  and  O_9
REMARK    4  A    between atoms: O_9  and  C_10
REMARK    5  A    between atoms: C_10  and  C_11
REMARK    6  A    between atoms: N_13  and  C_14
REMARK    7  A    between atoms: C_16  and  C_17
REMARK    8  A    between atoms: C_17  and  C_18
REMARK    9  A    between atoms: C_17  and  C_19
REMARK   10  A    between atoms: C_17  and  C_20
REMARK   11  A    between atoms: N_22  and  C_23
REMARK                            x       y       z     vdW  Elec       q    Type
REMARK                         _______ _______ _______ _____ _____    ______ ____
ROOT
ATOM      1  C   UNL     1       2.788   5.925  18.103  0.00  0.00    +0.000 A 
ATOM      2  C   UNL     1       1.841   4.997  18.460  0.00  0.00    +0.000 A 
ATOM      3  C   UNL     1       2.559   3.828  18.819  0.00  0.00    +0.000 A 
ATOM      4  N   UNL     1       3.873   4.004  18.625  0.00  0.00    +0.000 NA
ATOM      5  N   UNL     1       4.013   5.318  18.317  0.00  0.00    +0.000 N 
ENDROOT
BRANCH   5   6
ATOM      6  C   UNL     1       5.301   5.897  18.256  0.00  0.00    +0.000 A 
ATOM      7  C   UNL     1       5.593   6.861  17.286  0.00  0.00    +0.000 A 
ATOM      8  C   UNL     1       6.880   7.388  17.204  0.00  0.00    +0.000 A 
ATOM      9  C   UNL     1       7.868   6.965  18.093  0.00  0.00    +0.000 A 
ATOM     10  C   UNL     1       7.574   6.018  19.073  0.00  0.00    +0.000 A 
ATOM     11  C   UNL     1       6.289   5.480  19.158  0.00  0.00    +0.000 A 
ENDBRANCH   5   6
BRANCH   1  14
ATOM     12  C   UNL     1       2.164   8.228  18.680  0.00  0.00    +0.000 C 
ATOM     13  O   UNL     1       2.087   7.927  19.855  0.00  0.00    +0.000 OA
ATOM     14  N   UNL     1       2.516   7.234  17.695  0.00  0.00    +0.000 N 
ATOM     15  H   UNL     1       2.566   7.474  16.706  0.00  0.00    +0.000 HD
BRANCH  12  16
ATOM     16  C   UNL     1       1.874   9.616  18.143  0.00  0.00    +0.000 C 
BRANCH  16  17
ATOM     17  O   UNL     1       1.427  10.451  19.222  0.00  0.00    +0.000 OA
BRANCH  17  18
ATOM     18  C   UNL     1       0.050  10.541  19.300  0.00  0.00    +0.000 C 
ATOM     19  O   UNL     1      -0.685  10.276  18.387  0.00  0.00    +0.000 OA
BRANCH  18  25
ATOM     20  C   UNL     1      -0.368   8.697  21.846  0.00  0.00    +0.000 C 
ATOM     21  N   UNL     1      -0.514  10.140  21.760  0.00  0.00    +0.000 N 
ATOM     22  C   UNL     1      -0.877  10.909  22.840  0.00  0.00    +0.000 A 
ATOM     23  C   UNL     1      -0.949  12.218  22.434  0.00  0.00    +0.000 A 
ATOM     24  C   UNL     1      -0.611  12.240  21.067  0.00  0.00    +0.000 A 
ATOM     25  C   UNL     1      -0.333  10.948  20.647  0.00  0.00    +0.000 A 
ENDBRANCH  18  25
ENDBRANCH  17  18
ENDBRANCH  16  17
ENDBRANCH  12  16
ENDBRANCH   1  14
BRANCH   3  26
ATOM     26  C   UNL     1       2.019   2.505  19.353  0.00  0.00    +0.000 C 
ATOM     27  C   UNL     1       0.663   2.173  18.704  0.00  0.00    +0.000 C 
ATOM     28  C   UNL     1       3.005   1.352  19.065  0.00  0.00    +0.000 C 
ATOM     29  C   UNL     1       1.817   2.571  20.883  0.00  0.00    +0.000 C 
ENDBRANCH   3  26
TORSDOF 7
ENDMDL
MODEL 7
REMARK VINA RESULT:      -8.0      1.878      2.497
REMARK  Name = 
REMARK  11 active torsions:
REMARK  status: ('A' for Active; 'I' for Inactive)
REMARK    1  A    between atoms: C_1  and  N_2
REMARK    2  A    between atoms: C_6  and  C_7
REMARK    3  A    between atoms: C_7  and  O_9
REMARK    4  A    between atoms: O_9  and  C_10
REMARK    5  A    between atoms: C_10  and  C_11
REMARK    6  A    between atoms: N_13  and  C_14
REMARK    7  A    between atoms: C_16  and  C_17
REMARK    8  A    between atoms: C_17  and  C_18
REMARK    9  A    between atoms: C_17  and  C_19
REMARK   10  A    between atoms: C_17  and  C_20
REMARK   11  A    between atoms: N_22  and  C_23
REMARK                            x       y       z     vdW  Elec       q    Type
REMARK                         _______ _______ _______ _____ _____    ______ ____
ROOT
ATOM      1  C   UNL     1       2.899   5.949  18.249  0.00  0.00    +0.000 A 
ATOM      2  C   UNL     1       1.965   4.995  18.570  0.00  0.00    +0.000 A 
ATOM      3  C   UNL     1       2.694   3.803  18.810  0.00  0.00    +0.000 A 
ATOM      4  N   UNL     1       3.999   3.994  18.580  0.00  0.00    +0.000 NA
ATOM      5  N   UNL     1       4.130   5.328  18.369  0.00  0.00    +0.000 N 
ENDROOT
BRANCH   5   6
ATOM      6  C   UNL     1       5.416   5.912  18.302  0.00  0.00    +0.000 A 
ATOM      7  C   UNL     1       5.687   6.911  17.363  0.00  0.00    +0.000 A 
ATOM      8  C   UNL     1       6.971   7.443  17.275  0.00  0.00    +0.000 A 
ATOM      9  C   UNL     1       7.978   6.989  18.127  0.00  0.00    +0.000 A 
ATOM     10  C   UNL     1       7.705   6.006  19.077  0.00  0.00    +0.000 A 
ATOM     11  C   UNL     1       6.423   5.463  19.168  0.00  0.00    +0.000 A 
ENDBRANCH   5   6
BRANCH   1  14
ATOM     12  C   UNL     1       2.133   8.158  18.997  0.00  0.00    +0.000 C 
ATOM     13  O   UNL     1       1.960   7.731  20.123  0.00  0.00    +0.000 OA
ATOM     14  N   UNL     1       2.614   7.285  17.954  0.00  0.00    +0.000 N 
ATOM     15  H   UNL     1       2.745   7.630  17.005  0.00  0.00    +0.000 HD
BRANCH  12  16
ATOM     16  C   UNL     1       1.839   9.586  18.581  0.00  0.00    +0.000 C 
BRANCH  16  17
ATOM     17  O   UNL     1       0.649  10.031  19.249  0.00  0.00    +0.000 OA
BRANCH  17  18
ATOM     18  C   UNL     1       0.877  11.090  20.107  0.00  0.00    +0.000 C 
ATOM     19  O   UNL     1       1.633  11.992  19.863  0.00  0.00    +0.000 OA
BRANCH  18  25
ATOM     20  C   UNL     1      -1.484  12.986  21.052  0.00  0.00    +0.000 C 
ATOM     21  N   UNL     1      -1.002  11.778  21.697  0.00  0.00    +0.000 N 
ATOM     22  C   UNL     1      -1.548  11.298  22.864  0.00  0.00    +0.000 A 
ATOM     23  C   UNL     1      -0.866  10.164  23.227  0.00  0.00    +0.000 A 
ATOM     24  C   UNL     1       0.118   9.948  22.245  0.00  0.00    +0.000 A 
ATOM     25  C   UNL     1       0.031  10.948  21.287  0.00  0.00    +0.000 A 
ENDBRANCH  18  25
ENDBRANCH  17  18
ENDBRANCH  16  17
ENDBRANCH  12  16
ENDBRANCH   1  14
BRANCH   3  26
ATOM     26  C   UNL     1       2.172   2.442  19.261  0.00  0.00    +0.000 C 
ATOM     27  C   UNL     1       3.100   1.316  18.770  0.00  0.00    +0.000 C 
ATOM     28  C   UNL     1       2.076   2.372  20.801  0.00  0.00    +0.000 C 
ATOM     29  C   UNL     1       0.758   2.180  18.696  0.00  0.00    +0.000 C 
ENDBRANCH   3  26
TORSDOF 7
ENDMDL
MODEL 8
REMARK VINA RESULT:      -8.0      1.862      4.716
REMARK  Name = 
REMARK  11 active torsions:
REMARK  status: ('A' for Active; 'I' for Inactive)
REMARK    1  A    between atoms: C_1  and  N_2
REMARK    2  A    between atoms: C_6  and  C_7
REMARK    3  A    between atoms: C_7  and  O_9
REMARK    4  A    between atoms: O_9  and  C_10
REMARK    5  A    between atoms: C_10  and  C_11
REMARK    6  A    between atoms: N_13  and  C_14
REMARK    7  A    between atoms: C_16  and  C_17
REMARK    8  A    between atoms: C_17  and  C_18
REMARK    9  A    between atoms: C_17  and  C_19
REMARK   10  A    between atoms: C_17  and  C_20
REMARK   11  A    between atoms: N_22  and  C_23
REMARK                            x       y       z     vdW  Elec       q    Type
REMARK                         _______ _______ _______ _____ _____    ______ ____
ROOT
ATOM      1  C   UNL     1       3.486   6.899  17.827  0.00  0.00    +0.000 A 
ATOM      2  C   UNL     1       4.759   7.244  17.443  0.00  0.00    +0.000 A 
ATOM      3  C   UNL     1       5.604   6.218  17.937  0.00  0.00    +0.000 A 
ATOM      4  N   UNL     1       4.900   5.328  18.648  0.00  0.00    +0.000 NA
ATOM      5  N   UNL     1       3.601   5.677  18.465  0.00  0.00    +0.000 N 
ENDROOT
BRANCH   5   6
ATOM      6  C   UNL     1       2.568   4.818  18.906  0.00  0.00    +0.000 A 
ATOM      7  C   UNL     1       2.032   3.860  18.042  0.00  0.00    +0.000 A 
ATOM      8  C   UNL     1       0.981   3.053  18.473  0.00  0.00    +0.000 A 
ATOM      9  C   UNL     1       0.475   3.194  19.765  0.00  0.00    +0.000 A 
ATOM     10  C   UNL     1       1.020   4.136  20.636  0.00  0.00    +0.000 A 
ATOM     11  C   UNL     1       2.069   4.953  20.210  0.00  0.00    +0.000 A 
ENDBRANCH   5   6
BRANCH   1  14
ATOM     12  C   UNL     1       1.709   8.426  18.561  0.00  0.00    +0.000 C 
ATOM     13  O   UNL     1       2.173   8.447  19.685  0.00  0.00    +0.000 OA
ATOM     14  N   UNL     1       2.332   7.631  17.530  0.00  0.00    +0.000 N 
ATOM     15  H   UNL     1       1.941   7.594  16.591  0.00  0.00    +0.000 HD
BRANCH  12  16
ATOM     16  C   UNL     1       0.456   9.174  18.150  0.00  0.00    +0.000 C 
BRANCH  16  17
ATOM     17  O   UNL     1       0.375  10.396  18.900  0.00  0.00    +0.000 OA
BRANCH  17  18
ATOM     18  C   UNL     1      -0.890  10.642  19.396  0.00  0.00    +0.000 C 
ATOM     19  O   UNL     1      -1.860  10.786  18.699  0.00  0.00    +0.000 OA
BRANCH  18  25
ATOM     20  C   UNL     1      -1.976  12.872  21.373  0.00  0.00    +0.000 C 
ATOM     21  N   UNL     1      -1.324  11.620  21.716  0.00  0.00    +0.000 N 
ATOM     22  C   UNL     1      -1.088  11.246  23.018  0.00  0.00    +0.000 A 
ATOM     23  C   UNL     1      -0.445  10.033  23.009  0.00  0.00    +0.000 A 
ATOM     24  C   UNL     1      -0.294   9.661  21.660  0.00  0.00    +0.000 A 
ATOM     25  C   UNL     1      -0.848  10.644  20.853  0.00  0.00    +0.000 A 
ENDBRANCH  18  25
ENDBRANCH  17  18
ENDBRANCH  16  17
ENDBRANCH  12  16
ENDBRANCH   1  14
BRANCH   3  26
ATOM     26  C   UNL     1       7.109   6.054  17.754  0.00  0.00    +0.000 C 
ATOM     27  C   UNL     1       7.745   7.377  17.290  0.00  0.00    +0.000 C 
ATOM     28  C   UNL     1       7.780   5.615  19.074  0.00  0.00    +0.000 C 
ATOM     29  C   UNL     1       7.421   4.974  16.694  0.00  0.00    +0.000 C 
ENDBRANCH   3  26
TORSDOF 7
ENDMDL
MODEL 9
REMARK VINA RESULT:      -8.0      1.952      4.767
REMARK  Name = 
REMARK  11 active torsions:
REMARK  status: ('A' for Active; 'I' for Inactive)
REMARK    1  A    between atoms: C_1  and  N_2
REMARK    2  A    between atoms: C_6  and  C_7
REMARK    3  A    between atoms: C_7  and  O_9
REMARK    4  A    between atoms: O_9  and  C_10
REMARK    5  A    between atoms: C_10  and  C_11
REMARK    6  A    between atoms: N_13  and  C_14
REMARK    7  A    between atoms: C_16  and  C_17
REMARK    8  A    between atoms: C_17  and  C_18
REMARK    9  A    between atoms: C_17  and  C_19
REMARK   10  A    between atoms: C_17  and  C_20
REMARK   11  A    between atoms: N_22  and  C_23
REMARK                            x       y       z     vdW  Elec       q    Type
REMARK                         _______ _______ _______ _____ _____    ______ ____
ROOT
ATOM      1  C   UNL     1       3.234   6.717  17.979  0.00  0.00    +0.000 A 
ATOM      2  C   UNL     1       4.403   7.111  17.377  0.00  0.00    +0.000 A 
ATOM      3  C   UNL     1       5.376   6.149  17.752  0.00  0.00    +0.000 A 
ATOM      4  N   UNL     1       4.852   5.253  18.597  0.00  0.00    +0.000 NA
ATOM      5  N   UNL     1       3.523   5.527  18.625  0.00  0.00    +0.000 N 
ENDROOT
BRANCH   5   6
ATOM      6  C   UNL     1       2.629   4.635  19.259  0.00  0.00    +0.000 A 
ATOM      7  C   UNL     1       2.526   4.614  20.653  0.00  0.00    +0.000 A 
ATOM      8  C   UNL     1       1.677   3.696  21.268  0.00  0.00    +0.000 A 
ATOM      9  C   UNL     1       0.926   2.811  20.496  0.00  0.00    +0.000 A 
ATOM     10  C   UNL     1       1.012   2.842  19.105  0.00  0.00    +0.000 A 
ATOM     11  C   UNL     1       1.865   3.754  18.481  0.00  0.00    +0.000 A 
ENDBRANCH   5   6
BRANCH   1  14
ATOM     12  C   UNL     1       1.961   8.816  17.944  0.00  0.00    +0.000 C 
ATOM     13  O   UNL     1       2.980   9.452  18.137  0.00  0.00    +0.000 OA
ATOM     14  N   UNL     1       2.007   7.376  17.860  0.00  0.00    +0.000 N 
ATOM     15  H   UNL     1       1.157   6.835  17.716  0.00  0.00    +0.000 HD
BRANCH  12  16
ATOM     16  C   UNL     1       0.586   9.442  17.816  0.00  0.00    +0.000 C 
BRANCH  16  17
ATOM     17  O   UNL     1       0.447  10.471  18.807  0.00  0.00    +0.000 OA
BRANCH  17  18
ATOM     18  C   UNL     1      -0.848  10.601  19.272  0.00  0.00    +0.000 C 
ATOM     19  O   UNL     1      -1.817  10.537  18.563  0.00  0.00    +0.000 OA
BRANCH  18  25
ATOM     20  C   UNL     1       0.142   8.531  21.461  0.00  0.00    +0.000 C 
ATOM     21  N   UNL     1      -0.393   9.864  21.676  0.00  0.00    +0.000 N 
ATOM     22  C   UNL     1      -0.543  10.404  22.931  0.00  0.00    +0.000 A 
ATOM     23  C   UNL     1      -1.088  11.657  22.801  0.00  0.00    +0.000 A 
ATOM     24  C   UNL     1      -1.267  11.882  21.423  0.00  0.00    +0.000 A 
ATOM     25  C   UNL     1      -0.828  10.770  20.720  0.00  0.00    +0.000 A 
ENDBRANCH  18  25
ENDBRANCH  17  18
ENDBRANCH  16  17
ENDBRANCH  12  16
ENDBRANCH   1  14
BRANCH   3  26
ATOM     26  C   UNL     1       6.837   6.056  17.323  0.00  0.00    +0.000 C 
ATOM     27  C   UNL     1       7.481   7.454  17.288  0.00  0.00    +0.000 C 
ATOM     28  C   UNL     1       7.639   5.162  18.294  0.00  0.00    +0.000 C 
ATOM     29  C   UNL     1       6.958   5.436  15.913  0.00  0.00    +0.000 C 
ENDBRANCH   3  26
TORSDOF 7
ENDMDL
