MODEL 1
REMARK VINA RESULT:      -8.1      0.000      0.000
REMARK  Name = 
REMARK  7 active torsions:
REMARK  status: ('A' for Active; 'I' for Inactive)
REMARK    1  A    between atoms: C_1  and  N_2
REMARK    2  A    between atoms: N_2  and  C_3
REMARK    3  A    between atoms: N_2  and  C_10
REMARK    4  A    between atoms: C_3  and  C_4
REMARK    5  A    between atoms: C_15  and  C_16
REMARK    6  A    between atoms: C_16  and  N_17
REMARK    7  A    between atoms: N_17  and  C_18
REMARK                            x       y       z     vdW  Elec       q    Type
REMARK                         _______ _______ _______ _____ _____    ______ ____
ROOT
ATOM      1  C   UNL     1       6.114   6.023  17.152  0.00  0.00    +0.000 A 
ATOM      2  N   UNL     1       6.880   7.127  16.968  0.00  0.00    +0.000 NA
ATOM      3  C   UNL     1       7.857   7.408  17.857  0.00  0.00    +0.000 A 
ATOM      4  C   UNL     1       8.119   6.650  18.976  0.00  0.00    +0.000 A 
ATOM      5  C   UNL     1       7.312   5.547  19.206  0.00  0.00    +0.000 A 
ATOM      6  C   UNL     1       6.278   5.229  18.307  0.00  0.00    +0.000 A 
ENDROOT
BRANCH   1   8
ATOM      7  C   UNL     1       4.737   6.819  15.315  0.00  0.00    +0.000 C 
ATOM      8  N   UNL     1       5.186   5.713  16.158  0.00  0.00    +0.000 N 
BRANCH   8   9
ATOM      9  C   UNL     1       5.185   4.385  15.539  0.00  0.00    +0.000 C 
BRANCH   9  10
ATOM     10  C   UNL     1       5.965   4.256  14.253  0.00  0.00    +0.000 A 
ATOM     11  C   UNL     1       5.476   3.516  13.168  0.00  0.00    +0.000 A 
ATOM     12  C   UNL     1       6.158   3.507  11.953  0.00  0.00    +0.000 A 
ATOM     13  C   UNL     1       7.332   4.247  11.807  0.00  0.00    +0.000 A 
ATOM     14  C   UNL     1       7.823   4.994  12.874  0.00  0.00    +0.000 A 
ATOM     15  C   UNL     1       7.142   5.002  14.089  0.00  0.00    +0.000 A 
ENDBRANCH   9  10
ENDBRANCH   8   9
ENDBRANCH   1   8
BRANCH   6  16
ATOM     16  C   UNL     1       5.445   3.994  18.519  0.00  0.00    +0.000 C 
BRANCH  16  17
ATOM     17  N   UNL     1       4.876   3.772  19.852  0.00  0.00    +0.000 NA
ATOM     18  H   UNL     1       4.688   4.686  20.275  0.00  0.00    +0.000 HD
BRANCH  17  19
ATOM     19  C   UNL     1       3.597   3.029  19.738  0.00  0.00    +0.000 C 
ATOM     20  C   UNL     1       3.319   2.635  18.256  0.00  0.00    +0.000 C 
ATOM     21  N   UNL     1       1.987   3.089  17.788  0.00  0.00    +0.000 NA
ATOM     22  C   UNL     1       0.943   2.497  18.647  0.00  0.00    +0.000 C 
ATOM     23  C   UNL     1       1.126   2.881  20.119  0.00  0.00    +0.000 C 
ATOM     24  C   UNL     1       2.350   3.801  20.261  0.00  0.00    +0.000 C 
ATOM     25  C   UNL     1       2.110   5.027  19.370  0.00  0.00    +0.000 C 
ATOM     26  C   UNL     1       1.938   4.565  17.915  0.00  0.00    +0.000 C 
ENDBRANCH  17  19
ENDBRANCH  16  17
ENDBRANCH   6  16
TORSDOF 6
ENDMDL
MODEL 2
REMARK VINA RESULT:      -8.0      0.812      1.637
REMARK  Name = 
REMARK  7 active torsions:
REMARK  status: ('A' for Active; 'I' for Inactive)
REMARK    1  A    between atoms: C_1  and  N_2
REMARK    2  A    between atoms: N_2  and  C_3
REMARK    3  A    between atoms: N_2  and  C_10
REMARK    4  A    between atoms: C_3  and  C_4
REMARK    5  A    between atoms: C_15  and  C_16
REMARK    6  A    between atoms: C_16  and  N_17
REMARK    7  A    between atoms: N_17  and  C_18
REMARK                            x       y       z     vdW  Elec       q    Type
REMARK                         _______ _______ _______ _____ _____    ______ ____
ROOT
ATOM      1  C   UNL     1       6.252   6.311  17.213  0.00  0.00    +0.000 A 
ATOM      2  N   UNL     1       6.985   7.390  16.840  0.00  0.00    +0.000 NA
ATOM      3  C   UNL     1       8.011   7.793  17.621  0.00  0.00    +0.000 A 
ATOM      4  C   UNL     1       8.356   7.188  18.809  0.00  0.00    +0.000 A 
ATOM      5  C   UNL     1       7.584   6.117  19.230  0.00  0.00    +0.000 A 
ATOM      6  C   UNL     1       6.502   5.674  18.448  0.00  0.00    +0.000 A 
ENDROOT
BRANCH   1   8
ATOM      7  C   UNL     1       4.619   6.885  15.508  0.00  0.00    +0.000 C 
ATOM      8  N   UNL     1       5.270   5.867  16.329  0.00  0.00    +0.000 N 
BRANCH   8   9
ATOM      9  C   UNL     1       5.353   4.523  15.749  0.00  0.00    +0.000 C 
BRANCH   9  10
ATOM     10  C   UNL     1       5.955   4.439  14.367  0.00  0.00    +0.000 A 
ATOM     11  C   UNL     1       7.173   5.062  14.057  0.00  0.00    +0.000 A 
ATOM     12  C   UNL     1       7.765   4.874  12.810  0.00  0.00    +0.000 A 
ATOM     13  C   UNL     1       7.152   4.054  11.862  0.00  0.00    +0.000 A 
ATOM     14  C   UNL     1       5.948   3.423  12.161  0.00  0.00    +0.000 A 
ATOM     15  C   UNL     1       5.354   3.610  13.408  0.00  0.00    +0.000 A 
ENDBRANCH   9  10
ENDBRANCH   8   9
ENDBRANCH   1   8
BRANCH   6  16
ATOM     16  C   UNL     1       5.705   4.469  18.870  0.00  0.00    +0.000 C 
BRANCH  16  17
ATOM     17  N   UNL     1       4.456   4.696  19.601  0.00  0.00    +0.000 NA
ATOM     18  H   UNL     1       4.217   5.689  19.524  0.00  0.00    +0.000 HD
BRANCH  17  19
ATOM     19  C   UNL     1       3.364   3.895  18.996  0.00  0.00    +0.000 C 
ATOM     20  C   UNL     1       2.006   4.653  19.094  0.00  0.00    +0.000 C 
ATOM     21  N   UNL     1       0.946   3.840  19.737  0.00  0.00    +0.000 NA
ATOM     22  C   UNL     1       0.749   2.598  18.963  0.00  0.00    +0.000 C 
ATOM     23  C   UNL     1       2.038   1.775  18.864  0.00  0.00    +0.000 C 
ATOM     24  C   UNL     1       3.163   2.488  19.631  0.00  0.00    +0.000 C 
ATOM     25  C   UNL     1       2.696   2.656  21.083  0.00  0.00    +0.000 C 
ATOM     26  C   UNL     1       1.406   3.491  21.102  0.00  0.00    +0.000 C 
ENDBRANCH  17  19
ENDBRANCH  16  17
ENDBRANCH   6  16
TORSDOF 6
ENDMDL
MODEL 3
REMARK VINA RESULT:      -7.9      2.458      6.671
REMARK  Name = 
REMARK  7 active torsions:
REMARK  status: ('A' for Active; 'I' for Inactive)
REMARK    1  A    between atoms: C_1  and  N_2
REMARK    2  A    between atoms: N_2  and  C_3
REMARK    3  A    between atoms: N_2  and  C_10
REMARK    4  A    between atoms: C_3  and  C_4
REMARK    5  A    between atoms: C_15  and  C_16
REMARK    6  A    between atoms: C_16  and  N_17
REMARK    7  A    between atoms: N_17  and  C_18
REMARK                            x       y       z     vdW  Elec       q    Type
REMARK                         _______ _______ _______ _____ _____    ______ ____
ROOT
ATOM      1  C   UNL     1       2.558   4.272  19.654  0.00  0.00    +0.000 A 
ATOM      2  N   UNL     1       1.728   4.432  20.715  0.00  0.00    +0.000 NA
ATOM      3  C   UNL     1       1.770   3.539  21.727  0.00  0.00    +0.000 A 
ATOM      4  C   UNL     1       2.596   2.437  21.745  0.00  0.00    +0.000 A 
ATOM      5  C   UNL     1       3.412   2.230  20.644  0.00  0.00    +0.000 A 
ATOM      6  C   UNL     1       3.389   3.134  19.567  0.00  0.00    +0.000 A 
ENDROOT
BRANCH   1   8
ATOM      7  C   UNL     1       1.438   5.265  17.740  0.00  0.00    +0.000 C 
ATOM      8  N   UNL     1       2.556   5.271  18.681  0.00  0.00    +0.000 N 
BRANCH   8   9
ATOM      9  C   UNL     1       3.158   6.576  18.963  0.00  0.00    +0.000 C 
BRANCH   9  10
ATOM     10  C   UNL     1       2.195   7.731  19.094  0.00  0.00    +0.000 A 
ATOM     11  C   UNL     1       1.580   8.041  20.315  0.00  0.00    +0.000 A 
ATOM     12  C   UNL     1       0.786   9.179  20.438  0.00  0.00    +0.000 A 
ATOM     13  C   UNL     1       0.606  10.026  19.344  0.00  0.00    +0.000 A 
ATOM     14  C   UNL     1       1.218   9.734  18.128  0.00  0.00    +0.000 A 
ATOM     15  C   UNL     1       2.012   8.596  18.004  0.00  0.00    +0.000 A 
ENDBRANCH   9  10
ENDBRANCH   8   9
ENDBRANCH   1   8
BRANCH   6  16
ATOM     16  C   UNL     1       4.324   2.948  18.403  0.00  0.00    +0.000 C 
BRANCH  16  17
ATOM     17  N   UNL     1       5.536   3.771  18.360  0.00  0.00    +0.000 NA
ATOM     18  H   UNL     1       6.232   3.346  18.979  0.00  0.00    +0.000 HD
BRANCH  17  19
ATOM     19  C   UNL     1       6.080   3.797  16.980  0.00  0.00    +0.000 C 
ATOM     20  C   UNL     1       7.434   4.566  16.936  0.00  0.00    +0.000 C 
ATOM     21  N   UNL     1       7.438   5.655  15.930  0.00  0.00    +0.000 NA
ATOM     22  C   UNL     1       7.166   5.084  14.596  0.00  0.00    +0.000 C 
ATOM     23  C   UNL     1       5.822   4.349  14.550  0.00  0.00    +0.000 C 
ATOM     24  C   UNL     1       5.137   4.446  15.924  0.00  0.00    +0.000 C 
ATOM     25  C   UNL     1       4.969   5.935  16.251  0.00  0.00    +0.000 C 
ATOM     26  C   UNL     1       6.353   6.602  16.281  0.00  0.00    +0.000 C 
ENDBRANCH  17  19
ENDBRANCH  16  17
ENDBRANCH   6  16
TORSDOF 6
ENDMDL
MODEL 4
REMARK VINA RESULT:      -7.7      5.856      8.379
REMARK  Name = 
REMARK  7 active torsions:
REMARK  status: ('A' for Active; 'I' for Inactive)
REMARK    1  A    between atoms: C_1  and  N_2
REMARK    2  A    between atoms: N_2  and  C_3
REMARK    3  A    between atoms: N_2  and  C_10
REMARK    4  A    between atoms: C_3  and  C_4
REMARK    5  A    between atoms: C_15  and  C_16
REMARK    6  A    between atoms: C_16  and  N_17
REMARK    7  A    between atoms: N_17  and  C_18
REMARK                            x       y       z     vdW  Elec       q    Type
REMARK                         _______ _______ _______ _____ _____    ______ ____
ROOT
ATOM      1  C   UNL     1      -0.084  10.321  20.523  0.00  0.00    +0.000 A 
ATOM      2  N   UNL     1      -0.843  10.981  21.433  0.00  0.00    +0.000 NA
ATOM      3  C   UNL     1      -0.797  10.605  22.729  0.00  0.00    +0.000 A 
ATOM      4  C   UNL     1      -0.036   9.558  23.198  0.00  0.00    +0.000 A 
ATOM      5  C   UNL     1       0.705   8.839  22.273  0.00  0.00    +0.000 A 
ATOM      6  C   UNL     1       0.674   9.196  20.912  0.00  0.00    +0.000 A 
ENDROOT
BRANCH   1   8
ATOM      7  C   UNL     1       1.020  11.690  18.847  0.00  0.00    +0.000 C 
ATOM      8  N   UNL     1      -0.083  10.806  19.216  0.00  0.00    +0.000 N 
BRANCH   8   9
ATOM      9  C   UNL     1      -0.663  10.007  18.132  0.00  0.00    +0.000 C 
BRANCH   9  10
ATOM     10  C   UNL     1      -1.957  10.523  17.553  0.00  0.00    +0.000 A 
ATOM     11  C   UNL     1      -2.352  10.214  16.244  0.00  0.00    +0.000 A 
ATOM     12  C   UNL     1      -3.603  10.606  15.772  0.00  0.00    +0.000 A 
ATOM     13  C   UNL     1      -4.477  11.303  16.606  0.00  0.00    +0.000 A 
ATOM     14  C   UNL     1      -4.101  11.608  17.911  0.00  0.00    +0.000 A 
ATOM     15  C   UNL     1      -2.850  11.217  18.384  0.00  0.00    +0.000 A 
ENDBRANCH   9  10
ENDBRANCH   8   9
ENDBRANCH   1   8
BRANCH   6  16
ATOM     16  C   UNL     1       1.531   8.460  19.918  0.00  0.00    +0.000 C 
BRANCH  16  17
ATOM     17  N   UNL     1       2.361   7.358  20.412  0.00  0.00    +0.000 NA
ATOM     18  H   UNL     1       2.234   7.293  21.426  0.00  0.00    +0.000 HD
BRANCH  17  19
ATOM     19  C   UNL     1       1.924   6.081  19.795  0.00  0.00    +0.000 C 
ATOM     20  C   UNL     1       2.418   4.866  20.636  0.00  0.00    +0.000 C 
ATOM     21  N   UNL     1       3.179   3.885  19.824  0.00  0.00    +0.000 NA
ATOM     22  C   UNL     1       2.322   3.395  18.727  0.00  0.00    +0.000 C 
ATOM     23  C   UNL     1       1.834   4.535  17.827  0.00  0.00    +0.000 C 
ATOM     24  C   UNL     1       2.409   5.869  18.331  0.00  0.00    +0.000 C 
ATOM     25  C   UNL     1       3.938   5.743  18.324  0.00  0.00    +0.000 C 
ATOM     26  C   UNL     1       4.351   4.585  19.246  0.00  0.00    +0.000 C 
ENDBRANCH  17  19
ENDBRANCH  16  17
ENDBRANCH   6  16
TORSDOF 6
ENDMDL
MODEL 5
REMARK VINA RESULT:      -7.7      0.772      1.699
REMARK  Name = 
REMARK  7 active torsions:
REMARK  status: ('A' for Active; 'I' for Inactive)
REMARK    1  A    between atoms: C_1  and  N_2
REMARK    2  A    between atoms: N_2  and  C_3
REMARK    3  A    between atoms: N_2  and  C_10
REMARK    4  A    between atoms: C_3  and  C_4
REMARK    5  A    between atoms: C_15  and  C_16
REMARK    6  A    between atoms: C_16  and  N_17
REMARK    7  A    between atoms: N_17  and  C_18
REMARK                            x       y       z     vdW  Elec       q    Type
REMARK                         _______ _______ _______ _____ _____    ______ ____
ROOT
ATOM      1  C   UNL     1       6.208   6.176  17.078  0.00  0.00    +0.000 A 
ATOM      2  N   UNL     1       6.780   7.401  16.980  0.00  0.00    +0.000 NA
ATOM      3  C   UNL     1       7.778   7.733  17.827  0.00  0.00    +0.000 A 
ATOM      4  C   UNL     1       8.248   6.907  18.823  0.00  0.00    +0.000 A 
ATOM      5  C   UNL     1       7.637   5.671  18.971  0.00  0.00    +0.000 A 
ATOM      6  C   UNL     1       6.588   5.294  18.113  0.00  0.00    +0.000 A 
ENDROOT
BRANCH   1   8
ATOM      7  C   UNL     1       4.734   6.924  15.298  0.00  0.00    +0.000 C 
ATOM      8  N   UNL     1       5.253   5.835  16.120  0.00  0.00    +0.000 N 
BRANCH   8   9
ATOM      9  C   UNL     1       5.274   4.507  15.499  0.00  0.00    +0.000 C 
BRANCH   9  10
ATOM     10  C   UNL     1       5.947   4.422  14.151  0.00  0.00    +0.000 A 
ATOM     11  C   UNL     1       7.165   5.068  13.896  0.00  0.00    +0.000 A 
ATOM     12  C   UNL     1       7.824   4.880  12.682  0.00  0.00    +0.000 A 
ATOM     13  C   UNL     1       7.277   4.037  11.714  0.00  0.00    +0.000 A 
ATOM     14  C   UNL     1       6.073   3.382  11.959  0.00  0.00    +0.000 A 
ATOM     15  C   UNL     1       5.413   3.570  13.172  0.00  0.00    +0.000 A 
ENDBRANCH   9  10
ENDBRANCH   8   9
ENDBRANCH   1   8
BRANCH   6  16
ATOM     16  C   UNL     1       5.971   3.926  18.228  0.00  0.00    +0.000 C 
BRANCH  16  17
ATOM     17  N   UNL     1       5.258   3.600  19.466  0.00  0.00    +0.000 NA
ATOM     18  H   UNL     1       5.721   4.086  20.239  0.00  0.00    +0.000 HD
BRANCH  17  19
ATOM     19  C   UNL     1       3.854   4.072  19.380  0.00  0.00    +0.000 C 
ATOM     20  C   UNL     1       3.001   3.479  20.542  0.00  0.00    +0.000 C 
ATOM     21  N   UNL     1       1.785   2.782  20.056  0.00  0.00    +0.000 NA
ATOM     22  C   UNL     1       0.957   3.731  19.287  0.00  0.00    +0.000 C 
ATOM     23  C   UNL     1       1.718   4.322  18.095  0.00  0.00    +0.000 C 
ATOM     24  C   UNL     1       3.134   3.724  18.043  0.00  0.00    +0.000 C 
ATOM     25  C   UNL     1       2.987   2.201  17.936  0.00  0.00    +0.000 C 
ATOM     26  C   UNL     1       2.218   1.682  19.161  0.00  0.00    +0.000 C 
ENDBRANCH  17  19
ENDBRANCH  16  17
ENDBRANCH   6  16
TORSDOF 6
ENDMDL
MODEL 6
REMARK VINA RESULT:      -7.6      2.182      5.102
REMARK  Name = 
REMARK  7 active torsions:
REMARK  status: ('A' for Active; 'I' for Inactive)
REMARK    1  A    between atoms: C_1  and  N_2
REMARK    2  A    between atoms: N_2  and  C_3
REMARK    3  A    between atoms: N_2  and  C_10
REMARK    4  A    between atoms: C_3  and  C_4
REMARK    5  A    between atoms: C_15  and  C_16
REMARK    6  A    between atoms: C_16  and  N_17
REMARK    7  A    between atoms: N_17  and  C_18
REMARK                            x       y       z     vdW  Elec       q    Type
REMARK                         _______ _______ _______ _____ _____    ______ ____
ROOT
ATOM      1  C   UNL     1       5.392   5.944  16.471  0.00  0.00    +0.000 A 
ATOM      2  N   UNL     1       5.409   6.110  15.125  0.00  0.00    +0.000 NA
ATOM      3  C   UNL     1       5.934   5.140  14.347  0.00  0.00    +0.000 A 
ATOM      4  C   UNL     1       6.490   3.979  14.836  0.00  0.00    +0.000 A 
ATOM      5  C   UNL     1       6.528   3.818  16.212  0.00  0.00    +0.000 A 
ATOM      6  C   UNL     1       5.999   4.812  17.056  0.00  0.00    +0.000 A 
ENDROOT
BRANCH   1   8
ATOM      7  C   UNL     1       5.568   8.044  17.680  0.00  0.00    +0.000 C 
ATOM      8  N   UNL     1       4.749   6.921  17.230  0.00  0.00    +0.000 N 
BRANCH   8   9
ATOM      9  C   UNL     1       3.326   7.202  17.019  0.00  0.00    +0.000 C 
BRANCH   9  10
ATOM     10  C   UNL     1       2.619   7.906  18.151  0.00  0.00    +0.000 A 
ATOM     11  C   UNL     1       1.988   9.144  17.965  0.00  0.00    +0.000 A 
ATOM     12  C   UNL     1       1.244   9.720  18.994  0.00  0.00    +0.000 A 
ATOM     13  C   UNL     1       1.114   9.059  20.215  0.00  0.00    +0.000 A 
ATOM     14  C   UNL     1       1.728   7.825  20.409  0.00  0.00    +0.000 A 
ATOM     15  C   UNL     1       2.473   7.249  19.382  0.00  0.00    +0.000 A 
ENDBRANCH   9  10
ENDBRANCH   8   9
ENDBRANCH   1   8
BRANCH   6  16
ATOM     16  C   UNL     1       5.978   4.607  18.546  0.00  0.00    +0.000 C 
BRANCH  16  17
ATOM     17  N   UNL     1       5.179   3.497  19.073  0.00  0.00    +0.000 NA
ATOM     18  H   UNL     1       5.526   3.270  20.009  0.00  0.00    +0.000 HD
BRANCH  17  19
ATOM     19  C   UNL     1       3.756   3.904  19.178  0.00  0.00    +0.000 C 
ATOM     20  C   UNL     1       3.072   3.205  20.392  0.00  0.00    +0.000 C 
ATOM     21  N   UNL     1       1.837   2.479  20.007  0.00  0.00    +0.000 NA
ATOM     22  C   UNL     1       0.885   3.429  19.399  0.00  0.00    +0.000 C 
ATOM     23  C   UNL     1       1.476   4.123  18.166  0.00  0.00    +0.000 C 
ATOM     24  C   UNL     1       2.899   3.598  17.915  0.00  0.00    +0.000 C 
ATOM     25  C   UNL     1       2.804   2.078  17.731  0.00  0.00    +0.000 C 
ATOM     26  C   UNL     1       2.207   1.454  19.002  0.00  0.00    +0.000 C 
ENDBRANCH  17  19
ENDBRANCH  16  17
ENDBRANCH   6  16
TORSDOF 6
ENDMDL
MODEL 7
REMARK VINA RESULT:      -7.4      0.888      1.251
REMARK  Name = 
REMARK  7 active torsions:
REMARK  status: ('A' for Active; 'I' for Inactive)
REMARK    1  A    between atoms: C_1  and  N_2
REMARK    2  A    between atoms: N_2  and  C_3
REMARK    3  A    between atoms: N_2  and  C_10
REMARK    4  A    between atoms: C_3  and  C_4
REMARK    5  A    between atoms: C_15  and  C_16
REMARK    6  A    between atoms: C_16  and  N_17
REMARK    7  A    between atoms: N_17  and  C_18
REMARK                            x       y       z     vdW  Elec       q    Type
REMARK                         _______ _______ _______ _____ _____    ______ ____
ROOT
ATOM      1  C   UNL     1       6.692   5.840  16.967  0.00  0.00    +0.000 A 
ATOM      2  N   UNL     1       7.595   6.836  17.144  0.00  0.00    +0.000 NA
ATOM      3  C   UNL     1       8.151   7.015  18.362  0.00  0.00    +0.000 A 
ATOM      4  C   UNL     1       7.839   6.256  19.467  0.00  0.00    +0.000 A 
ATOM      5  C   UNL     1       6.879   5.267  19.315  0.00  0.00    +0.000 A 
ATOM      6  C   UNL     1       6.271   5.058  18.064  0.00  0.00    +0.000 A 
ENDROOT
BRANCH   1   8
ATOM      7  C   UNL     1       5.128   6.485  15.223  0.00  0.00    +0.000 C 
ATOM      8  N   UNL     1       6.220   5.625  15.672  0.00  0.00    +0.000 N 
BRANCH   8   9
ATOM      9  C   UNL     1       7.123   5.127  14.631  0.00  0.00    +0.000 C 
BRANCH   9  10
ATOM     10  C   UNL     1       6.499   4.226  13.594  0.00  0.00    +0.000 A 
ATOM     11  C   UNL     1       5.123   3.959  13.585  0.00  0.00    +0.000 A 
ATOM     12  C   UNL     1       4.553   3.219  12.551  0.00  0.00    +0.000 A 
ATOM     13  C   UNL     1       5.352   2.744  11.510  0.00  0.00    +0.000 A 
ATOM     14  C   UNL     1       6.718   3.010  11.502  0.00  0.00    +0.000 A 
ATOM     15  C   UNL     1       7.289   3.750  12.536  0.00  0.00    +0.000 A 
ENDBRANCH   9  10
ENDBRANCH   8   9
ENDBRANCH   1   8
BRANCH   6  16
ATOM     16  C   UNL     1       5.280   3.941  17.881  0.00  0.00    +0.000 C 
BRANCH  16  17
ATOM     17  N   UNL     1       5.100   2.998  18.989  0.00  0.00    +0.000 NA
ATOM     18  H   UNL     1       5.316   3.487  19.863  0.00  0.00    +0.000 HD
BRANCH  17  19
ATOM     19  C   UNL     1       3.690   2.539  19.037  0.00  0.00    +0.000 C 
ATOM     20  C   UNL     1       2.900   3.057  17.798  0.00  0.00    +0.000 C 
ATOM     21  N   UNL     1       1.667   3.790  18.176  0.00  0.00    +0.000 NA
ATOM     22  C   UNL     1       0.794   2.897  18.964  0.00  0.00    +0.000 C 
ATOM     23  C   UNL     1       1.492   2.382  20.228  0.00  0.00    +0.000 C 
ATOM     24  C   UNL     1       2.908   2.976  20.310  0.00  0.00    +0.000 C 
ATOM     25  C   UNL     1       2.767   4.504  20.310  0.00  0.00    +0.000 C 
ATOM     26  C   UNL     1       2.063   4.944  19.017  0.00  0.00    +0.000 C 
ENDBRANCH  17  19
ENDBRANCH  16  17
ENDBRANCH   6  16
TORSDOF 6
ENDMDL
MODEL 8
REMARK VINA RESULT:      -7.3      1.149      1.744
REMARK  Name = 
REMARK  7 active torsions:
REMARK  status: ('A' for Active; 'I' for Inactive)
REMARK    1  A    between atoms: C_1  and  N_2
REMARK    2  A    between atoms: N_2  and  C_3
REMARK    3  A    between atoms: N_2  and  C_10
REMARK    4  A    between atoms: C_3  and  C_4
REMARK    5  A    between atoms: C_15  and  C_16
REMARK    6  A    between atoms: C_16  and  N_17
REMARK    7  A    between atoms: N_17  and  C_18
REMARK                            x       y       z     vdW  Elec       q    Type
REMARK                         _______ _______ _______ _____ _____    ______ ____
ROOT
ATOM      1  C   UNL     1       6.540   5.731  16.769  0.00  0.00    +0.000 A 
ATOM      2  N   UNL     1       7.472   6.668  17.069  0.00  0.00    +0.000 NA
ATOM      3  C   UNL     1       7.977   6.720  18.321  0.00  0.00    +0.000 A 
ATOM      4  C   UNL     1       7.584   5.885  19.343  0.00  0.00    +0.000 A 
ATOM      5  C   UNL     1       6.594   4.956  19.066  0.00  0.00    +0.000 A 
ATOM      6  C   UNL     1       6.038   4.879  17.776  0.00  0.00    +0.000 A 
ENDROOT
BRANCH   1   8
ATOM      7  C   UNL     1       5.119   6.617  15.008  0.00  0.00    +0.000 C 
ATOM      8  N   UNL     1       6.120   5.645  15.442  0.00  0.00    +0.000 N 
BRANCH   8   9
ATOM      9  C   UNL     1       7.037   5.155  14.409  0.00  0.00    +0.000 C 
BRANCH   9  10
ATOM     10  C   UNL     1       6.449   4.186  13.413  0.00  0.00    +0.000 A 
ATOM     11  C   UNL     1       5.065   3.984  13.313  0.00  0.00    +0.000 A 
ATOM     12  C   UNL     1       4.539   3.172  12.309  0.00  0.00    +0.000 A 
ATOM     13  C   UNL     1       5.390   2.561  11.389  0.00  0.00    +0.000 A 
ATOM     14  C   UNL     1       6.766   2.761  11.471  0.00  0.00    +0.000 A 
ATOM     15  C   UNL     1       7.292   3.571  12.475  0.00  0.00    +0.000 A 
ENDBRANCH   9  10
ENDBRANCH   8   9
ENDBRANCH   1   8
BRANCH   6  16
ATOM     16  C   UNL     1       5.012   3.825  17.456  0.00  0.00    +0.000 C 
BRANCH  16  17
ATOM     17  N   UNL     1       4.604   2.918  18.533  0.00  0.00    +0.000 NA
ATOM     18  H   UNL     1       5.440   2.654  19.062  0.00  0.00    +0.000 HD
BRANCH  17  19
ATOM     19  C   UNL     1       3.662   3.610  19.446  0.00  0.00    +0.000 C 
ATOM     20  C   UNL     1       2.925   2.584  20.359  0.00  0.00    +0.000 C 
ATOM     21  N   UNL     1       1.450   2.719  20.290  0.00  0.00    +0.000 NA
ATOM     22  C   UNL     1       1.067   4.086  20.696  0.00  0.00    +0.000 C 
ATOM     23  C   UNL     1       1.721   5.151  19.809  0.00  0.00    +0.000 C 
ATOM     24  C   UNL     1       2.577   4.467  18.730  0.00  0.00    +0.000 C 
ATOM     25  C   UNL     1       1.653   3.538  17.931  0.00  0.00    +0.000 C 
ATOM     26  C   UNL     1       1.038   2.500  18.882  0.00  0.00    +0.000 C 
ENDBRANCH  17  19
ENDBRANCH  16  17
ENDBRANCH   6  16
TORSDOF 6
ENDMDL
MODEL 9
REMARK VINA RESULT:      -7.3      2.619      6.948
REMARK  Name = 
REMARK  7 active torsions:
REMARK  status: ('A' for Active; 'I' for Inactive)
REMARK    1  A    between atoms: C_1  and  N_2
REMARK    2  A    between atoms: N_2  and  C_3
REMARK    3  A    between atoms: N_2  and  C_10
REMARK    4  A    between atoms: C_3  and  C_4
REMARK    5  A    between atoms: C_15  and  C_16
REMARK    6  A    between atoms: C_16  and  N_17
REMARK    7  A    between atoms: N_17  and  C_18
REMARK                            x       y       z     vdW  Elec       q    Type
REMARK                         _______ _______ _______ _____ _____    ______ ____
ROOT
ATOM      1  C   UNL     1       2.358   4.645  19.113  0.00  0.00    +0.000 A 
ATOM      2  N   UNL     1       1.437   4.490  20.096  0.00  0.00    +0.000 NA
ATOM      3  C   UNL     1       0.759   3.326  20.187  0.00  0.00    +0.000 A 
ATOM      4  C   UNL     1       0.921   2.272  19.316  0.00  0.00    +0.000 A 
ATOM      5  C   UNL     1       1.820   2.434  18.274  0.00  0.00    +0.000 A 
ATOM      6  C   UNL     1       2.538   3.636  18.141  0.00  0.00    +0.000 A 
ENDROOT
BRANCH   1   8
ATOM      7  C   UNL     1       4.509   5.701  19.514  0.00  0.00    +0.000 C 
ATOM      8  N   UNL     1       3.109   5.820  19.116  0.00  0.00    +0.000 N 
BRANCH   8   9
ATOM      9  C   UNL     1       2.792   6.900  18.176  0.00  0.00    +0.000 C 
BRANCH   9  10
ATOM     10  C   UNL     1       2.025   8.067  18.749  0.00  0.00    +0.000 A 
ATOM     11  C   UNL     1       1.604   8.084  20.086  0.00  0.00    +0.000 A 
ATOM     12  C   UNL     1       1.000   9.220  20.623  0.00  0.00    +0.000 A 
ATOM     13  C   UNL     1       0.819  10.354  19.831  0.00  0.00    +0.000 A 
ATOM     14  C   UNL     1       1.241  10.353  18.504  0.00  0.00    +0.000 A 
ATOM     15  C   UNL     1       1.844   9.218  17.967  0.00  0.00    +0.000 A 
ENDBRANCH   9  10
ENDBRANCH   8   9
ENDBRANCH   1   8
BRANCH   6  16
ATOM     16  C   UNL     1       3.565   3.788  17.051  0.00  0.00    +0.000 C 
BRANCH  16  17
ATOM     17  N   UNL     1       4.948   3.412  17.357  0.00  0.00    +0.000 NA
ATOM     18  H   UNL     1       4.963   2.416  17.592  0.00  0.00    +0.000 HD
BRANCH  17  19
ATOM     19  C   UNL     1       5.806   3.632  16.166  0.00  0.00    +0.000 C 
ATOM     20  C   UNL     1       7.187   4.220  16.585  0.00  0.00    +0.000 C 
ATOM     21  N   UNL     1       7.515   5.472  15.860  0.00  0.00    +0.000 NA
ATOM     22  C   UNL     1       7.526   5.203  14.408  0.00  0.00    +0.000 C 
ATOM     23  C   UNL     1       6.179   4.664  13.915  0.00  0.00    +0.000 C 
ATOM     24  C   UNL     1       5.195   4.583  15.094  0.00  0.00    +0.000 C 
ATOM     25  C   UNL     1       5.070   5.992  15.688  0.00  0.00    +0.000 C 
ATOM     26  C   UNL     1       6.454   6.463  16.161  0.00  0.00    +0.000 C 
ENDBRANCH  17  19
ENDBRANCH  16  17
ENDBRANCH   6  16
TORSDOF 6
ENDMDL
