MODEL 1
REMARK VINA RESULT:      -9.5      0.000      0.000
REMARK  Name = 
REMARK  5 active torsions:
REMARK  status: ('A' for Active; 'I' for Inactive)
REMARK    1  A    between atoms: C_1  and  C_2
REMARK    2  A    between atoms: C_4  and  C_5
REMARK    3  A    between atoms: N_7  and  C_8
REMARK    4  A    between atoms: C_11  and  C_12
REMARK    5  A    between atoms: N_21  and  C_22
REMARK                            x       y       z     vdW  Elec       q    Type
REMARK                         _______ _______ _______ _____ _____    ______ ____
ROOT
ATOM      1  C   UNL     1       6.068   3.652  14.053  0.00  0.00    +0.000 C 
ATOM      2  C   UNL     1       6.074   4.613  15.183  0.00  0.00    +0.000 A 
ATOM      3  C   UNL     1       7.058   5.558  15.541  0.00  0.00    +0.000 A 
ATOM      4  C   UNL     1       6.587   6.161  16.695  0.00  0.00    +0.000 A 
ATOM      5  N   UNL     1       5.305   5.661  16.868  0.00  0.00    +0.000 N 
ATOM      6  N   UNL     1       5.051   4.617  16.040  0.00  0.00    +0.000 NA
ENDROOT
BRANCH   5   7
ATOM      7  C   UNL     1       4.270   6.145  17.703  0.00  0.00    +0.000 A 
ATOM      8  C   UNL     1       3.918   5.428  18.849  0.00  0.00    +0.000 A 
ATOM      9  C   UNL     1       3.024   5.992  19.758  0.00  0.00    +0.000 A 
ATOM     10  C   UNL     1       2.421   7.232  19.486  0.00  0.00    +0.000 A 
ATOM     11  C   UNL     1       1.688   7.929  20.455  0.00  0.00    +0.000 A 
ATOM     12  C   UNL     1       1.126   9.166  20.142  0.00  0.00    +0.000 A 
ATOM     13 CL   UNL     1       0.632  10.223  21.406  0.00  0.00    +0.000 Cl
ATOM     14  C   UNL     1       1.097   9.621  18.828  0.00  0.00    +0.000 A 
ATOM     15  C   UNL     1       1.871   8.970  17.874  0.00  0.00    +0.000 A 
ATOM     16  C   UNL     1       2.622   7.841  18.228  0.00  0.00    +0.000 A 
ATOM     17  C   UNL     1       3.600   7.330  17.371  0.00  0.00    +0.000 A 
ENDBRANCH   5   7
BRANCH   4  18
ATOM     18  C   UNL     1       7.248   7.012  17.662  0.00  0.00    +0.000 C 
ATOM     19  O   UNL     1       7.624   6.584  18.740  0.00  0.00    +0.000 OA
ATOM     20  N   UNL     1       7.428   8.328  17.258  0.00  0.00    +0.000 N 
ATOM     21  H   UNL     1       6.969   8.601  16.392  0.00  0.00    +0.000 HD
BRANCH  20  22
ATOM     22  C   UNL     1       8.133   9.330  17.946  0.00  0.00    +0.000 A 
ATOM     23  C   UNL     1       8.904   9.097  19.083  0.00  0.00    +0.000 A 
ATOM     24  C   UNL     1       9.568  10.142  19.731  0.00  0.00    +0.000 A 
ATOM     25  C   UNL     1       9.495  11.445  19.233  0.00  0.00    +0.000 A 
ATOM     26  C   UNL     1       8.803  11.666  18.038  0.00  0.00    +0.000 A 
ATOM     27  C   UNL     1       8.095  10.626  17.425  0.00  0.00    +0.000 A 
BRANCH  25  28
ATOM     28  C   UNL     1      10.275  12.501  19.936  0.00  0.00    +0.000 C 
ATOM     29  O   UNL     1      11.478  12.577  19.687  0.00  0.00    +0.000 OA
ATOM     30  N   UNL     1       9.664  13.376  20.815  0.00  0.00    +0.000 N 
ATOM     31  C   UNL     1       8.347  13.349  21.431  0.00  0.00    +0.000 C 
ATOM     32  C   UNL     1       8.032  14.831  21.532  0.00  0.00    +0.000 C 
ATOM     33  C   UNL     1       9.367  15.417  21.982  0.00  0.00    +0.000 C 
ATOM     34  C   UNL     1      10.415  14.509  21.336  0.00  0.00    +0.000 C 
ENDBRANCH  25  28
ENDBRANCH  20  22
ENDBRANCH   4  18
TORSDOF 4
ENDMDL
MODEL 2
REMARK VINA RESULT:      -8.7      6.069      9.997
REMARK  Name = 
REMARK  5 active torsions:
REMARK  status: ('A' for Active; 'I' for Inactive)
REMARK    1  A    between atoms: C_1  and  C_2
REMARK    2  A    between atoms: C_4  and  C_5
REMARK    3  A    between atoms: N_7  and  C_8
REMARK    4  A    between atoms: C_11  and  C_12
REMARK    5  A    between atoms: N_21  and  C_22
REMARK                            x       y       z     vdW  Elec       q    Type
REMARK                         _______ _______ _______ _____ _____    ______ ____
ROOT
ATOM      1  C   UNL     1      -1.410  15.167  22.976  0.00  0.00    +0.000 C 
ATOM      2  C   UNL     1      -1.342  13.864  22.269  0.00  0.00    +0.000 A 
ATOM      3  C   UNL     1      -0.759  12.652  22.695  0.00  0.00    +0.000 A 
ATOM      4  C   UNL     1      -0.936  11.770  21.643  0.00  0.00    +0.000 A 
ATOM      5  N   UNL     1      -1.734  12.446  20.732  0.00  0.00    +0.000 N 
ATOM      6  N   UNL     1      -1.856  13.761  21.043  0.00  0.00    +0.000 NA
ENDROOT
BRANCH   5   7
ATOM      7  C   UNL     1      -2.457  11.929  19.631  0.00  0.00    +0.000 A 
ATOM      8  C   UNL     1      -3.811  12.244  19.489  0.00  0.00    +0.000 A 
ATOM      9  C   UNL     1      -4.475  11.880  18.318  0.00  0.00    +0.000 A 
ATOM     10  C   UNL     1      -3.813  11.134  17.327  0.00  0.00    +0.000 A 
ATOM     11  C   UNL     1      -4.370  10.930  16.058  0.00  0.00    +0.000 A 
ATOM     12  C   UNL     1      -3.664  10.201  15.102  0.00  0.00    +0.000 A 
ATOM     13 CL   UNL     1      -4.099  10.324  13.442  0.00  0.00    +0.000 Cl
ATOM     14  C   UNL     1      -2.520   9.492  15.451  0.00  0.00    +0.000 A 
ATOM     15  C   UNL     1      -1.928   9.736  16.686  0.00  0.00    +0.000 A 
ATOM     16  C   UNL     1      -2.515  10.641  17.581  0.00  0.00    +0.000 A 
ATOM     17  C   UNL     1      -1.817  11.100  18.700  0.00  0.00    +0.000 A 
ENDBRANCH   5   7
BRANCH   4  18
ATOM     18  C   UNL     1      -0.345  10.475  21.377  0.00  0.00    +0.000 C 
ATOM     19  O   UNL     1      -0.676   9.480  22.001  0.00  0.00    +0.000 OA
ATOM     20  N   UNL     1       0.599  10.459  20.360  0.00  0.00    +0.000 N 
ATOM     21  H   UNL     1       0.882  11.365  19.992  0.00  0.00    +0.000 HD
BRANCH  20  22
ATOM     22  C   UNL     1       1.240   9.329  19.824  0.00  0.00    +0.000 A 
ATOM     23  C   UNL     1       1.600   8.211  20.574  0.00  0.00    +0.000 A 
ATOM     24  C   UNL     1       2.252   7.125  19.983  0.00  0.00    +0.000 A 
ATOM     25  C   UNL     1       2.531   7.125  18.614  0.00  0.00    +0.000 A 
ATOM     26  C   UNL     1       2.084   8.202  17.842  0.00  0.00    +0.000 A 
ATOM     27  C   UNL     1       1.482   9.310  18.448  0.00  0.00    +0.000 A 
BRANCH  25  28
ATOM     28  C   UNL     1       3.172   5.912  18.036  0.00  0.00    +0.000 C 
ATOM     29  O   UNL     1       4.178   6.077  17.346  0.00  0.00    +0.000 OA
ATOM     30  N   UNL     1       2.669   4.649  18.286  0.00  0.00    +0.000 N 
ATOM     31  C   UNL     1       1.404   4.220  18.861  0.00  0.00    +0.000 C 
ATOM     32  C   UNL     1       1.818   2.949  19.583  0.00  0.00    +0.000 C 
ATOM     33  C   UNL     1       2.764   2.299  18.577  0.00  0.00    +0.000 C 
ATOM     34  C   UNL     1       3.426   3.480  17.865  0.00  0.00    +0.000 C 
ENDBRANCH  25  28
ENDBRANCH  20  22
ENDBRANCH   4  18
TORSDOF 4
ENDMDL
MODEL 3
REMARK VINA RESULT:      -8.5      5.510      9.493
REMARK  Name = 
REMARK  5 active torsions:
REMARK  status: ('A' for Active; 'I' for Inactive)
REMARK    1  A    between atoms: C_1  and  C_2
REMARK    2  A    between atoms: C_4  and  C_5
REMARK    3  A    between atoms: N_7  and  C_8
REMARK    4  A    between atoms: C_11  and  C_12
REMARK    5  A    between atoms: N_21  and  C_22
REMARK                            x       y       z     vdW  Elec       q    Type
REMARK                         _______ _______ _______ _____ _____    ______ ____
ROOT
ATOM      1  C   UNL     1      -0.888  14.792  22.831  0.00  0.00    +0.000 C 
ATOM      2  C   UNL     1      -0.931  13.504  22.096  0.00  0.00    +0.000 A 
ATOM      3  C   UNL     1      -0.431  12.243  22.484  0.00  0.00    +0.000 A 
ATOM      4  C   UNL     1      -0.694  11.400  21.417  0.00  0.00    +0.000 A 
ATOM      5  N   UNL     1      -1.459  12.153  20.539  0.00  0.00    +0.000 N 
ATOM      6  N   UNL     1      -1.477  13.466  20.880  0.00  0.00    +0.000 NA
ENDROOT
BRANCH   5   7
ATOM      7  C   UNL     1      -2.241  11.715  19.444  0.00  0.00    +0.000 A 
ATOM      8  C   UNL     1      -3.564  12.152  19.326  0.00  0.00    +0.000 A 
ATOM      9  C   UNL     1      -4.275  11.862  18.162  0.00  0.00    +0.000 A 
ATOM     10  C   UNL     1      -3.696  11.072  17.153  0.00  0.00    +0.000 A 
ATOM     11  C   UNL     1      -4.287  10.933  15.891  0.00  0.00    +0.000 A 
ATOM     12  C   UNL     1      -3.663  10.154  14.917  0.00  0.00    +0.000 A 
ATOM     13 CL   UNL     1      -4.109  10.335  13.265  0.00  0.00    +0.000 Cl
ATOM     14  C   UNL     1      -2.582   9.341  15.242  0.00  0.00    +0.000 A 
ATOM     15  C   UNL     1      -1.954   9.518  16.469  0.00  0.00    +0.000 A 
ATOM     16  C   UNL     1      -2.444  10.462  17.382  0.00  0.00    +0.000 A 
ATOM     17  C   UNL     1      -1.692  10.843  18.495  0.00  0.00    +0.000 A 
ENDBRANCH   5   7
BRANCH   4  18
ATOM     18  C   UNL     1      -0.207  10.071  21.111  0.00  0.00    +0.000 C 
ATOM     19  O   UNL     1      -0.722   9.075  21.590  0.00  0.00    +0.000 OA
ATOM     20  N   UNL     1       0.865  10.029  20.230  0.00  0.00    +0.000 N 
ATOM     21  H   UNL     1       1.287  10.922  19.990  0.00  0.00    +0.000 HD
BRANCH  20  22
ATOM     22  C   UNL     1       1.457   8.879  19.680  0.00  0.00    +0.000 A 
ATOM     23  C   UNL     1       1.820   7.760  20.425  0.00  0.00    +0.000 A 
ATOM     24  C   UNL     1       2.421   6.653  19.819  0.00  0.00    +0.000 A 
ATOM     25  C   UNL     1       2.646   6.635  18.440  0.00  0.00    +0.000 A 
ATOM     26  C   UNL     1       2.193   7.716  17.676  0.00  0.00    +0.000 A 
ATOM     27  C   UNL     1       1.643   8.843  18.295  0.00  0.00    +0.000 A 
BRANCH  25  28
ATOM     28  C   UNL     1       3.234   5.402  17.848  0.00  0.00    +0.000 C 
ATOM     29  O   UNL     1       2.480   4.447  17.664  0.00  0.00    +0.000 OA
ATOM     30  N   UNL     1       4.570   5.343  17.498  0.00  0.00    +0.000 N 
ATOM     31  C   UNL     1       5.681   6.226  17.815  0.00  0.00    +0.000 C 
ATOM     32  C   UNL     1       6.528   6.105  16.560  0.00  0.00    +0.000 C 
ATOM     33  C   UNL     1       6.454   4.610  16.262  0.00  0.00    +0.000 C 
ATOM     34  C   UNL     1       5.066   4.196  16.752  0.00  0.00    +0.000 C 
ENDBRANCH  25  28
ENDBRANCH  20  22
ENDBRANCH   4  18
TORSDOF 4
ENDMDL
MODEL 4
REMARK VINA RESULT:      -8.5      4.474      6.654
REMARK  Name = 
REMARK  5 active torsions:
REMARK  status: ('A' for Active; 'I' for Inactive)
REMARK    1  A    between atoms: C_1  and  C_2
REMARK    2  A    between atoms: C_4  and  C_5
REMARK    3  A    between atoms: N_7  and  C_8
REMARK    4  A    between atoms: C_11  and  C_12
REMARK    5  A    between atoms: N_21  and  C_22
REMARK                            x       y       z     vdW  Elec       q    Type
REMARK                         _______ _______ _______ _____ _____    ______ ____
ROOT
ATOM      1  C   UNL     1      -3.335  11.215  17.839  0.00  0.00    +0.000 C 
ATOM      2  C   UNL     1      -1.876  11.226  18.106  0.00  0.00    +0.000 A 
ATOM      3  C   UNL     1      -1.033  12.322  18.384  0.00  0.00    +0.000 A 
ATOM      4  C   UNL     1       0.238  11.786  18.509  0.00  0.00    +0.000 A 
ATOM      5  N   UNL     1       0.059  10.411  18.455  0.00  0.00    +0.000 N 
ATOM      6  N   UNL     1      -1.197  10.079  18.065  0.00  0.00    +0.000 NA
ENDROOT
BRANCH   5   7
ATOM      7  C   UNL     1       0.961   9.385  18.821  0.00  0.00    +0.000 A 
ATOM      8  C   UNL     1       0.991   8.935  20.144  0.00  0.00    +0.000 A 
ATOM      9  C   UNL     1       1.751   7.810  20.464  0.00  0.00    +0.000 A 
ATOM     10  C   UNL     1       2.541   7.184  19.485  0.00  0.00    +0.000 A 
ATOM     11  C   UNL     1       3.148   5.941  19.706  0.00  0.00    +0.000 A 
ATOM     12  C   UNL     1       3.906   5.351  18.695  0.00  0.00    +0.000 A 
ATOM     13 CL   UNL     1       4.266   3.670  18.768  0.00  0.00    +0.000 Cl
ATOM     14  C   UNL     1       4.248   6.068  17.553  0.00  0.00    +0.000 A 
ATOM     15  C   UNL     1       3.603   7.273  17.297  0.00  0.00    +0.000 A 
ATOM     16  C   UNL     1       2.666   7.777  18.210  0.00  0.00    +0.000 A 
ATOM     17  C   UNL     1       1.821   8.834  17.863  0.00  0.00    +0.000 A 
ENDBRANCH   5   7
BRANCH   4  18
ATOM     18  C   UNL     1       1.539  12.419  18.540  0.00  0.00    +0.000 C 
ATOM     19  O   UNL     1       2.516  11.901  18.024  0.00  0.00    +0.000 OA
ATOM     20  N   UNL     1       1.578  13.651  19.179  0.00  0.00    +0.000 N 
ATOM     21  H   UNL     1       0.734  13.928  19.675  0.00  0.00    +0.000 HD
BRANCH  20  22
ATOM     22  C   UNL     1       2.674  14.526  19.255  0.00  0.00    +0.000 A 
ATOM     23  C   UNL     1       3.582  14.545  20.312  0.00  0.00    +0.000 A 
ATOM     24  C   UNL     1       4.644  15.453  20.336  0.00  0.00    +0.000 A 
ATOM     25  C   UNL     1       4.835  16.348  19.280  0.00  0.00    +0.000 A 
ATOM     26  C   UNL     1       3.984  16.265  18.173  0.00  0.00    +0.000 A 
ATOM     27  C   UNL     1       2.891  15.392  18.180  0.00  0.00    +0.000 A 
BRANCH  25  28
ATOM     28  C   UNL     1       6.020  17.247  19.338  0.00  0.00    +0.000 C 
ATOM     29  O   UNL     1       5.875  18.340  19.887  0.00  0.00    +0.000 OA
ATOM     30  N   UNL     1       7.239  16.859  18.816  0.00  0.00    +0.000 N 
ATOM     31  C   UNL     1       7.597  15.752  17.944  0.00  0.00    +0.000 C 
ATOM     32  C   UNL     1       8.996  15.423  18.435  0.00  0.00    +0.000 C 
ATOM     33  C   UNL     1       9.602  16.809  18.640  0.00  0.00    +0.000 C 
ATOM     34  C   UNL     1       8.416  17.680  19.057  0.00  0.00    +0.000 C 
ENDBRANCH  25  28
ENDBRANCH  20  22
ENDBRANCH   4  18
TORSDOF 4
ENDMDL
MODEL 5
REMARK VINA RESULT:      -8.4      4.925     10.092
REMARK  Name = 
REMARK  5 active torsions:
REMARK  status: ('A' for Active; 'I' for Inactive)
REMARK    1  A    between atoms: C_1  and  C_2
REMARK    2  A    between atoms: C_4  and  C_5
REMARK    3  A    between atoms: N_7  and  C_8
REMARK    4  A    between atoms: C_11  and  C_12
REMARK    5  A    between atoms: N_21  and  C_22
REMARK                            x       y       z     vdW  Elec       q    Type
REMARK                         _______ _______ _______ _____ _____    ______ ____
ROOT
ATOM      1  C   UNL     1      -2.480  13.953  23.567  0.00  0.00    +0.000 C 
ATOM      2  C   UNL     1      -1.666  13.300  22.513  0.00  0.00    +0.000 A 
ATOM      3  C   UNL     1      -1.987  12.191  21.703  0.00  0.00    +0.000 A 
ATOM      4  C   UNL     1      -0.864  11.968  20.924  0.00  0.00    +0.000 A 
ATOM      5  N   UNL     1      -0.014  13.029  21.198  0.00  0.00    +0.000 N 
ATOM      6  N   UNL     1      -0.436  13.753  22.266  0.00  0.00    +0.000 NA
ENDROOT
BRANCH   5   7
ATOM      7  C   UNL     1       1.125  13.462  20.480  0.00  0.00    +0.000 A 
ATOM      8  C   UNL     1       1.074  13.530  19.085  0.00  0.00    +0.000 A 
ATOM      9  C   UNL     1       2.131  14.119  18.393  0.00  0.00    +0.000 A 
ATOM     10  C   UNL     1       3.271  14.566  19.083  0.00  0.00    +0.000 A 
ATOM     11  C   UNL     1       4.255  15.346  18.461  0.00  0.00    +0.000 A 
ATOM     12  C   UNL     1       5.358  15.783  19.194  0.00  0.00    +0.000 A 
ATOM     13 CL   UNL     1       6.314  17.086  18.603  0.00  0.00    +0.000 Cl
ATOM     14  C   UNL     1       5.609  15.282  20.467  0.00  0.00    +0.000 A 
ATOM     15  C   UNL     1       4.612  14.559  21.113  0.00  0.00    +0.000 A 
ATOM     16  C   UNL     1       3.399  14.296  20.462  0.00  0.00    +0.000 A 
ATOM     17  C   UNL     1       2.296  13.809  21.167  0.00  0.00    +0.000 A 
ENDBRANCH   5   7
BRANCH   4  18
ATOM     18  C   UNL     1      -0.489  10.841  20.096  0.00  0.00    +0.000 C 
ATOM     19  O   UNL     1      -1.132  10.531  19.106  0.00  0.00    +0.000 OA
ATOM     20  N   UNL     1       0.653  10.166  20.506  0.00  0.00    +0.000 N 
ATOM     21  H   UNL     1       1.038  10.437  21.408  0.00  0.00    +0.000 HD
BRANCH  20  22
ATOM     22  C   UNL     1       1.299   9.117  19.830  0.00  0.00    +0.000 A 
ATOM     23  C   UNL     1       1.765   9.208  18.520  0.00  0.00    +0.000 A 
ATOM     24  C   UNL     1       2.386   8.121  17.897  0.00  0.00    +0.000 A 
ATOM     25  C   UNL     1       2.578   6.923  18.590  0.00  0.00    +0.000 A 
ATOM     26  C   UNL     1       2.199   6.861  19.935  0.00  0.00    +0.000 A 
ATOM     27  C   UNL     1       1.530   7.933  20.534  0.00  0.00    +0.000 A 
BRANCH  25  28
ATOM     28  C   UNL     1       3.299   5.824  17.890  0.00  0.00    +0.000 C 
ATOM     29  O   UNL     1       4.394   6.091  17.396  0.00  0.00    +0.000 OA
ATOM     30  N   UNL     1       2.768   4.550  17.821  0.00  0.00    +0.000 N 
ATOM     31  C   UNL     1       1.434   4.053  18.116  0.00  0.00    +0.000 C 
ATOM     32  C   UNL     1       1.741   2.658  18.635  0.00  0.00    +0.000 C 
ATOM     33  C   UNL     1       2.826   2.186  17.671  0.00  0.00    +0.000 C 
ATOM     34  C   UNL     1       3.581   3.462  17.298  0.00  0.00    +0.000 C 
ENDBRANCH  25  28
ENDBRANCH  20  22
ENDBRANCH   4  18
TORSDOF 4
ENDMDL
MODEL 6
REMARK VINA RESULT:      -8.3      4.563      6.949
REMARK  Name = 
REMARK  5 active torsions:
REMARK  status: ('A' for Active; 'I' for Inactive)
REMARK    1  A    between atoms: C_1  and  C_2
REMARK    2  A    between atoms: C_4  and  C_5
REMARK    3  A    between atoms: N_7  and  C_8
REMARK    4  A    between atoms: C_11  and  C_12
REMARK    5  A    between atoms: N_21  and  C_22
REMARK                            x       y       z     vdW  Elec       q    Type
REMARK                         _______ _______ _______ _____ _____    ______ ____
ROOT
ATOM      1  C   UNL     1      -3.637  12.646  19.753  0.00  0.00    +0.000 C 
ATOM      2  C   UNL     1      -2.179  12.434  19.924  0.00  0.00    +0.000 A 
ATOM      3  C   UNL     1      -1.200  13.334  20.393  0.00  0.00    +0.000 A 
ATOM      4  C   UNL     1      -0.000  12.648  20.312  0.00  0.00    +0.000 A 
ATOM      5  N   UNL     1      -0.346  11.353  19.954  0.00  0.00    +0.000 N 
ATOM      6  N   UNL     1      -1.646  11.261  19.577  0.00  0.00    +0.000 NA
ENDROOT
BRANCH   5   7
ATOM      7  C   UNL     1       0.437  10.177  20.017  0.00  0.00    +0.000 A 
ATOM      8  C   UNL     1       0.518   9.467  21.219  0.00  0.00    +0.000 A 
ATOM      9  C   UNL     1       1.144   8.221  21.234  0.00  0.00    +0.000 A 
ATOM     10  C   UNL     1       1.757   7.720  20.073  0.00  0.00    +0.000 A 
ATOM     11  C   UNL     1       2.208   6.396  19.985  0.00  0.00    +0.000 A 
ATOM     12  C   UNL     1       2.791   5.941  18.804  0.00  0.00    +0.000 A 
ATOM     13 CL   UNL     1       2.926   4.250  18.516  0.00  0.00    +0.000 Cl
ATOM     14  C   UNL     1       3.129   6.829  17.789  0.00  0.00    +0.000 A 
ATOM     15  C   UNL     1       2.632   8.127  17.839  0.00  0.00    +0.000 A 
ATOM     16  C   UNL     1       1.853   8.541  18.928  0.00  0.00    +0.000 A 
ATOM     17  C   UNL     1       1.131   9.736  18.883  0.00  0.00    +0.000 A 
ENDBRANCH   5   7
BRANCH   4  18
ATOM     18  C   UNL     1       1.369  13.109  20.406  0.00  0.00    +0.000 C 
ATOM     19  O   UNL     1       2.156  12.621  21.200  0.00  0.00    +0.000 OA
ATOM     20  N   UNL     1       1.708  14.123  19.520  0.00  0.00    +0.000 N 
ATOM     21  H   UNL     1       0.943  14.533  18.990  0.00  0.00    +0.000 HD
BRANCH  20  22
ATOM     22  C   UNL     1       2.985  14.674  19.321  0.00  0.00    +0.000 A 
ATOM     23  C   UNL     1       3.690  15.377  20.296  0.00  0.00    +0.000 A 
ATOM     24  C   UNL     1       4.951  15.915  20.028  0.00  0.00    +0.000 A 
ATOM     25  C   UNL     1       5.548  15.734  18.778  0.00  0.00    +0.000 A 
ATOM     26  C   UNL     1       4.887  14.946  17.830  0.00  0.00    +0.000 A 
ATOM     27  C   UNL     1       3.601  14.458  18.085  0.00  0.00    +0.000 A 
BRANCH  25  28
ATOM     28  C   UNL     1       6.919  16.280  18.577  0.00  0.00    +0.000 C 
ATOM     29  O   UNL     1       7.045  17.505  18.571  0.00  0.00    +0.000 OA
ATOM     30  N   UNL     1       8.007  15.442  18.427  0.00  0.00    +0.000 N 
ATOM     31  C   UNL     1       8.087  14.012  18.177  0.00  0.00    +0.000 C 
ATOM     32  C   UNL     1       9.357  13.646  18.925  0.00  0.00    +0.000 C 
ATOM     33  C   UNL     1      10.285  14.806  18.574  0.00  0.00    +0.000 C 
ATOM     34  C   UNL     1       9.350  16.006  18.423  0.00  0.00    +0.000 C 
ENDBRANCH  25  28
ENDBRANCH  20  22
ENDBRANCH   4  18
TORSDOF 4
ENDMDL
MODEL 7
REMARK VINA RESULT:      -8.3      4.862     10.044
REMARK  Name = 
REMARK  5 active torsions:
REMARK  status: ('A' for Active; 'I' for Inactive)
REMARK    1  A    between atoms: C_1  and  C_2
REMARK    2  A    between atoms: C_4  and  C_5
REMARK    3  A    between atoms: N_7  and  C_8
REMARK    4  A    between atoms: C_11  and  C_12
REMARK    5  A    between atoms: N_21  and  C_22
REMARK                            x       y       z     vdW  Elec       q    Type
REMARK                         _______ _______ _______ _____ _____    ______ ____
ROOT
ATOM      1  C   UNL     1      -3.034  13.588  23.157  0.00  0.00    +0.000 C 
ATOM      2  C   UNL     1      -1.823  13.009  22.525  0.00  0.00    +0.000 A 
ATOM      3  C   UNL     1      -1.532  11.660  22.233  0.00  0.00    +0.000 A 
ATOM      4  C   UNL     1      -0.259  11.667  21.690  0.00  0.00    +0.000 A 
ATOM      5  N   UNL     1       0.068  13.008  21.548  0.00  0.00    +0.000 N 
ATOM      6  N   UNL     1      -0.815  13.815  22.188  0.00  0.00    +0.000 NA
ENDROOT
BRANCH   5   7
ATOM      7  C   UNL     1       1.107  13.591  20.786  0.00  0.00    +0.000 A 
ATOM      8  C   UNL     1       0.852  14.003  19.475  0.00  0.00    +0.000 A 
ATOM      9  C   UNL     1       1.822  14.732  18.789  0.00  0.00    +0.000 A 
ATOM     10  C   UNL     1       3.073  14.983  19.379  0.00  0.00    +0.000 A 
ATOM     11  C   UNL     1       3.990  15.881  18.819  0.00  0.00    +0.000 A 
ATOM     12  C   UNL     1       5.210  16.110  19.454  0.00  0.00    +0.000 A 
ATOM     13 CL   UNL     1       6.131  17.508  19.053  0.00  0.00    +0.000 Cl
ATOM     14  C   UNL     1       5.623  15.308  20.512  0.00  0.00    +0.000 A 
ATOM     15  C   UNL     1       4.700  14.459  21.112  0.00  0.00    +0.000 A 
ATOM     16  C   UNL     1       3.391  14.378  20.615  0.00  0.00    +0.000 A 
ATOM     17  C   UNL     1       2.383  13.745  21.344  0.00  0.00    +0.000 A 
ENDBRANCH   5   7
BRANCH   4  18
ATOM     18  C   UNL     1       0.673  10.589  21.433  0.00  0.00    +0.000 C 
ATOM     19  O   UNL     1       1.408  10.157  22.304  0.00  0.00    +0.000 OA
ATOM     20  N   UNL     1       0.645  10.086  20.139  0.00  0.00    +0.000 N 
ATOM     21  H   UNL     1       0.080  10.601  19.467  0.00  0.00    +0.000 HD
BRANCH  20  22
ATOM     22  C   UNL     1       1.355   8.976  19.652  0.00  0.00    +0.000 A 
ATOM     23  C   UNL     1       1.520   7.787  20.360  0.00  0.00    +0.000 A 
ATOM     24  C   UNL     1       2.253   6.724  19.826  0.00  0.00    +0.000 A 
ATOM     25  C   UNL     1       2.816   6.822  18.551  0.00  0.00    +0.000 A 
ATOM     26  C   UNL     1       2.570   7.975  17.799  0.00  0.00    +0.000 A 
ATOM     27  C   UNL     1       1.883   9.056  18.361  0.00  0.00    +0.000 A 
BRANCH  25  28
ATOM     28  C   UNL     1       3.533   5.632  18.016  0.00  0.00    +0.000 C 
ATOM     29  O   UNL     1       4.727   5.764  17.745  0.00  0.00    +0.000 OA
ATOM     30  N   UNL     1       2.888   4.421  17.853  0.00  0.00    +0.000 N 
ATOM     31  C   UNL     1       1.475   4.079  17.884  0.00  0.00    +0.000 C 
ATOM     32  C   UNL     1       1.518   2.675  18.464  0.00  0.00    +0.000 C 
ATOM     33  C   UNL     1       2.710   2.060  17.736  0.00  0.00    +0.000 C 
ATOM     34  C   UNL     1       3.661   3.236  17.510  0.00  0.00    +0.000 C 
ENDBRANCH  25  28
ENDBRANCH  20  22
ENDBRANCH   4  18
TORSDOF 4
ENDMDL
MODEL 8
REMARK VINA RESULT:      -8.2      5.933     10.041
REMARK  Name = 
REMARK  5 active torsions:
REMARK  status: ('A' for Active; 'I' for Inactive)
REMARK    1  A    between atoms: C_1  and  C_2
REMARK    2  A    between atoms: C_4  and  C_5
REMARK    3  A    between atoms: N_7  and  C_8
REMARK    4  A    between atoms: C_11  and  C_12
REMARK    5  A    between atoms: N_21  and  C_22
REMARK                            x       y       z     vdW  Elec       q    Type
REMARK                         _______ _______ _______ _____ _____    ______ ____
ROOT
ATOM      1  C   UNL     1      -2.627  13.837  24.188  0.00  0.00    +0.000 C 
ATOM      2  C   UNL     1      -1.949  13.080  23.107  0.00  0.00    +0.000 A 
ATOM      3  C   UNL     1      -0.994  12.047  23.212  0.00  0.00    +0.000 A 
ATOM      4  C   UNL     1      -0.659  11.723  21.908  0.00  0.00    +0.000 A 
ATOM      5  N   UNL     1      -1.529  12.457  21.116  0.00  0.00    +0.000 N 
ATOM      6  N   UNL     1      -2.208  13.387  21.835  0.00  0.00    +0.000 NA
ENDROOT
BRANCH   5   7
ATOM      7  C   UNL     1      -1.829  12.297  19.743  0.00  0.00    +0.000 A 
ATOM      8  C   UNL     1      -0.831  12.518  18.790  0.00  0.00    +0.000 A 
ATOM      9  C   UNL     1      -1.077  12.191  17.457  0.00  0.00    +0.000 A 
ATOM     10  C   UNL     1      -2.342  11.721  17.062  0.00  0.00    +0.000 A 
ATOM     11  C   UNL     1      -2.569  11.186  15.787  0.00  0.00    +0.000 A 
ATOM     12  C   UNL     1      -3.836  10.714  15.450  0.00  0.00    +0.000 A 
ATOM     13 CL   UNL     1      -4.024   9.662  14.102  0.00  0.00    +0.000 Cl
ATOM     14  C   UNL     1      -4.928  10.958  16.276  0.00  0.00    +0.000 A 
ATOM     15  C   UNL     1      -4.705  11.430  17.564  0.00  0.00    +0.000 A 
ATOM     16  C   UNL     1      -3.400  11.707  17.996  0.00  0.00    +0.000 A 
ATOM     17  C   UNL     1      -3.121  11.927  19.347  0.00  0.00    +0.000 A 
ENDBRANCH   5   7
BRANCH   4  18
ATOM     18  C   UNL     1       0.430  10.933  21.373  0.00  0.00    +0.000 C 
ATOM     19  O   UNL     1       1.592  11.285  21.486  0.00  0.00    +0.000 OA
ATOM     20  N   UNL     1       0.047   9.754  20.747  0.00  0.00    +0.000 N 
ATOM     21  H   UNL     1      -0.952   9.622  20.606  0.00  0.00    +0.000 HD
BRANCH  20  22
ATOM     22  C   UNL     1       0.897   8.754  20.245  0.00  0.00    +0.000 A 
ATOM     23  C   UNL     1       1.180   7.566  20.916  0.00  0.00    +0.000 A 
ATOM     24  C   UNL     1       2.048   6.617  20.368  0.00  0.00    +0.000 A 
ATOM     25  C   UNL     1       2.631   6.829  19.117  0.00  0.00    +0.000 A 
ATOM     26  C   UNL     1       2.273   7.974  18.398  0.00  0.00    +0.000 A 
ATOM     27  C   UNL     1       1.448   8.945  18.975  0.00  0.00    +0.000 A 
BRANCH  25  28
ATOM     28  C   UNL     1       3.499   5.753  18.563  0.00  0.00    +0.000 C 
ATOM     29  O   UNL     1       4.706   5.981  18.488  0.00  0.00    +0.000 OA
ATOM     30  N   UNL     1       2.969   4.538  18.173  0.00  0.00    +0.000 N 
ATOM     31  C   UNL     1       1.593   4.119  17.956  0.00  0.00    +0.000 C 
ATOM     32  C   UNL     1       1.653   2.660  18.375  0.00  0.00    +0.000 C 
ATOM     33  C   UNL     1       2.976   2.203  17.768  0.00  0.00    +0.000 C 
ATOM     34  C   UNL     1       3.864   3.446  17.817  0.00  0.00    +0.000 C 
ENDBRANCH  25  28
ENDBRANCH  20  22
ENDBRANCH   4  18
TORSDOF 4
ENDMDL
MODEL 9
REMARK VINA RESULT:      -8.1      5.986      8.353
REMARK  Name = 
REMARK  5 active torsions:
REMARK  status: ('A' for Active; 'I' for Inactive)
REMARK    1  A    between atoms: C_1  and  C_2
REMARK    2  A    between atoms: C_4  and  C_5
REMARK    3  A    between atoms: N_7  and  C_8
REMARK    4  A    between atoms: C_11  and  C_12
REMARK    5  A    between atoms: N_21  and  C_22
REMARK                            x       y       z     vdW  Elec       q    Type
REMARK                         _______ _______ _______ _____ _____    ______ ____
ROOT
ATOM      1  C   UNL     1       4.853   0.899  21.709  0.00  0.00    +0.000 C 
ATOM      2  C   UNL     1       4.460   2.035  20.840  0.00  0.00    +0.000 A 
ATOM      3  C   UNL     1       3.524   3.061  21.089  0.00  0.00    +0.000 A 
ATOM      4  C   UNL     1       3.509   3.832  19.939  0.00  0.00    +0.000 A 
ATOM      5  N   UNL     1       4.528   3.323  19.147  0.00  0.00    +0.000 N 
ATOM      6  N   UNL     1       5.004   2.146  19.627  0.00  0.00    +0.000 NA
ENDROOT
BRANCH   5   7
ATOM      7  C   UNL     1       5.143   3.903  18.013  0.00  0.00    +0.000 A 
ATOM      8  C   UNL     1       6.247   4.743  18.183  0.00  0.00    +0.000 A 
ATOM      9  C   UNL     1       6.956   5.171  17.062  0.00  0.00    +0.000 A 
ATOM     10  C   UNL     1       6.520   4.828  15.770  0.00  0.00    +0.000 A 
ATOM     11  C   UNL     1       7.309   5.056  14.636  0.00  0.00    +0.000 A 
ATOM     12  C   UNL     1       6.839   4.680  13.378  0.00  0.00    +0.000 A 
ATOM     13 CL   UNL     1       7.942   4.526  12.066  0.00  0.00    +0.000 Cl
ATOM     14  C   UNL     1       5.519   4.281  13.203  0.00  0.00    +0.000 A 
ATOM     15  C   UNL     1       4.749   3.994  14.325  0.00  0.00    +0.000 A 
ATOM     16  C   UNL     1       5.285   4.162  15.609  0.00  0.00    +0.000 A 
ATOM     17  C   UNL     1       4.640   3.641  16.732  0.00  0.00    +0.000 A 
ENDBRANCH   5   7
BRANCH   4  18
ATOM     18  C   UNL     1       2.589   4.856  19.491  0.00  0.00    +0.000 C 
ATOM     19  O   UNL     1       1.508   4.575  19.001  0.00  0.00    +0.000 OA
ATOM     20  N   UNL     1       3.026   6.160  19.681  0.00  0.00    +0.000 N 
ATOM     21  H   UNL     1       3.989   6.273  19.987  0.00  0.00    +0.000 HD
BRANCH  20  22
ATOM     22  C   UNL     1       2.293   7.336  19.444  0.00  0.00    +0.000 A 
ATOM     23  C   UNL     1       2.179   7.942  18.195  0.00  0.00    +0.000 A 
ATOM     24  C   UNL     1       1.448   9.122  18.029  0.00  0.00    +0.000 A 
ATOM     25  C   UNL     1       0.790   9.706  19.114  0.00  0.00    +0.000 A 
ATOM     26  C   UNL     1       0.821   9.047  20.348  0.00  0.00    +0.000 A 
ATOM     27  C   UNL     1       1.600   7.898  20.519  0.00  0.00    +0.000 A 
BRANCH  25  28
ATOM     28  C   UNL     1      -0.021  10.928  18.858  0.00  0.00    +0.000 C 
ATOM     29  O   UNL     1       0.501  12.016  19.104  0.00  0.00    +0.000 OA
ATOM     30  N   UNL     1      -1.300  10.843  18.343  0.00  0.00    +0.000 N 
ATOM     31  C   UNL     1      -2.195   9.707  18.188  0.00  0.00    +0.000 C 
ATOM     32  C   UNL     1      -2.942  10.084  16.920  0.00  0.00    +0.000 C 
ATOM     33  C   UNL     1      -3.197  11.575  17.124  0.00  0.00    +0.000 C 
ATOM     34  C   UNL     1      -1.989  12.057  17.929  0.00  0.00    +0.000 C 
ENDBRANCH  25  28
ENDBRANCH  20  22
ENDBRANCH   4  18
TORSDOF 4
ENDMDL
