MODEL 1
REMARK VINA RESULT:      -7.4      0.000      0.000
REMARK  Name = 
REMARK  14 active torsions:
REMARK  status: ('A' for Active; 'I' for Inactive)
REMARK    1  A    between atoms: C_1  and  C_2
REMARK    2  A    between atoms: C_4  and  C_5
REMARK    3  A    between atoms: C_7  and  C_8
REMARK    4  A    between atoms: C_10  and  N_11
REMARK    5  A    between atoms: N_11  and  C_12
REMARK    6  A    between atoms: C_12  and  C_13
REMARK    7  A    between atoms: C_20  and  C_21
REMARK    8  A    between atoms: N_23  and  CA_24
REMARK    9  A    between atoms: CA_24  and  CB_25
REMARK   10  A    between atoms: CA_24  and  C_29
REMARK   11  A    between atoms: CB_25  and  CG_26
REMARK   12  A    between atoms: CG_26  and  CD1_27
REMARK   13  A    between atoms: CG_26  and  CD2_28
REMARK   14  A    between atoms: C_29  and  OXT_31
REMARK                            x       y       z     vdW  Elec       q    Type
REMARK                         _______ _______ _______ _____ _____    ______ ____
ROOT
ATOM      1  C   UNK A   0       3.261   6.270  18.980  0.00  0.00    +0.000 A 
ATOM      2  C   UNK A   0       3.242   5.132  19.829  0.00  0.00    +0.000 A 
ATOM      3  C   UNK A   0       2.310   4.946  20.864  0.00  0.00    +0.000 A 
ATOM      4  C   UNK A   0       1.411   5.978  21.109  0.00  0.00    +0.000 A 
ATOM      5  C   UNK A   0       1.374   7.103  20.284  0.00  0.00    +0.000 A 
ATOM      6  C   UNK A   0       2.278   7.263  19.217  0.00  0.00    +0.000 A 
ENDROOT
BRANCH   1  13
ATOM      7  C   UNK A   0       5.387   4.390  14.844  0.00  0.00    +0.000 C 
ATOM      8  C   UNK A   0       5.423   5.370  15.982  0.00  0.00    +0.000 A 
ATOM      9  C   UNK A   0       6.536   6.184  16.201  0.00  0.00    +0.000 A 
ATOM     10  C   UNK A   0       6.539   7.118  17.242  0.00  0.00    +0.000 A 
ATOM     11  C   UNK A   0       7.767   7.924  17.551  0.00  0.00    +0.000 C 
ATOM     12  C   UNK A   0       5.405   7.244  18.060  0.00  0.00    +0.000 A 
ATOM     13  C   UNK A   0       4.329   6.351  17.951  0.00  0.00    +0.000 A 
ATOM     14  C   UNK A   0       4.340   5.449  16.868  0.00  0.00    +0.000 A 
ENDBRANCH   1  13
BRANCH   6  15
ATOM     15  C   UNK A   0       2.070   8.540  18.449  0.00  0.00    +0.000 C 
ATOM     16  O   UNK A   0       2.504   8.617  17.305  0.00  0.00    +0.000 OA
ATOM     17  N   LEU A   1       1.363   9.562  19.046  0.00  0.00    +0.000 N 
ATOM     18  H   LEU A   1       1.371   9.540  20.057  0.00  0.00    +0.000 HD
BRANCH  17  19
ATOM     19  CA  LEU A   1       1.293  10.897  18.398  0.00  0.00    +0.000 C 
BRANCH  19  20
ATOM     20  C   LEU A   1       1.708  11.985  19.407  0.00  0.00    +0.000 C 
ATOM     21  O   LEU A   1       1.471  11.946  20.604  0.00  0.00    +0.000 OA
BRANCH  20  22
ATOM     22  OXT LEU A   1       2.450  12.980  18.859  0.00  0.00    +0.000 OA
ATOM     23  HXT LEU A   1       2.299  13.062  17.898  0.00  0.00    +0.000 HD
ENDBRANCH  20  22
ENDBRANCH  19  20
BRANCH  19  24
ATOM     24  CB  LEU A   1      -0.134  11.164  17.881  0.00  0.00    +0.000 C 
BRANCH  24  25
ATOM     25  CG  LEU A   1      -1.301  10.670  18.761  0.00  0.00    +0.000 C 
ATOM     26  CD1 LEU A   1      -1.950  11.774  19.598  0.00  0.00    +0.000 C 
ATOM     27  CD2 LEU A   1      -2.361  10.009  17.873  0.00  0.00    +0.000 C 
ENDBRANCH  24  25
ENDBRANCH  19  24
ENDBRANCH  17  19
ENDBRANCH   6  15
BRANCH   3  28
ATOM     28  N   UNK A   0       2.422   3.815  21.684  0.00  0.00    +0.000 N 
ATOM     29  H   UNK A   0       3.387   3.638  21.960  0.00  0.00    +0.000 HD
BRANCH  28  30
ATOM     30  C   UNK A   0       1.843   2.559  21.187  0.00  0.00    +0.000 C 
BRANCH  30  31
ATOM     31  C   UNK A   0       2.215   2.219  19.774  0.00  0.00    +0.000 A 
ATOM     32  C   UNK A   0       1.412   2.178  18.655  0.00  0.00    +0.000 A 
ATOM     33  N   UNK A   0       2.239   1.813  17.628  0.00  0.00    +0.000 N 
ATOM     34  C   UNK A   0       3.486   1.641  18.147  0.00  0.00    +0.000 A 
ATOM     35  N   UNK A   0       3.507   1.866  19.440  0.00  0.00    +0.000 NA
ATOM     36  H   UNK A   0       1.975   1.692  16.659  0.00  0.00    +0.000 HD
ENDBRANCH  30  31
ENDBRANCH  28  30
ENDBRANCH   3  28
TORSDOF 10
ENDMDL
MODEL 2
REMARK VINA RESULT:      -7.3      3.633      7.258
REMARK  Name = 
REMARK  14 active torsions:
REMARK  status: ('A' for Active; 'I' for Inactive)
REMARK    1  A    between atoms: C_1  and  C_2
REMARK    2  A    between atoms: C_4  and  C_5
REMARK    3  A    between atoms: C_7  and  C_8
REMARK    4  A    between atoms: C_10  and  N_11
REMARK    5  A    between atoms: N_11  and  C_12
REMARK    6  A    between atoms: C_12  and  C_13
REMARK    7  A    between atoms: C_20  and  C_21
REMARK    8  A    between atoms: N_23  and  CA_24
REMARK    9  A    between atoms: CA_24  and  CB_25
REMARK   10  A    between atoms: CA_24  and  C_29
REMARK   11  A    between atoms: CB_25  and  CG_26
REMARK   12  A    between atoms: CG_26  and  CD1_27
REMARK   13  A    between atoms: CG_26  and  CD2_28
REMARK   14  A    between atoms: C_29  and  OXT_31
REMARK                            x       y       z     vdW  Elec       q    Type
REMARK                         _______ _______ _______ _____ _____    ______ ____
ROOT
ATOM      1  C   UNK A   0       4.514   5.219  18.116  0.00  0.00    +0.000 A 
ATOM      2  C   UNK A   0       3.528   5.622  19.055  0.00  0.00    +0.000 A 
ATOM      3  C   UNK A   0       2.181   5.227  18.989  0.00  0.00    +0.000 A 
ATOM      4  C   UNK A   0       1.791   4.462  17.896  0.00  0.00    +0.000 A 
ATOM      5  C   UNK A   0       2.730   4.020  16.963  0.00  0.00    +0.000 A 
ATOM      6  C   UNK A   0       4.087   4.378  17.058  0.00  0.00    +0.000 A 
ENDROOT
BRANCH   1  13
ATOM      7  C   UNK A   0       8.887   5.081  20.571  0.00  0.00    +0.000 C 
ATOM      8  C   UNK A   0       7.998   5.741  19.556  0.00  0.00    +0.000 A 
ATOM      9  C   UNK A   0       8.358   6.946  18.951  0.00  0.00    +0.000 A 
ATOM     10  C   UNK A   0       7.537   7.528  17.981  0.00  0.00    +0.000 A 
ATOM     11  C   UNK A   0       7.864   8.873  17.401  0.00  0.00    +0.000 C 
ATOM     12  C   UNK A   0       6.348   6.883  17.605  0.00  0.00    +0.000 A 
ATOM     13  C   UNK A   0       5.892   5.746  18.288  0.00  0.00    +0.000 A 
ATOM     14  C   UNK A   0       6.762   5.163  19.232  0.00  0.00    +0.000 A 
ENDBRANCH   1  13
BRANCH   6  15
ATOM     15  C   UNK A   0       4.934   3.797  15.959  0.00  0.00    +0.000 C 
ATOM     16  O   UNK A   0       5.435   2.690  16.123  0.00  0.00    +0.000 OA
ATOM     17  N   LEU A   1       5.083   4.515  14.792  0.00  0.00    +0.000 N 
ATOM     18  H   LEU A   1       4.947   5.512  14.895  0.00  0.00    +0.000 HD
BRANCH  17  19
ATOM     19  CA  LEU A   1       6.053   4.066  13.760  0.00  0.00    +0.000 C 
BRANCH  19  20
ATOM     20  C   LEU A   1       7.314   4.950  13.815  0.00  0.00    +0.000 C 
ATOM     21  O   LEU A   1       7.816   5.377  14.844  0.00  0.00    +0.000 OA
BRANCH  20  22
ATOM     22  OXT LEU A   1       7.888   5.157  12.603  0.00  0.00    +0.000 OA
ATOM     23  HXT LEU A   1       8.814   5.453  12.683  0.00  0.00    +0.000 HD
ENDBRANCH  20  22
ENDBRANCH  19  20
BRANCH  19  24
ATOM     24  CB  LEU A   1       5.412   4.137  12.360  0.00  0.00    +0.000 C 
BRANCH  24  25
ATOM     25  CG  LEU A   1       4.694   2.868  11.856  0.00  0.00    +0.000 C 
ATOM     26  CD1 LEU A   1       3.671   3.139  10.750  0.00  0.00    +0.000 C 
ATOM     27  CD2 LEU A   1       5.736   1.861  11.354  0.00  0.00    +0.000 C 
ENDBRANCH  24  25
ENDBRANCH  19  24
ENDBRANCH  17  19
ENDBRANCH   6  15
BRANCH   3  28
ATOM     28  N   UNK A   0       1.278   5.735  19.933  0.00  0.00    +0.000 N 
ATOM     29  H   UNK A   0       0.472   6.173  19.491  0.00  0.00    +0.000 HD
BRANCH  28  30
ATOM     30  C   UNK A   0       1.807   6.653  20.950  0.00  0.00    +0.000 C 
BRANCH  30  31
ATOM     31  C   UNK A   0       1.377   8.082  20.782  0.00  0.00    +0.000 A 
ATOM     32  C   UNK A   0       0.931   8.968  21.738  0.00  0.00    +0.000 A 
ATOM     33  N   UNK A   0       0.671  10.129  21.064  0.00  0.00    +0.000 N 
ATOM     34  C   UNK A   0       0.952   9.912  19.750  0.00  0.00    +0.000 A 
ATOM     35  N   UNK A   0       1.369   8.685  19.541  0.00  0.00    +0.000 NA
ATOM     36  H   UNK A   0       0.331  10.993  21.465  0.00  0.00    +0.000 HD
ENDBRANCH  30  31
ENDBRANCH  28  30
ENDBRANCH   3  28
TORSDOF 10
ENDMDL
MODEL 3
REMARK VINA RESULT:      -7.2      3.787      7.819
REMARK  Name = 
REMARK  14 active torsions:
REMARK  status: ('A' for Active; 'I' for Inactive)
REMARK    1  A    between atoms: C_1  and  C_2
REMARK    2  A    between atoms: C_4  and  C_5
REMARK    3  A    between atoms: C_7  and  C_8
REMARK    4  A    between atoms: C_10  and  N_11
REMARK    5  A    between atoms: N_11  and  C_12
REMARK    6  A    between atoms: C_12  and  C_13
REMARK    7  A    between atoms: C_20  and  C_21
REMARK    8  A    between atoms: N_23  and  CA_24
REMARK    9  A    between atoms: CA_24  and  CB_25
REMARK   10  A    between atoms: CA_24  and  C_29
REMARK   11  A    between atoms: CB_25  and  CG_26
REMARK   12  A    between atoms: CG_26  and  CD1_27
REMARK   13  A    between atoms: CG_26  and  CD2_28
REMARK   14  A    between atoms: C_29  and  OXT_31
REMARK                            x       y       z     vdW  Elec       q    Type
REMARK                         _______ _______ _______ _____ _____    ______ ____
ROOT
ATOM      1  C   UNK A   0      -1.543  11.054  19.366  0.00  0.00    +0.000 A 
ATOM      2  C   UNK A   0      -0.547  10.051  19.233  0.00  0.00    +0.000 A 
ATOM      3  C   UNK A   0       0.444   9.804  20.197  0.00  0.00    +0.000 A 
ATOM      4  C   UNK A   0       0.486  10.645  21.304  0.00  0.00    +0.000 A 
ATOM      5  C   UNK A   0      -0.490  11.626  21.491  0.00  0.00    +0.000 A 
ATOM      6  C   UNK A   0      -1.509  11.840  20.545  0.00  0.00    +0.000 A 
ENDROOT
BRANCH   1  13
ATOM      7  C   UNK A   0      -6.161  12.267  17.825  0.00  0.00    +0.000 C 
ATOM      8  C   UNK A   0      -4.794  11.732  17.507  0.00  0.00    +0.000 A 
ATOM      9  C   UNK A   0      -4.498  11.201  16.250  0.00  0.00    +0.000 A 
ATOM     10  C   UNK A   0      -3.210  10.741  15.959  0.00  0.00    +0.000 A 
ATOM     11  C   UNK A   0      -2.908  10.075  14.648  0.00  0.00    +0.000 C 
ATOM     12  C   UNK A   0      -2.207  10.829  16.936  0.00  0.00    +0.000 A 
ATOM     13  C   UNK A   0      -2.505  11.230  18.247  0.00  0.00    +0.000 A 
ATOM     14  C   UNK A   0      -3.801  11.724  18.496  0.00  0.00    +0.000 A 
ENDBRANCH   1  13
BRANCH   6  15
ATOM     15  C   UNK A   0      -2.461  12.938  20.934  0.00  0.00    +0.000 C 
ATOM     16  O   UNK A   0      -2.233  14.079  20.550  0.00  0.00    +0.000 OA
ATOM     17  N   LEU A   1      -3.577  12.611  21.675  0.00  0.00    +0.000 N 
ATOM     18  H   LEU A   1      -3.483  11.764  22.220  0.00  0.00    +0.000 HD
BRANCH  17  19
ATOM     19  CA  LEU A   1      -4.440  13.684  22.234  0.00  0.00    +0.000 C 
BRANCH  19  20
ATOM     20  C   LEU A   1      -4.461  13.585  23.772  0.00  0.00    +0.000 C 
ATOM     21  O   LEU A   1      -3.964  12.672  24.413  0.00  0.00    +0.000 OA
BRANCH  20  22
ATOM     22  OXT LEU A   1      -5.019  14.662  24.379  0.00  0.00    +0.000 OA
ATOM     23  HXT LEU A   1      -5.295  15.342  23.735  0.00  0.00    +0.000 HD
ENDBRANCH  20  22
ENDBRANCH  19  20
BRANCH  19  24
ATOM     24  CB  LEU A   1      -5.870  13.564  21.671  0.00  0.00    +0.000 C 
BRANCH  24  25
ATOM     25  CG  LEU A   1      -6.758  12.445  22.253  0.00  0.00    +0.000 C 
ATOM     26  CD1 LEU A   1      -7.916  12.962  23.111  0.00  0.00    +0.000 C 
ATOM     27  CD2 LEU A   1      -7.312  11.589  21.107  0.00  0.00    +0.000 C 
ENDBRANCH  24  25
ENDBRANCH  19  24
ENDBRANCH  17  19
ENDBRANCH   6  15
BRANCH   3  28
ATOM     28  N   UNK A   0       1.420   8.833  19.935  0.00  0.00    +0.000 N 
ATOM     29  H   UNK A   0       2.288   9.020  20.433  0.00  0.00    +0.000 HD
BRANCH  28  30
ATOM     30  C   UNK A   0       1.741   8.558  18.528  0.00  0.00    +0.000 C 
BRANCH  30  31
ATOM     31  C   UNK A   0       2.617   7.358  18.313  0.00  0.00    +0.000 A 
ATOM     32  C   UNK A   0       2.519   6.104  18.876  0.00  0.00    +0.000 A 
ATOM     33  N   UNK A   0       3.558   5.388  18.349  0.00  0.00    +0.000 N 
ATOM     34  C   UNK A   0       4.242   6.213  17.510  0.00  0.00    +0.000 A 
ATOM     35  N   UNK A   0       3.710   7.413  17.472  0.00  0.00    +0.000 NA
ATOM     36  H   UNK A   0       3.782   4.421  18.546  0.00  0.00    +0.000 HD
ENDBRANCH  30  31
ENDBRANCH  28  30
ENDBRANCH   3  28
TORSDOF 10
ENDMDL
MODEL 4
REMARK VINA RESULT:      -7.1      3.789      7.806
REMARK  Name = 
REMARK  14 active torsions:
REMARK  status: ('A' for Active; 'I' for Inactive)
REMARK    1  A    between atoms: C_1  and  C_2
REMARK    2  A    between atoms: C_4  and  C_5
REMARK    3  A    between atoms: C_7  and  C_8
REMARK    4  A    between atoms: C_10  and  N_11
REMARK    5  A    between atoms: N_11  and  C_12
REMARK    6  A    between atoms: C_12  and  C_13
REMARK    7  A    between atoms: C_20  and  C_21
REMARK    8  A    between atoms: N_23  and  CA_24
REMARK    9  A    between atoms: CA_24  and  CB_25
REMARK   10  A    between atoms: CA_24  and  C_29
REMARK   11  A    between atoms: CB_25  and  CG_26
REMARK   12  A    between atoms: CG_26  and  CD1_27
REMARK   13  A    between atoms: CG_26  and  CD2_28
REMARK   14  A    between atoms: C_29  and  OXT_31
REMARK                            x       y       z     vdW  Elec       q    Type
REMARK                         _______ _______ _______ _____ _____    ______ ____
ROOT
ATOM      1  C   UNK A   0      -1.439  11.074  19.356  0.00  0.00    +0.000 A 
ATOM      2  C   UNK A   0      -0.448  10.104  19.049  0.00  0.00    +0.000 A 
ATOM      3  C   UNK A   0       0.643   9.813  19.885  0.00  0.00    +0.000 A 
ATOM      4  C   UNK A   0       0.790  10.578  21.037  0.00  0.00    +0.000 A 
ATOM      5  C   UNK A   0      -0.173  11.524  21.392  0.00  0.00    +0.000 A 
ATOM      6  C   UNK A   0      -1.291  11.779  20.576  0.00  0.00    +0.000 A 
ENDROOT
BRANCH   1  13
ATOM      7  C   UNK A   0      -6.210  12.291  18.396  0.00  0.00    +0.000 C 
ATOM      8  C   UNK A   0      -4.877  11.806  17.900  0.00  0.00    +0.000 A 
ATOM      9  C   UNK A   0      -4.709  11.367  16.585  0.00  0.00    +0.000 A 
ATOM     10  C   UNK A   0      -3.454  10.954  16.129  0.00  0.00    +0.000 A 
ATOM     11  C   UNK A   0      -3.284  10.384  14.751  0.00  0.00    +0.000 C 
ATOM     12  C   UNK A   0      -2.354  10.998  17.000  0.00  0.00    +0.000 A 
ATOM     13  C   UNK A   0      -2.516  11.304  18.359  0.00  0.00    +0.000 A 
ATOM     14  C   UNK A   0      -3.785  11.753  18.776  0.00  0.00    +0.000 A 
ENDBRANCH   1  13
BRANCH   6  15
ATOM     15  C   UNK A   0      -2.211  12.828  21.138  0.00  0.00    +0.000 C 
ATOM     16  O   UNK A   0      -2.092  13.985  20.751  0.00  0.00    +0.000 OA
ATOM     17  N   LEU A   1      -3.181  12.441  22.038  0.00  0.00    +0.000 N 
ATOM     18  H   LEU A   1      -2.968  11.589  22.540  0.00  0.00    +0.000 HD
BRANCH  17  19
ATOM     19  CA  LEU A   1      -3.985  13.465  22.753  0.00  0.00    +0.000 C 
BRANCH  19  20
ATOM     20  C   LEU A   1      -4.158  13.053  24.227  0.00  0.00    +0.000 C 
ATOM     21  O   LEU A   1      -4.404  11.918  24.604  0.00  0.00    +0.000 OA
BRANCH  20  22
ATOM     22  OXT LEU A   1      -3.930  14.062  25.105  0.00  0.00    +0.000 OA
ATOM     23  HXT LEU A   1      -4.328  14.902  24.807  0.00  0.00    +0.000 HD
ENDBRANCH  20  22
ENDBRANCH  19  20
BRANCH  19  24
ATOM     24  CB  LEU A   1      -5.362  13.627  22.078  0.00  0.00    +0.000 C 
BRANCH  24  25
ATOM     25  CG  LEU A   1      -6.595  13.660  23.005  0.00  0.00    +0.000 C 
ATOM     26  CD1 LEU A   1      -7.172  15.062  23.210  0.00  0.00    +0.000 C 
ATOM     27  CD2 LEU A   1      -7.680  12.737  22.438  0.00  0.00    +0.000 C 
ENDBRANCH  24  25
ENDBRANCH  19  24
ENDBRANCH  17  19
ENDBRANCH   6  15
BRANCH   3  28
ATOM     28  N   UNK A   0       1.599   8.882  19.456  0.00  0.00    +0.000 N 
ATOM     29  H   UNK A   0       1.411   8.552  18.510  0.00  0.00    +0.000 HD
BRANCH  28  30
ATOM     30  C   UNK A   0       1.842   7.716  20.315  0.00  0.00    +0.000 C 
BRANCH  30  31
ATOM     31  C   UNK A   0       2.458   6.542  19.611  0.00  0.00    +0.000 A 
ATOM     32  C   UNK A   0       3.010   6.484  18.350  0.00  0.00    +0.000 A 
ATOM     33  N   UNK A   0       3.424   5.189  18.194  0.00  0.00    +0.000 N 
ATOM     34  C   UNK A   0       3.108   4.518  19.336  0.00  0.00    +0.000 A 
ATOM     35  N   UNK A   0       2.515   5.299  20.208  0.00  0.00    +0.000 NA
ATOM     36  H   UNK A   0       3.880   4.798  17.380  0.00  0.00    +0.000 HD
ENDBRANCH  30  31
ENDBRANCH  28  30
ENDBRANCH   3  28
TORSDOF 10
ENDMDL
MODEL 5
REMARK VINA RESULT:      -7.1      0.796      1.091
REMARK  Name = 
REMARK  14 active torsions:
REMARK  status: ('A' for Active; 'I' for Inactive)
REMARK    1  A    between atoms: C_1  and  C_2
REMARK    2  A    between atoms: C_4  and  C_5
REMARK    3  A    between atoms: C_7  and  C_8
REMARK    4  A    between atoms: C_10  and  N_11
REMARK    5  A    between atoms: N_11  and  C_12
REMARK    6  A    between atoms: C_12  and  C_13
REMARK    7  A    between atoms: C_20  and  C_21
REMARK    8  A    between atoms: N_23  and  CA_24
REMARK    9  A    between atoms: CA_24  and  CB_25
REMARK   10  A    between atoms: CA_24  and  C_29
REMARK   11  A    between atoms: CB_25  and  CG_26
REMARK   12  A    between atoms: CG_26  and  CD1_27
REMARK   13  A    between atoms: CG_26  and  CD2_28
REMARK   14  A    between atoms: C_29  and  OXT_31
REMARK                            x       y       z     vdW  Elec       q    Type
REMARK                         _______ _______ _______ _____ _____    ______ ____
ROOT
ATOM      1  C   UNK A   0       3.261   6.338  18.926  0.00  0.00    +0.000 A 
ATOM      2  C   UNK A   0       3.308   5.214  19.793  0.00  0.00    +0.000 A 
ATOM      3  C   UNK A   0       2.388   4.992  20.831  0.00  0.00    +0.000 A 
ATOM      4  C   UNK A   0       1.429   5.972  21.059  0.00  0.00    +0.000 A 
ATOM      5  C   UNK A   0       1.328   7.080  20.216  0.00  0.00    +0.000 A 
ATOM      6  C   UNK A   0       2.222   7.276  19.147  0.00  0.00    +0.000 A 
ENDROOT
BRANCH   1  13
ATOM      7  C   UNK A   0       5.357   4.651  14.692  0.00  0.00    +0.000 C 
ATOM      8  C   UNK A   0       5.404   5.576  15.875  0.00  0.00    +0.000 A 
ATOM      9  C   UNK A   0       6.521   6.374  16.128  0.00  0.00    +0.000 A 
ATOM     10  C   UNK A   0       6.533   7.256  17.212  0.00  0.00    +0.000 A 
ATOM     11  C   UNK A   0       7.766   8.042  17.552  0.00  0.00    +0.000 C 
ATOM     12  C   UNK A   0       5.405   7.347  18.042  0.00  0.00    +0.000 A 
ATOM     13  C   UNK A   0       4.324   6.464  17.896  0.00  0.00    +0.000 A 
ATOM     14  C   UNK A   0       4.326   5.616  16.770  0.00  0.00    +0.000 A 
ENDBRANCH   1  13
BRANCH   6  15
ATOM     15  C   UNK A   0       1.941   8.525  18.357  0.00  0.00    +0.000 C 
ATOM     16  O   UNK A   0       2.596   8.742  17.344  0.00  0.00    +0.000 OA
ATOM     17  N   LEU A   1       0.928   9.359  18.781  0.00  0.00    +0.000 N 
ATOM     18  H   LEU A   1       0.712   9.287  19.766  0.00  0.00    +0.000 HD
BRANCH  17  19
ATOM     19  CA  LEU A   1       0.739  10.686  18.141  0.00  0.00    +0.000 C 
BRANCH  19  20
ATOM     20  C   LEU A   1       1.887  11.628  18.553  0.00  0.00    +0.000 C 
ATOM     21  O   LEU A   1       2.039  12.084  19.675  0.00  0.00    +0.000 OA
BRANCH  20  22
ATOM     22  OXT LEU A   1       2.787  11.853  17.563  0.00  0.00    +0.000 OA
ATOM     23  HXT LEU A   1       2.818  11.117  16.923  0.00  0.00    +0.000 HD
ENDBRANCH  20  22
ENDBRANCH  19  20
BRANCH  19  24
ATOM     24  CB  LEU A   1      -0.620  11.288  18.553  0.00  0.00    +0.000 C 
BRANCH  24  25
ATOM     25  CG  LEU A   1      -1.760  11.211  17.517  0.00  0.00    +0.000 C 
ATOM     26  CD1 LEU A   1      -1.937   9.822  16.899  0.00  0.00    +0.000 C 
ATOM     27  CD2 LEU A   1      -3.073  11.651  18.176  0.00  0.00    +0.000 C 
ENDBRANCH  24  25
ENDBRANCH  19  24
ENDBRANCH  17  19
ENDBRANCH   6  15
BRANCH   3  28
ATOM     28  N   UNK A   0       2.565   3.882  21.669  0.00  0.00    +0.000 N 
ATOM     29  H   UNK A   0       3.527   3.800  21.995  0.00  0.00    +0.000 HD
BRANCH  28  30
ATOM     30  C   UNK A   0       2.133   2.573  21.160  0.00  0.00    +0.000 C 
BRANCH  30  31
ATOM     31  C   UNK A   0       2.633   2.246  19.783  0.00  0.00    +0.000 A 
ATOM     32  C   UNK A   0       3.905   1.897  19.386  0.00  0.00    +0.000 A 
ATOM     33  N   UNK A   0       3.824   1.706  18.034  0.00  0.00    +0.000 N 
ATOM     34  C   UNK A   0       2.536   1.948  17.662  0.00  0.00    +0.000 A 
ATOM     35  N   UNK A   0       1.792   2.287  18.689  0.00  0.00    +0.000 NA
ATOM     36  H   UNK A   0       4.580   1.436  17.419  0.00  0.00    +0.000 HD
ENDBRANCH  30  31
ENDBRANCH  28  30
ENDBRANCH   3  28
TORSDOF 10
ENDMDL
MODEL 6
REMARK VINA RESULT:      -7.1      4.933      8.242
REMARK  Name = 
REMARK  14 active torsions:
REMARK  status: ('A' for Active; 'I' for Inactive)
REMARK    1  A    between atoms: C_1  and  C_2
REMARK    2  A    between atoms: C_4  and  C_5
REMARK    3  A    between atoms: C_7  and  C_8
REMARK    4  A    between atoms: C_10  and  N_11
REMARK    5  A    between atoms: N_11  and  C_12
REMARK    6  A    between atoms: C_12  and  C_13
REMARK    7  A    between atoms: C_20  and  C_21
REMARK    8  A    between atoms: N_23  and  CA_24
REMARK    9  A    between atoms: CA_24  and  CB_25
REMARK   10  A    between atoms: CA_24  and  C_29
REMARK   11  A    between atoms: CB_25  and  CG_26
REMARK   12  A    between atoms: CG_26  and  CD1_27
REMARK   13  A    between atoms: CG_26  and  CD2_28
REMARK   14  A    between atoms: C_29  and  OXT_31
REMARK                            x       y       z     vdW  Elec       q    Type
REMARK                         _______ _______ _______ _____ _____    ______ ____
ROOT
ATOM      1  C   UNK A   0      -1.601  10.500  18.078  0.00  0.00    +0.000 A 
ATOM      2  C   UNK A   0      -2.002   9.862  16.875  0.00  0.00    +0.000 A 
ATOM      3  C   UNK A   0      -3.148  10.223  16.146  0.00  0.00    +0.000 A 
ATOM      4  C   UNK A   0      -3.966  11.209  16.684  0.00  0.00    +0.000 A 
ATOM      5  C   UNK A   0      -3.598  11.883  17.850  0.00  0.00    +0.000 A 
ATOM      6  C   UNK A   0      -2.425  11.552  18.552  0.00  0.00    +0.000 A 
ENDROOT
BRANCH   1  13
ATOM      7  C   UNK A   0       2.854   8.214  17.779  0.00  0.00    +0.000 C 
ATOM      8  C   UNK A   0       1.750   8.782  18.625  0.00  0.00    +0.000 A 
ATOM      9  C   UNK A   0       1.750   8.633  20.013  0.00  0.00    +0.000 A 
ATOM     10  C   UNK A   0       0.734   9.200  20.788  0.00  0.00    +0.000 A 
ATOM     11  C   UNK A   0       0.669   8.960  22.268  0.00  0.00    +0.000 C 
ATOM     12  C   UNK A   0      -0.284   9.936  20.162  0.00  0.00    +0.000 A 
ATOM     13  C   UNK A   0      -0.387   9.988  18.764  0.00  0.00    +0.000 A 
ATOM     14  C   UNK A   0       0.674   9.441  18.014  0.00  0.00    +0.000 A 
ENDBRANCH   1  13
BRANCH   6  15
ATOM     15  C   UNK A   0      -2.206  12.397  19.778  0.00  0.00    +0.000 C 
ATOM     16  O   UNK A   0      -1.299  13.222  19.771  0.00  0.00    +0.000 OA
ATOM     17  N   LEU A   1      -3.061  12.239  20.848  0.00  0.00    +0.000 N 
ATOM     18  H   LEU A   1      -3.511  11.335  20.893  0.00  0.00    +0.000 HD
BRANCH  17  19
ATOM     19  CA  LEU A   1      -2.771  12.916  22.138  0.00  0.00    +0.000 C 
BRANCH  19  20
ATOM     20  C   LEU A   1      -1.699  12.124  22.911  0.00  0.00    +0.000 C 
ATOM     21  O   LEU A   1      -1.901  11.066  23.485  0.00  0.00    +0.000 OA
BRANCH  20  22
ATOM     22  OXT LEU A   1      -0.459  12.669  22.834  0.00  0.00    +0.000 OA
ATOM     23  HXT LEU A   1       0.167  12.240  23.448  0.00  0.00    +0.000 HD
ENDBRANCH  20  22
ENDBRANCH  19  20
BRANCH  19  24
ATOM     24  CB  LEU A   1      -4.059  13.034  22.978  0.00  0.00    +0.000 C 
BRANCH  24  25
ATOM     25  CG  LEU A   1      -4.519  14.457  23.357  0.00  0.00    +0.000 C 
ATOM     26  CD1 LEU A   1      -5.981  14.532  23.802  0.00  0.00    +0.000 C 
ATOM     27  CD2 LEU A   1      -3.615  15.002  24.469  0.00  0.00    +0.000 C 
ENDBRANCH  24  25
ENDBRANCH  19  24
ENDBRANCH  17  19
ENDBRANCH   6  15
BRANCH   3  28
ATOM     28  N   UNK A   0      -3.487   9.483  15.004  0.00  0.00    +0.000 N 
ATOM     29  H   UNK A   0      -3.080   8.550  15.020  0.00  0.00    +0.000 HD
BRANCH  28  30
ATOM     30  C   UNK A   0      -3.206  10.091  13.696  0.00  0.00    +0.000 C 
BRANCH  30  31
ATOM     31  C   UNK A   0      -4.206   9.754  12.628  0.00  0.00    +0.000 A 
ATOM     32  C   UNK A   0      -4.050   9.785  11.259  0.00  0.00    +0.000 A 
ATOM     33  N   UNK A   0      -5.256   9.391  10.748  0.00  0.00    +0.000 N 
ATOM     34  C   UNK A   0      -6.087   9.148  11.799  0.00  0.00    +0.000 A 
ATOM     35  N   UNK A   0      -5.491   9.367  12.947  0.00  0.00    +0.000 NA
ATOM     36  H   UNK A   0      -5.492   9.297   9.768  0.00  0.00    +0.000 HD
ENDBRANCH  30  31
ENDBRANCH  28  30
ENDBRANCH   3  28
TORSDOF 10
ENDMDL
MODEL 7
REMARK VINA RESULT:      -7.1      3.722      7.791
REMARK  Name = 
REMARK  14 active torsions:
REMARK  status: ('A' for Active; 'I' for Inactive)
REMARK    1  A    between atoms: C_1  and  C_2
REMARK    2  A    between atoms: C_4  and  C_5
REMARK    3  A    between atoms: C_7  and  C_8
REMARK    4  A    between atoms: C_10  and  N_11
REMARK    5  A    between atoms: N_11  and  C_12
REMARK    6  A    between atoms: C_12  and  C_13
REMARK    7  A    between atoms: C_20  and  C_21
REMARK    8  A    between atoms: N_23  and  CA_24
REMARK    9  A    between atoms: CA_24  and  CB_25
REMARK   10  A    between atoms: CA_24  and  C_29
REMARK   11  A    between atoms: CB_25  and  CG_26
REMARK   12  A    between atoms: CG_26  and  CD1_27
REMARK   13  A    between atoms: CG_26  and  CD2_28
REMARK   14  A    between atoms: C_29  and  OXT_31
REMARK                            x       y       z     vdW  Elec       q    Type
REMARK                         _______ _______ _______ _____ _____    ______ ____
ROOT
ATOM      1  C   UNK A   0      -1.446  10.973  19.436  0.00  0.00    +0.000 A 
ATOM      2  C   UNK A   0      -0.397  10.042  19.212  0.00  0.00    +0.000 A 
ATOM      3  C   UNK A   0       0.625   9.780  20.140  0.00  0.00    +0.000 A 
ATOM      4  C   UNK A   0       0.639  10.535  21.307  0.00  0.00    +0.000 A 
ATOM      5  C   UNK A   0      -0.386  11.441  21.583  0.00  0.00    +0.000 A 
ATOM      6  C   UNK A   0      -1.434  11.667  20.672  0.00  0.00    +0.000 A 
ENDROOT
BRANCH   1  13
ATOM      7  C   UNK A   0      -6.137  12.095  18.059  0.00  0.00    +0.000 C 
ATOM      8  C   UNK A   0      -4.758  11.633  17.683  0.00  0.00    +0.000 A 
ATOM      9  C   UNK A   0      -4.469  11.189  16.391  0.00  0.00    +0.000 A 
ATOM     10  C   UNK A   0      -3.172  10.798  16.048  0.00  0.00    +0.000 A 
ATOM     11  C   UNK A   0      -2.872  10.223  14.695  0.00  0.00    +0.000 C 
ATOM     12  C   UNK A   0      -2.152  10.867  17.011  0.00  0.00    +0.000 A 
ATOM     13  C   UNK A   0      -2.437  11.177  18.349  0.00  0.00    +0.000 A 
ATOM     14  C   UNK A   0      -3.745  11.605  18.652  0.00  0.00    +0.000 A 
ENDBRANCH   1  13
BRANCH   6  15
ATOM     15  C   UNK A   0      -2.439  12.675  21.159  0.00  0.00    +0.000 C 
ATOM     16  O   UNK A   0      -2.332  13.839  20.790  0.00  0.00    +0.000 OA
ATOM     17  N   LEU A   1      -3.467  12.243  21.969  0.00  0.00    +0.000 N 
ATOM     18  H   LEU A   1      -3.267  11.395  22.482  0.00  0.00    +0.000 HD
BRANCH  17  19
ATOM     19  CA  LEU A   1      -4.370  13.229  22.617  0.00  0.00    +0.000 C 
BRANCH  19  20
ATOM     20  C   LEU A   1      -4.288  13.079  24.148  0.00  0.00    +0.000 C 
ATOM     21  O   LEU A   1      -3.594  13.771  24.876  0.00  0.00    +0.000 OA
BRANCH  20  22
ATOM     22  OXT LEU A   1      -5.133  12.143  24.649  0.00  0.00    +0.000 OA
ATOM     23  HXT LEU A   1      -5.444  11.526  23.960  0.00  0.00    +0.000 HD
ENDBRANCH  20  22
ENDBRANCH  19  20
BRANCH  19  24
ATOM     24  CB  LEU A   1      -5.820  13.022  22.136  0.00  0.00    +0.000 C 
BRANCH  24  25
ATOM     25  CG  LEU A   1      -6.530  14.241  21.512  0.00  0.00    +0.000 C 
ATOM     26  CD1 LEU A   1      -5.713  14.937  20.422  0.00  0.00    +0.000 C 
ATOM     27  CD2 LEU A   1      -7.882  13.801  20.938  0.00  0.00    +0.000 C 
ENDBRANCH  24  25
ENDBRANCH  19  24
ENDBRANCH  17  19
ENDBRANCH   6  15
BRANCH   3  28
ATOM     28  N   UNK A   0       1.648   8.889  19.790  0.00  0.00    +0.000 N 
ATOM     29  H   UNK A   0       2.534   9.135  20.229  0.00  0.00    +0.000 HD
BRANCH  28  30
ATOM     30  C   UNK A   0       1.887   8.661  18.358  0.00  0.00    +0.000 C 
BRANCH  30  31
ATOM     31  C   UNK A   0       2.677   7.423  18.049  0.00  0.00    +0.000 A 
ATOM     32  C   UNK A   0       2.385   6.112  18.359  0.00  0.00    +0.000 A 
ATOM     33  N   UNK A   0       3.424   5.380  17.854  0.00  0.00    +0.000 N 
ATOM     34  C   UNK A   0       4.296   6.251  17.276  0.00  0.00    +0.000 A 
ATOM     35  N   UNK A   0       3.884   7.492  17.383  0.00  0.00    +0.000 NA
ATOM     36  H   UNK A   0       3.529   4.375  17.902  0.00  0.00    +0.000 HD
ENDBRANCH  30  31
ENDBRANCH  28  30
ENDBRANCH   3  28
TORSDOF 10
ENDMDL
MODEL 8
REMARK VINA RESULT:      -7.0      3.530      7.531
REMARK  Name = 
REMARK  14 active torsions:
REMARK  status: ('A' for Active; 'I' for Inactive)
REMARK    1  A    between atoms: C_1  and  C_2
REMARK    2  A    between atoms: C_4  and  C_5
REMARK    3  A    between atoms: C_7  and  C_8
REMARK    4  A    between atoms: C_10  and  N_11
REMARK    5  A    between atoms: N_11  and  C_12
REMARK    6  A    between atoms: C_12  and  C_13
REMARK    7  A    between atoms: C_20  and  C_21
REMARK    8  A    between atoms: N_23  and  CA_24
REMARK    9  A    between atoms: CA_24  and  CB_25
REMARK   10  A    between atoms: CA_24  and  C_29
REMARK   11  A    between atoms: CB_25  and  CG_26
REMARK   12  A    between atoms: CG_26  and  CD1_27
REMARK   13  A    between atoms: CG_26  and  CD2_28
REMARK   14  A    between atoms: C_29  and  OXT_31
REMARK                            x       y       z     vdW  Elec       q    Type
REMARK                         _______ _______ _______ _____ _____    ______ ____
ROOT
ATOM      1  C   UNK A   0      -1.464  10.797  19.216  0.00  0.00    +0.000 A 
ATOM      2  C   UNK A   0      -0.436   9.828  19.073  0.00  0.00    +0.000 A 
ATOM      3  C   UNK A   0       0.648   9.705  19.959  0.00  0.00    +0.000 A 
ATOM      4  C   UNK A   0       0.747  10.638  20.984  0.00  0.00    +0.000 A 
ATOM      5  C   UNK A   0      -0.254  11.592  21.180  0.00  0.00    +0.000 A 
ATOM      6  C   UNK A   0      -1.363  11.682  20.319  0.00  0.00    +0.000 A 
ENDROOT
BRANCH   1  13
ATOM      7  C   UNK A   0      -2.854  10.026  14.459  0.00  0.00    +0.000 C 
ATOM      8  C   UNK A   0      -3.179  10.550  15.829  0.00  0.00    +0.000 A 
ATOM      9  C   UNK A   0      -4.356  11.259  16.074  0.00  0.00    +0.000 A 
ATOM     10  C   UNK A   0      -4.661  11.706  17.362  0.00  0.00    +0.000 A 
ATOM     11  C   UNK A   0      -5.871  12.557  17.617  0.00  0.00    +0.000 C 
ATOM     12  C   UNK A   0      -3.779  11.426  18.418  0.00  0.00    +0.000 A 
ATOM     13  C   UNK A   0      -2.528  10.838  18.181  0.00  0.00    +0.000 A 
ATOM     14  C   UNK A   0      -2.270  10.363  16.879  0.00  0.00    +0.000 A 
ENDBRANCH   1  13
BRANCH   6  15
ATOM     15  C   UNK A   0      -2.328  12.770  20.704  0.00  0.00    +0.000 C 
ATOM     16  O   UNK A   0      -2.215  13.872  20.179  0.00  0.00    +0.000 OA
ATOM     17  N   LEU A   1      -3.330  12.474  21.604  0.00  0.00    +0.000 N 
ATOM     18  H   LEU A   1      -3.123  11.698  22.219  0.00  0.00    +0.000 HD
BRANCH  17  19
ATOM     19  CA  LEU A   1      -4.186  13.560  22.148  0.00  0.00    +0.000 C 
BRANCH  19  20
ATOM     20  C   LEU A   1      -3.635  14.021  23.511  0.00  0.00    +0.000 C 
ATOM     21  O   LEU A   1      -3.653  13.347  24.530  0.00  0.00    +0.000 OA
BRANCH  20  22
ATOM     22  OXT LEU A   1      -3.037  15.239  23.473  0.00  0.00    +0.000 OA
ATOM     23  HXT LEU A   1      -2.280  15.293  24.087  0.00  0.00    +0.000 HD
ENDBRANCH  20  22
ENDBRANCH  19  20
BRANCH  19  24
ATOM     24  CB  LEU A   1      -5.639  13.067  22.298  0.00  0.00    +0.000 C 
BRANCH  24  25
ATOM     25  CG  LEU A   1      -6.435  12.833  20.998  0.00  0.00    +0.000 C 
ATOM     26  CD1 LEU A   1      -7.167  11.489  20.959  0.00  0.00    +0.000 C 
ATOM     27  CD2 LEU A   1      -7.444  13.972  20.809  0.00  0.00    +0.000 C 
ENDBRANCH  24  25
ENDBRANCH  19  24
ENDBRANCH  17  19
ENDBRANCH   6  15
BRANCH   3  28
ATOM     28  N   UNK A   0       1.642   8.755  19.688  0.00  0.00    +0.000 N 
ATOM     29  H   UNK A   0       2.481   8.911  20.244  0.00  0.00    +0.000 HD
BRANCH  28  30
ATOM     30  C   UNK A   0       2.041   8.574  18.285  0.00  0.00    +0.000 C 
BRANCH  30  31
ATOM     31  C   UNK A   0       2.778   7.296  18.009  0.00  0.00    +0.000 A 
ATOM     32  C   UNK A   0       2.410   6.003  18.314  0.00  0.00    +0.000 A 
ATOM     33  N   UNK A   0       3.428   5.217  17.848  0.00  0.00    +0.000 N 
ATOM     34  C   UNK A   0       4.362   6.040  17.296  0.00  0.00    +0.000 A 
ATOM     35  N   UNK A   0       4.009   7.301  17.385  0.00  0.00    +0.000 NA
ATOM     36  H   UNK A   0       3.481   4.208  17.903  0.00  0.00    +0.000 HD
ENDBRANCH  30  31
ENDBRANCH  28  30
ENDBRANCH   3  28
TORSDOF 10
ENDMDL
MODEL 9
REMARK VINA RESULT:      -7.0      3.694      7.642
REMARK  Name = 
REMARK  14 active torsions:
REMARK  status: ('A' for Active; 'I' for Inactive)
REMARK    1  A    between atoms: C_1  and  C_2
REMARK    2  A    between atoms: C_4  and  C_5
REMARK    3  A    between atoms: C_7  and  C_8
REMARK    4  A    between atoms: C_10  and  N_11
REMARK    5  A    between atoms: N_11  and  C_12
REMARK    6  A    between atoms: C_12  and  C_13
REMARK    7  A    between atoms: C_20  and  C_21
REMARK    8  A    between atoms: N_23  and  CA_24
REMARK    9  A    between atoms: CA_24  and  CB_25
REMARK   10  A    between atoms: CA_24  and  C_29
REMARK   11  A    between atoms: CB_25  and  CG_26
REMARK   12  A    between atoms: CG_26  and  CD1_27
REMARK   13  A    between atoms: CG_26  and  CD2_28
REMARK   14  A    between atoms: C_29  and  OXT_31
REMARK                            x       y       z     vdW  Elec       q    Type
REMARK                         _______ _______ _______ _____ _____    ______ ____
ROOT
ATOM      1  C   UNK A   0      -1.401  10.788  19.317  0.00  0.00    +0.000 A 
ATOM      2  C   UNK A   0      -0.361   9.838  19.135  0.00  0.00    +0.000 A 
ATOM      3  C   UNK A   0       0.740   9.713  19.998  0.00  0.00    +0.000 A 
ATOM      4  C   UNK A   0       0.843  10.624  21.043  0.00  0.00    +0.000 A 
ATOM      5  C   UNK A   0      -0.169  11.557  21.277  0.00  0.00    +0.000 A 
ATOM      6  C   UNK A   0      -1.294  11.649  20.438  0.00  0.00    +0.000 A 
ENDROOT
BRANCH   1  13
ATOM      7  C   UNK A   0      -2.864  10.098  14.568  0.00  0.00    +0.000 C 
ATOM      8  C   UNK A   0      -3.172  10.587  15.955  0.00  0.00    +0.000 A 
ATOM      9  C   UNK A   0      -4.355  11.272  16.236  0.00  0.00    +0.000 A 
ATOM     10  C   UNK A   0      -4.644  11.688  17.539  0.00  0.00    +0.000 A 
ATOM     11  C   UNK A   0      -5.862  12.514  17.833  0.00  0.00    +0.000 C 
ATOM     12  C   UNK A   0      -3.739  11.398  18.572  0.00  0.00    +0.000 A 
ATOM     13  C   UNK A   0      -2.484  10.834  18.301  0.00  0.00    +0.000 A 
ATOM     14  C   UNK A   0      -2.242  10.391  16.985  0.00  0.00    +0.000 A 
ENDBRANCH   1  13
BRANCH   6  15
ATOM     15  C   UNK A   0      -2.269  12.713  20.864  0.00  0.00    +0.000 C 
ATOM     16  O   UNK A   0      -2.189  13.824  20.353  0.00  0.00    +0.000 OA
ATOM     17  N   LEU A   1      -3.242  12.385  21.783  0.00  0.00    +0.000 N 
ATOM     18  H   LEU A   1      -3.007  11.603  22.380  0.00  0.00    +0.000 HD
BRANCH  17  19
ATOM     19  CA  LEU A   1      -4.104  13.446  22.366  0.00  0.00    +0.000 C 
BRANCH  19  20
ATOM     20  C   LEU A   1      -4.326  13.169  23.865  0.00  0.00    +0.000 C 
ATOM     21  O   LEU A   1      -4.472  12.057  24.350  0.00  0.00    +0.000 OA
BRANCH  20  22
ATOM     22  OXT LEU A   1      -4.265  14.282  24.639  0.00  0.00    +0.000 OA
ATOM     23  HXT LEU A   1      -3.807  15.016  24.187  0.00  0.00    +0.000 HD
ENDBRANCH  20  22
ENDBRANCH  19  20
BRANCH  19  24
ATOM     24  CB  LEU A   1      -5.456  13.499  21.626  0.00  0.00    +0.000 C 
BRANCH  24  25
ATOM     25  CG  LEU A   1      -6.270  14.804  21.751  0.00  0.00    +0.000 C 
ATOM     26  CD1 LEU A   1      -5.489  16.057  21.346  0.00  0.00    +0.000 C 
ATOM     27  CD2 LEU A   1      -7.539  14.694  20.898  0.00  0.00    +0.000 C 
ENDBRANCH  24  25
ENDBRANCH  19  24
ENDBRANCH  17  19
ENDBRANCH   6  15
BRANCH   3  28
ATOM     28  N   UNK A   0       1.743   8.785  19.689  0.00  0.00    +0.000 N 
ATOM     29  H   UNK A   0       2.623   9.003  20.155  0.00  0.00    +0.000 HD
BRANCH  28  30
ATOM     30  C   UNK A   0       2.020   8.536  18.268  0.00  0.00    +0.000 C 
BRANCH  30  31
ATOM     31  C   UNK A   0       2.772   7.265  17.994  0.00  0.00    +0.000 A 
ATOM     32  C   UNK A   0       2.417   5.969  18.297  0.00  0.00    +0.000 A 
ATOM     33  N   UNK A   0       3.446   5.194  17.836  0.00  0.00    +0.000 N 
ATOM     34  C   UNK A   0       4.373   6.027  17.288  0.00  0.00    +0.000 A 
ATOM     35  N   UNK A   0       4.006   7.284  17.376  0.00  0.00    +0.000 NA
ATOM     36  H   UNK A   0       3.509   4.186  17.891  0.00  0.00    +0.000 HD
ENDBRANCH  30  31
ENDBRANCH  28  30
ENDBRANCH   3  28
TORSDOF 10
ENDMDL
