MODEL 1
REMARK VINA RESULT:      -7.8      0.000      0.000
REMARK  Name = 
REMARK  8 active torsions:
REMARK  status: ('A' for Active; 'I' for Inactive)
REMARK    1  A    between atoms: C_1  and  C_2
REMARK    2  A    between atoms: C_6  and  N_7
REMARK    3  A    between atoms: C_8  and  O_9
REMARK    4  A    between atoms: C_12  and  C_13
REMARK    5  A    between atoms: C_17  and  C_18
REMARK    6  A    between atoms: C_18  and  C_19
REMARK    7  A    between atoms: C_19  and  C_20
REMARK    8  A    between atoms: C_19  and  C_21
REMARK                            x       y       z     vdW  Elec       q    Type
REMARK                         _______ _______ _______ _____ _____    ______ ____
ROOT
ATOM      1  N   UNL     1       6.237   4.310  14.371  0.00  0.00    +0.000 N 
ATOM      2  C   UNL     1       7.352   5.139  14.462  0.00  0.00    +0.000 A 
ATOM      3  N   UNL     1       7.603   5.524  15.695  0.00  0.00    +0.000 NA
ATOM      4  C   UNL     1       6.626   4.931  16.465  0.00  0.00    +0.000 A 
ATOM      5  C   UNL     1       6.325   4.936  17.830  0.00  0.00    +0.000 A 
ATOM      6  N   UNL     1       5.278   4.187  18.294  0.00  0.00    +0.000 NA
ATOM      7  C   UNL     1       4.569   3.452  17.421  0.00  0.00    +0.000 A 
ATOM      8  N   UNL     1       4.768   3.405  16.098  0.00  0.00    +0.000 NA
ATOM      9  C   UNL     1       5.785   4.171  15.673  0.00  0.00    +0.000 A 
ENDROOT
BRANCH   1  15
ATOM     10  C   UNL     1       6.579   0.847  10.864  0.00  0.00    +0.000 C 
ATOM     11  C   UNL     1       5.827   1.993  11.473  0.00  0.00    +0.000 A 
ATOM     12  C   UNL     1       4.664   2.502  10.892  0.00  0.00    +0.000 A 
ATOM     13  C   UNL     1       4.000   3.586  11.474  0.00  0.00    +0.000 A 
ATOM     14  C   UNL     1       4.493   4.183  12.639  0.00  0.00    +0.000 A 
ATOM     15  C   UNL     1       5.660   3.687  13.229  0.00  0.00    +0.000 A 
ATOM     16  C   UNL     1       6.309   2.585  12.645  0.00  0.00    +0.000 A 
ENDBRANCH   1  15
BRANCH   5  17
ATOM     17  C   UNL     1       7.092   5.732  18.825  0.00  0.00    +0.000 C 
ATOM     18  N   UNL     1       7.759   6.845  18.380  0.00  0.00    +0.000 N 
ATOM     19  O   UNL     1       7.136   5.430  20.013  0.00  0.00    +0.000 OA
ATOM     20  H   UNL     1       7.772   7.124  17.403  0.00  0.00    +0.000 HD
ATOM     21  H   UNL     1       8.281   7.389  19.056  0.00  0.00    +0.000 HD
ENDBRANCH   5  17
BRANCH   2  22
ATOM     22  O   UNL     1       8.063   5.610  13.446  0.00  0.00    +0.000 OA
ATOM     23  H   UNL     1       7.805   5.140  12.638  0.00  0.00    +0.000 HD
ENDBRANCH   2  22
BRANCH   7  24
ATOM     24  C   UNL     1       3.445   2.598  17.943  0.00  0.00    +0.000 C 
BRANCH  24  25
ATOM     25  C   UNL     1       2.304   3.398  18.600  0.00  0.00    +0.000 C 
ATOM     26  C   UNL     1       1.683   4.441  17.665  0.00  0.00    +0.000 C 
ATOM     27  C   UNL     1       1.215   2.428  19.067  0.00  0.00    +0.000 C 
ENDBRANCH  24  25
ENDBRANCH   7  24
TORSDOF 5
ENDMDL
MODEL 2
REMARK VINA RESULT:      -7.6      4.347      7.882
REMARK  Name = 
REMARK  8 active torsions:
REMARK  status: ('A' for Active; 'I' for Inactive)
REMARK    1  A    between atoms: C_1  and  C_2
REMARK    2  A    between atoms: C_6  and  N_7
REMARK    3  A    between atoms: C_8  and  O_9
REMARK    4  A    between atoms: C_12  and  C_13
REMARK    5  A    between atoms: C_17  and  C_18
REMARK    6  A    between atoms: C_18  and  C_19
REMARK    7  A    between atoms: C_19  and  C_20
REMARK    8  A    between atoms: C_19  and  C_21
REMARK                            x       y       z     vdW  Elec       q    Type
REMARK                         _______ _______ _______ _____ _____    ______ ____
ROOT
ATOM      1  N   UNL     1       2.303   5.726  19.863  0.00  0.00    +0.000 N 
ATOM      2  C   UNL     1       1.538   4.623  20.232  0.00  0.00    +0.000 A 
ATOM      3  N   UNL     1       2.218   3.497  20.201  0.00  0.00    +0.000 NA
ATOM      4  C   UNL     1       3.489   3.852  19.802  0.00  0.00    +0.000 A 
ATOM      5  C   UNL     1       4.671   3.143  19.572  0.00  0.00    +0.000 A 
ATOM      6  N   UNL     1       5.805   3.819  19.212  0.00  0.00    +0.000 NA
ATOM      7  C   UNL     1       5.754   5.156  19.099  0.00  0.00    +0.000 A 
ATOM      8  N   UNL     1       4.665   5.914  19.275  0.00  0.00    +0.000 NA
ATOM      9  C   UNL     1       3.565   5.218  19.602  0.00  0.00    +0.000 A 
ENDROOT
BRANCH   1  15
ATOM     10  C   UNL     1       0.382   9.688  22.104  0.00  0.00    +0.000 C 
ATOM     11  C   UNL     1       0.967   9.062  20.873  0.00  0.00    +0.000 A 
ATOM     12  C   UNL     1       1.056   9.758  19.665  0.00  0.00    +0.000 A 
ATOM     13  C   UNL     1       1.586   9.136  18.531  0.00  0.00    +0.000 A 
ATOM     14  C   UNL     1       2.026   7.810  18.583  0.00  0.00    +0.000 A 
ATOM     15  C   UNL     1       1.937   7.100  19.784  0.00  0.00    +0.000 A 
ATOM     16  C   UNL     1       1.419   7.740  20.923  0.00  0.00    +0.000 A 
ENDBRANCH   1  15
BRANCH   5  17
ATOM     17  C   UNL     1       4.764   1.663  19.693  0.00  0.00    +0.000 C 
ATOM     18  N   UNL     1       4.224   0.902  18.689  0.00  0.00    +0.000 N 
ATOM     19  O   UNL     1       5.309   1.117  20.647  0.00  0.00    +0.000 OA
ATOM     20  H   UNL     1       3.742   1.306  17.890  0.00  0.00    +0.000 HD
ATOM     21  H   UNL     1       4.287  -0.106  18.769  0.00  0.00    +0.000 HD
ENDBRANCH   5  17
BRANCH   2  22
ATOM     22  O   UNL     1       0.239   4.624  20.495  0.00  0.00    +0.000 OA
ATOM     23  H   UNL     1      -0.046   5.535  20.669  0.00  0.00    +0.000 HD
ENDBRANCH   2  22
BRANCH   7  24
ATOM     24  C   UNL     1       7.016   5.897  18.743  0.00  0.00    +0.000 C 
BRANCH  24  25
ATOM     25  C   UNL     1       6.868   6.839  17.533  0.00  0.00    +0.000 C 
ATOM     26  C   UNL     1       7.845   8.018  17.564  0.00  0.00    +0.000 C 
ATOM     27  C   UNL     1       7.085   6.039  16.245  0.00  0.00    +0.000 C 
ENDBRANCH  24  25
ENDBRANCH   7  24
TORSDOF 5
ENDMDL
MODEL 3
REMARK VINA RESULT:      -7.5      4.894      8.236
REMARK  Name = 
REMARK  8 active torsions:
REMARK  status: ('A' for Active; 'I' for Inactive)
REMARK    1  A    between atoms: C_1  and  C_2
REMARK    2  A    between atoms: C_6  and  N_7
REMARK    3  A    between atoms: C_8  and  O_9
REMARK    4  A    between atoms: C_12  and  C_13
REMARK    5  A    between atoms: C_17  and  C_18
REMARK    6  A    between atoms: C_18  and  C_19
REMARK    7  A    between atoms: C_19  and  C_20
REMARK    8  A    between atoms: C_19  and  C_21
REMARK                            x       y       z     vdW  Elec       q    Type
REMARK                         _______ _______ _______ _____ _____    ______ ____
ROOT
ATOM      1  N   UNL     1       1.859   8.564  19.135  0.00  0.00    +0.000 N 
ATOM      2  C   UNL     1       2.239   9.128  17.921  0.00  0.00    +0.000 A 
ATOM      3  N   UNL     1       2.995   8.326  17.201  0.00  0.00    +0.000 NA
ATOM      4  C   UNL     1       3.125   7.179  17.952  0.00  0.00    +0.000 A 
ATOM      5  C   UNL     1       3.790   5.963  17.767  0.00  0.00    +0.000 A 
ATOM      6  N   UNL     1       3.684   4.984  18.717  0.00  0.00    +0.000 NA
ATOM      7  C   UNL     1       2.929   5.213  19.804  0.00  0.00    +0.000 A 
ATOM      8  N   UNL     1       2.278   6.351  20.077  0.00  0.00    +0.000 NA
ATOM      9  C   UNL     1       2.425   7.299  19.138  0.00  0.00    +0.000 A 
ENDROOT
BRANCH   1  15
ATOM     10  C   UNL     1      -1.612  11.814  20.476  0.00  0.00    +0.000 C 
ATOM     11  C   UNL     1      -0.656  10.722  20.855  0.00  0.00    +0.000 A 
ATOM     12  C   UNL     1      -0.489  10.316  22.180  0.00  0.00    +0.000 A 
ATOM     13  C   UNL     1       0.428   9.311  22.500  0.00  0.00    +0.000 A 
ATOM     14  C   UNL     1       1.197   8.702  21.502  0.00  0.00    +0.000 A 
ATOM     15  C   UNL     1       1.044   9.103  20.171  0.00  0.00    +0.000 A 
ATOM     16  C   UNL     1       0.107  10.103  19.859  0.00  0.00    +0.000 A 
ENDBRANCH   1  15
BRANCH   5  17
ATOM     17  C   UNL     1       4.629   5.674  16.574  0.00  0.00    +0.000 C 
ATOM     18  N   UNL     1       5.211   6.733  15.926  0.00  0.00    +0.000 N 
ATOM     19  O   UNL     1       4.817   4.532  16.166  0.00  0.00    +0.000 OA
ATOM     20  H   UNL     1       5.068   7.698  16.211  0.00  0.00    +0.000 HD
ATOM     21  H   UNL     1       5.784   6.538  15.114  0.00  0.00    +0.000 HD
ENDBRANCH   5  17
BRANCH   2  22
ATOM     22  O   UNL     1       1.990  10.367  17.520  0.00  0.00    +0.000 OA
ATOM     23  H   UNL     1       1.766  10.908  18.294  0.00  0.00    +0.000 HD
ENDBRANCH   2  22
BRANCH   7  24
ATOM     24  C   UNL     1       2.783   4.116  20.824  0.00  0.00    +0.000 C 
BRANCH  24  25
ATOM     25  C   UNL     1       1.361   3.531  20.916  0.00  0.00    +0.000 C 
ATOM     26  C   UNL     1       0.853   2.969  19.585  0.00  0.00    +0.000 C 
ATOM     27  C   UNL     1       1.341   2.423  21.972  0.00  0.00    +0.000 C 
ENDBRANCH  24  25
ENDBRANCH   7  24
TORSDOF 5
ENDMDL
MODEL 4
REMARK VINA RESULT:      -7.4      0.836      1.572
REMARK  Name = 
REMARK  8 active torsions:
REMARK  status: ('A' for Active; 'I' for Inactive)
REMARK    1  A    between atoms: C_1  and  C_2
REMARK    2  A    between atoms: C_6  and  N_7
REMARK    3  A    between atoms: C_8  and  O_9
REMARK    4  A    between atoms: C_12  and  C_13
REMARK    5  A    between atoms: C_17  and  C_18
REMARK    6  A    between atoms: C_18  and  C_19
REMARK    7  A    between atoms: C_19  and  C_20
REMARK    8  A    between atoms: C_19  and  C_21
REMARK                            x       y       z     vdW  Elec       q    Type
REMARK                         _______ _______ _______ _____ _____    ______ ____
ROOT
ATOM      1  N   UNL     1       6.472   4.321  13.720  0.00  0.00    +0.000 N 
ATOM      2  C   UNL     1       7.533   5.222  13.700  0.00  0.00    +0.000 A 
ATOM      3  N   UNL     1       7.753   5.778  14.872  0.00  0.00    +0.000 NA
ATOM      4  C   UNL     1       6.809   5.230  15.715  0.00  0.00    +0.000 A 
ATOM      5  C   UNL     1       6.501   5.392  17.069  0.00  0.00    +0.000 A 
ATOM      6  N   UNL     1       5.500   4.646  17.627  0.00  0.00    +0.000 NA
ATOM      7  C   UNL     1       4.843   3.763  16.858  0.00  0.00    +0.000 A 
ATOM      8  N   UNL     1       5.051   3.558  15.552  0.00  0.00    +0.000 NA
ATOM      9  C   UNL     1       6.022   4.324  15.030  0.00  0.00    +0.000 A 
ENDROOT
BRANCH   1  15
ATOM     10  C   UNL     1       2.939   3.660  10.330  0.00  0.00    +0.000 C 
ATOM     11  C   UNL     1       4.186   3.168  11.003  0.00  0.00    +0.000 A 
ATOM     12  C   UNL     1       4.752   1.930  10.691  0.00  0.00    +0.000 A 
ATOM     13  C   UNL     1       5.902   1.493  11.354  0.00  0.00    +0.000 A 
ATOM     14  C   UNL     1       6.500   2.281  12.342  0.00  0.00    +0.000 A 
ATOM     15  C   UNL     1       5.941   3.521  12.669  0.00  0.00    +0.000 A 
ATOM     16  C   UNL     1       4.794   3.958  11.983  0.00  0.00    +0.000 A 
ENDBRANCH   1  15
BRANCH   5  17
ATOM     17  C   UNL     1       7.213   6.356  17.950  0.00  0.00    +0.000 C 
ATOM     18  N   UNL     1       7.506   7.596  17.441  0.00  0.00    +0.000 N 
ATOM     19  O   UNL     1       7.530   6.080  19.103  0.00  0.00    +0.000 OA
ATOM     20  H   UNL     1       7.285   7.864  16.487  0.00  0.00    +0.000 HD
ATOM     21  H   UNL     1       7.990   8.253  18.040  0.00  0.00    +0.000 HD
ENDBRANCH   5  17
BRANCH   2  22
ATOM     22  O   UNL     1       8.220   5.601  12.630  0.00  0.00    +0.000 OA
ATOM     23  H   UNL     1       7.888   5.117  11.857  0.00  0.00    +0.000 HD
ENDBRANCH   2  22
BRANCH   7  24
ATOM     24  C   UNL     1       3.770   2.916  17.490  0.00  0.00    +0.000 C 
BRANCH  24  25
ATOM     25  C   UNL     1       2.826   3.694  18.425  0.00  0.00    +0.000 C 
ATOM     26  C   UNL     1       1.662   4.362  17.687  0.00  0.00    +0.000 C 
ATOM     27  C   UNL     1       2.270   2.740  19.485  0.00  0.00    +0.000 C 
ENDBRANCH  24  25
ENDBRANCH   7  24
TORSDOF 5
ENDMDL
MODEL 5
REMARK VINA RESULT:      -7.2      2.758      6.857
REMARK  Name = 
REMARK  8 active torsions:
REMARK  status: ('A' for Active; 'I' for Inactive)
REMARK    1  A    between atoms: C_1  and  C_2
REMARK    2  A    between atoms: C_6  and  N_7
REMARK    3  A    between atoms: C_8  and  O_9
REMARK    4  A    between atoms: C_12  and  C_13
REMARK    5  A    between atoms: C_17  and  C_18
REMARK    6  A    between atoms: C_18  and  C_19
REMARK    7  A    between atoms: C_19  and  C_20
REMARK    8  A    between atoms: C_19  and  C_21
REMARK                            x       y       z     vdW  Elec       q    Type
REMARK                         _______ _______ _______ _____ _____    ______ ____
ROOT
ATOM      1  N   UNL     1       3.956   4.611  17.747  0.00  0.00    +0.000 N 
ATOM      2  C   UNL     1       3.614   3.835  16.643  0.00  0.00    +0.000 A 
ATOM      3  N   UNL     1       4.517   3.881  15.687  0.00  0.00    +0.000 NA
ATOM      4  C   UNL     1       5.507   4.714  16.164  0.00  0.00    +0.000 A 
ATOM      5  C   UNL     1       6.722   5.176  15.651  0.00  0.00    +0.000 A 
ATOM      6  N   UNL     1       7.515   5.985  16.417  0.00  0.00    +0.000 NA
ATOM      7  C   UNL     1       7.108   6.307  17.656  0.00  0.00    +0.000 A 
ATOM      8  N   UNL     1       5.953   5.933  18.221  0.00  0.00    +0.000 NA
ATOM      9  C   UNL     1       5.187   5.162  17.432  0.00  0.00    +0.000 A 
ENDROOT
BRANCH   1  15
ATOM     10  C   UNL     1       2.036   2.631  21.847  0.00  0.00    +0.000 C 
ATOM     11  C   UNL     1       2.279   3.840  20.992  0.00  0.00    +0.000 A 
ATOM     12  C   UNL     1       1.754   5.092  21.321  0.00  0.00    +0.000 A 
ATOM     13  C   UNL     1       1.981   6.192  20.490  0.00  0.00    +0.000 A 
ATOM     14  C   UNL     1       2.728   6.058  19.315  0.00  0.00    +0.000 A 
ATOM     15  C   UNL     1       3.254   4.809  18.970  0.00  0.00    +0.000 A 
ATOM     16  C   UNL     1       3.035   3.713  19.822  0.00  0.00    +0.000 A 
ENDBRANCH   1  15
BRANCH   5  17
ATOM     17  C   UNL     1       7.206   4.834  14.286  0.00  0.00    +0.000 C 
ATOM     18  N   UNL     1       6.661   3.738  13.668  0.00  0.00    +0.000 N 
ATOM     19  O   UNL     1       8.058   5.501  13.707  0.00  0.00    +0.000 OA
ATOM     20  H   UNL     1       5.970   3.142  14.114  0.00  0.00    +0.000 HD
ATOM     21  H   UNL     1       6.989   3.505  12.738  0.00  0.00    +0.000 HD
ENDBRANCH   5  17
BRANCH   2  22
ATOM     22  O   UNL     1       2.473   3.182  16.467  0.00  0.00    +0.000 OA
ATOM     23  H   UNL     1       1.954   3.635  15.784  0.00  0.00    +0.000 HD
ENDBRANCH   2  22
BRANCH   7  24
ATOM     24  C   UNL     1       8.004   7.164  18.510  0.00  0.00    +0.000 C 
BRANCH  24  25
ATOM     25  C   UNL     1       8.300   8.551  17.911  0.00  0.00    +0.000 C 
ATOM     26  C   UNL     1       7.045   9.270  17.406  0.00  0.00    +0.000 C 
ATOM     27  C   UNL     1       8.987   9.419  18.969  0.00  0.00    +0.000 C 
ENDBRANCH  24  25
ENDBRANCH   7  24
TORSDOF 5
ENDMDL
MODEL 6
REMARK VINA RESULT:      -7.2      4.322      7.707
REMARK  Name = 
REMARK  8 active torsions:
REMARK  status: ('A' for Active; 'I' for Inactive)
REMARK    1  A    between atoms: C_1  and  C_2
REMARK    2  A    between atoms: C_6  and  N_7
REMARK    3  A    between atoms: C_8  and  O_9
REMARK    4  A    between atoms: C_12  and  C_13
REMARK    5  A    between atoms: C_17  and  C_18
REMARK    6  A    between atoms: C_18  and  C_19
REMARK    7  A    between atoms: C_19  and  C_20
REMARK    8  A    between atoms: C_19  and  C_21
REMARK                            x       y       z     vdW  Elec       q    Type
REMARK                         _______ _______ _______ _____ _____    ______ ____
ROOT
ATOM      1  N   UNL     1       2.163   5.491  20.013  0.00  0.00    +0.000 N 
ATOM      2  C   UNL     1       1.420   4.346  20.288  0.00  0.00    +0.000 A 
ATOM      3  N   UNL     1       2.121   3.240  20.161  0.00  0.00    +0.000 NA
ATOM      4  C   UNL     1       3.384   3.651  19.792  0.00  0.00    +0.000 A 
ATOM      5  C   UNL     1       4.579   2.987  19.501  0.00  0.00    +0.000 A 
ATOM      6  N   UNL     1       5.698   3.712  19.198  0.00  0.00    +0.000 NA
ATOM      7  C   UNL     1       5.622   5.054  19.199  0.00  0.00    +0.000 A 
ATOM      8  N   UNL     1       4.520   5.773  19.441  0.00  0.00    +0.000 NA
ATOM      9  C   UNL     1       3.434   5.031  19.708  0.00  0.00    +0.000 A 
ENDROOT
BRANCH   1  15
ATOM     10  C   UNL     1       1.948   9.856  17.708  0.00  0.00    +0.000 C 
ATOM     11  C   UNL     1       1.679   9.031  18.932  0.00  0.00    +0.000 A 
ATOM     12  C   UNL     1       1.162   9.594  20.101  0.00  0.00    +0.000 A 
ATOM     13  C   UNL     1       0.944   8.800  21.230  0.00  0.00    +0.000 A 
ATOM     14  C   UNL     1       1.247   7.435  21.213  0.00  0.00    +0.000 A 
ATOM     15  C   UNL     1       1.771   6.859  20.051  0.00  0.00    +0.000 A 
ATOM     16  C   UNL     1       1.969   7.663  18.915  0.00  0.00    +0.000 A 
ENDBRANCH   1  15
BRANCH   5  17
ATOM     17  C   UNL     1       4.700   1.505  19.497  0.00  0.00    +0.000 C 
ATOM     18  N   UNL     1       4.053   0.811  18.506  0.00  0.00    +0.000 N 
ATOM     19  O   UNL     1       5.358   0.898  20.336  0.00  0.00    +0.000 OA
ATOM     20  H   UNL     1       3.478   1.265  17.802  0.00  0.00    +0.000 HD
ATOM     21  H   UNL     1       4.135  -0.199  18.501  0.00  0.00    +0.000 HD
ENDBRANCH   5  17
BRANCH   2  22
ATOM     22  O   UNL     1       0.121   4.300  20.552  0.00  0.00    +0.000 OA
ATOM     23  H   UNL     1      -0.155   5.155  20.918  0.00  0.00    +0.000 HD
ENDBRANCH   2  22
BRANCH   7  24
ATOM     24  C   UNL     1       6.868   5.846  18.906  0.00  0.00    +0.000 C 
BRANCH  24  25
ATOM     25  C   UNL     1       6.794   6.673  17.609  0.00  0.00    +0.000 C 
ATOM     26  C   UNL     1       7.796   7.831  17.574  0.00  0.00    +0.000 C 
ATOM     27  C   UNL     1       7.043   5.753  16.412  0.00  0.00    +0.000 C 
ENDBRANCH  24  25
ENDBRANCH   7  24
TORSDOF 5
ENDMDL
MODEL 7
REMARK VINA RESULT:      -7.0      3.853      7.623
REMARK  Name = 
REMARK  8 active torsions:
REMARK  status: ('A' for Active; 'I' for Inactive)
REMARK    1  A    between atoms: C_1  and  C_2
REMARK    2  A    between atoms: C_6  and  N_7
REMARK    3  A    between atoms: C_8  and  O_9
REMARK    4  A    between atoms: C_12  and  C_13
REMARK    5  A    between atoms: C_17  and  C_18
REMARK    6  A    between atoms: C_18  and  C_19
REMARK    7  A    between atoms: C_19  and  C_20
REMARK    8  A    between atoms: C_19  and  C_21
REMARK                            x       y       z     vdW  Elec       q    Type
REMARK                         _______ _______ _______ _____ _____    ______ ____
ROOT
ATOM      1  N   UNL     1       2.396   5.918  19.644  0.00  0.00    +0.000 N 
ATOM      2  C   UNL     1       1.672   4.894  20.248  0.00  0.00    +0.000 A 
ATOM      3  N   UNL     1       2.332   3.756  20.286  0.00  0.00    +0.000 NA
ATOM      4  C   UNL     1       3.547   4.021  19.691  0.00  0.00    +0.000 A 
ATOM      5  C   UNL     1       4.685   3.258  19.417  0.00  0.00    +0.000 A 
ATOM      6  N   UNL     1       5.772   3.851  18.834  0.00  0.00    +0.000 NA
ATOM      7  C   UNL     1       5.721   5.163  18.550  0.00  0.00    +0.000 A 
ATOM      8  N   UNL     1       4.669   5.965  18.754  0.00  0.00    +0.000 NA
ATOM      9  C   UNL     1       3.611   5.347  19.302  0.00  0.00    +0.000 A 
ENDROOT
BRANCH   1  15
ATOM     10  C   UNL     1       0.536  10.108  21.486  0.00  0.00    +0.000 C 
ATOM     11  C   UNL     1       1.096   9.352  20.318  0.00  0.00    +0.000 A 
ATOM     12  C   UNL     1       1.168   9.915  19.042  0.00  0.00    +0.000 A 
ATOM     13  C   UNL     1       1.675   9.174  17.971  0.00  0.00    +0.000 A 
ATOM     14  C   UNL     1       2.109   7.857  18.156  0.00  0.00    +0.000 A 
ATOM     15  C   UNL     1       2.037   7.278  19.427  0.00  0.00    +0.000 A 
ATOM     16  C   UNL     1       1.541   8.039  20.500  0.00  0.00    +0.000 A 
ENDBRANCH   1  15
BRANCH   5  17
ATOM     17  C   UNL     1       4.778   1.805  19.723  0.00  0.00    +0.000 C 
ATOM     18  N   UNL     1       4.303   0.921  18.789  0.00  0.00    +0.000 N 
ATOM     19  O   UNL     1       5.267   1.385  20.767  0.00  0.00    +0.000 OA
ATOM     20  H   UNL     1       3.868   1.219  17.920  0.00  0.00    +0.000 HD
ATOM     21  H   UNL     1       4.366  -0.069  18.996  0.00  0.00    +0.000 HD
ENDBRANCH   5  17
BRANCH   2  22
ATOM     22  O   UNL     1       0.415   4.963  20.664  0.00  0.00    +0.000 OA
ATOM     23  H   UNL     1       0.345   4.519  21.524  0.00  0.00    +0.000 HD
ENDBRANCH   2  22
BRANCH   7  24
ATOM     24  C   UNL     1       6.935   5.817  17.948  0.00  0.00    +0.000 C 
BRANCH  24  25
ATOM     25  C   UNL     1       6.914   5.880  16.409  0.00  0.00    +0.000 C 
ATOM     26  C   UNL     1       7.173   4.523  15.747  0.00  0.00    +0.000 C 
ATOM     27  C   UNL     1       5.557   6.416  15.946  0.00  0.00    +0.000 C 
ENDBRANCH  24  25
ENDBRANCH   7  24
TORSDOF 5
ENDMDL
MODEL 8
REMARK VINA RESULT:      -7.0      4.965      8.226
REMARK  Name = 
REMARK  8 active torsions:
REMARK  status: ('A' for Active; 'I' for Inactive)
REMARK    1  A    between atoms: C_1  and  C_2
REMARK    2  A    between atoms: C_6  and  N_7
REMARK    3  A    between atoms: C_8  and  O_9
REMARK    4  A    between atoms: C_12  and  C_13
REMARK    5  A    between atoms: C_17  and  C_18
REMARK    6  A    between atoms: C_18  and  C_19
REMARK    7  A    between atoms: C_19  and  C_20
REMARK    8  A    between atoms: C_19  and  C_21
REMARK                            x       y       z     vdW  Elec       q    Type
REMARK                         _______ _______ _______ _____ _____    ______ ____
ROOT
ATOM      1  N   UNL     1       1.769   8.835  19.005  0.00  0.00    +0.000 N 
ATOM      2  C   UNL     1       2.232   9.315  17.784  0.00  0.00    +0.000 A 
ATOM      3  N   UNL     1       3.011   8.457  17.160  0.00  0.00    +0.000 NA
ATOM      4  C   UNL     1       3.073   7.356  17.987  0.00  0.00    +0.000 A 
ATOM      5  C   UNL     1       3.721   6.120  17.917  0.00  0.00    +0.000 A 
ATOM      6  N   UNL     1       3.539   5.204  18.916  0.00  0.00    +0.000 NA
ATOM      7  C   UNL     1       2.726   5.514  19.940  0.00  0.00    +0.000 A 
ATOM      8  N   UNL     1       2.085   6.677  20.104  0.00  0.00    +0.000 NA
ATOM      9  C   UNL     1       2.306   7.563  19.120  0.00  0.00    +0.000 A 
ENDROOT
BRANCH   1  15
ATOM     10  C   UNL     1       0.381   9.301  23.724  0.00  0.00    +0.000 C 
ATOM     11  C   UNL     1       0.193   9.675  22.284  0.00  0.00    +0.000 A 
ATOM     12  C   UNL     1      -0.846  10.511  21.869  0.00  0.00    +0.000 A 
ATOM     13  C   UNL     1      -1.005  10.820  20.516  0.00  0.00    +0.000 A 
ATOM     14  C   UNL     1      -0.135  10.294  19.555  0.00  0.00    +0.000 A 
ATOM     15  C   UNL     1       0.907   9.451  19.956  0.00  0.00    +0.000 A 
ATOM     16  C   UNL     1       1.068   9.161  21.321  0.00  0.00    +0.000 A 
ENDBRANCH   1  15
BRANCH   5  17
ATOM     17  C   UNL     1       4.623   5.742  16.796  0.00  0.00    +0.000 C 
ATOM     18  N   UNL     1       5.345   6.738  16.190  0.00  0.00    +0.000 N 
ATOM     19  O   UNL     1       4.741   4.583  16.412  0.00  0.00    +0.000 OA
ATOM     20  H   UNL     1       5.265   7.715  16.455  0.00  0.00    +0.000 HD
ATOM     21  H   UNL     1       5.960   6.482  15.426  0.00  0.00    +0.000 HD
ENDBRANCH   5  17
BRANCH   2  22
ATOM     22  O   UNL     1       2.033  10.531  17.294  0.00  0.00    +0.000 OA
ATOM     23  H   UNL     1       2.846  11.050  17.403  0.00  0.00    +0.000 HD
ENDBRANCH   2  22
BRANCH   7  24
ATOM     24  C   UNL     1       2.497   4.485  21.015  0.00  0.00    +0.000 C 
BRANCH  24  25
ATOM     25  C   UNL     1       1.209   3.662  20.830  0.00  0.00    +0.000 C 
ATOM     26  C   UNL     1       1.004   3.178  19.391  0.00  0.00    +0.000 C 
ATOM     27  C   UNL     1       1.247   2.452  21.768  0.00  0.00    +0.000 C 
ENDBRANCH  24  25
ENDBRANCH   7  24
TORSDOF 5
ENDMDL
MODEL 9
REMARK VINA RESULT:      -7.0      4.297      7.675
REMARK  Name = 
REMARK  8 active torsions:
REMARK  status: ('A' for Active; 'I' for Inactive)
REMARK    1  A    between atoms: C_1  and  C_2
REMARK    2  A    between atoms: C_6  and  N_7
REMARK    3  A    between atoms: C_8  and  O_9
REMARK    4  A    between atoms: C_12  and  C_13
REMARK    5  A    between atoms: C_17  and  C_18
REMARK    6  A    between atoms: C_18  and  C_19
REMARK    7  A    between atoms: C_19  and  C_20
REMARK    8  A    between atoms: C_19  and  C_21
REMARK                            x       y       z     vdW  Elec       q    Type
REMARK                         _______ _______ _______ _____ _____    ______ ____
ROOT
ATOM      1  N   UNL     1       2.450   6.353  19.482  0.00  0.00    +0.000 N 
ATOM      2  C   UNL     1       1.835   5.423  20.316  0.00  0.00    +0.000 A 
ATOM      3  N   UNL     1       2.443   4.256  20.315  0.00  0.00    +0.000 NA
ATOM      4  C   UNL     1       3.509   4.404  19.455  0.00  0.00    +0.000 A 
ATOM      5  C   UNL     1       4.531   3.557  19.015  0.00  0.00    +0.000 A 
ATOM      6  N   UNL     1       5.487   4.038  18.163  0.00  0.00    +0.000 NA
ATOM      7  C   UNL     1       5.426   5.324  17.779  0.00  0.00    +0.000 A 
ATOM      8  N   UNL     1       4.476   6.199  18.129  0.00  0.00    +0.000 NA
ATOM      9  C   UNL     1       3.539   5.688  18.943  0.00  0.00    +0.000 A 
ENDROOT
BRANCH   1  15
ATOM     10  C   UNL     1       0.426  10.549  21.128  0.00  0.00    +0.000 C 
ATOM     11  C   UNL     1       1.084   9.786  20.017  0.00  0.00    +0.000 A 
ATOM     12  C   UNL     1       1.261  10.340  18.747  0.00  0.00    +0.000 A 
ATOM     13  C   UNL     1       1.858   9.592  17.728  0.00  0.00    +0.000 A 
ATOM     14  C   UNL     1       2.280   8.279  17.959  0.00  0.00    +0.000 A 
ATOM     15  C   UNL     1       2.104   7.709  19.224  0.00  0.00    +0.000 A 
ATOM     16  C   UNL     1       1.518   8.476  20.246  0.00  0.00    +0.000 A 
ENDBRANCH   1  15
BRANCH   5  17
ATOM     17  C   UNL     1       4.632   2.131  19.424  0.00  0.00    +0.000 C 
ATOM     18  N   UNL     1       4.166   1.178  18.554  0.00  0.00    +0.000 N 
ATOM     19  O   UNL     1       5.120   1.790  20.497  0.00  0.00    +0.000 OA
ATOM     20  H   UNL     1       3.733   1.411  17.665  0.00  0.00    +0.000 HD
ATOM     21  H   UNL     1       4.234   0.207  18.831  0.00  0.00    +0.000 HD
ENDBRANCH   5  17
BRANCH   2  22
ATOM     22  O   UNL     1       0.701   5.597  20.982  0.00  0.00    +0.000 OA
ATOM     23  H   UNL     1      -0.040   5.546  20.358  0.00  0.00    +0.000 HD
ENDBRANCH   2  22
BRANCH   7  24
ATOM     24  C   UNL     1       6.506   5.858  16.876  0.00  0.00    +0.000 C 
BRANCH  24  25
ATOM     25  C   UNL     1       7.675   6.525  17.623  0.00  0.00    +0.000 C 
ATOM     26  C   UNL     1       7.582   8.054  17.646  0.00  0.00    +0.000 C 
ATOM     27  C   UNL     1       7.717   6.001  19.061  0.00  0.00    +0.000 C 
ENDBRANCH  24  25
ENDBRANCH   7  24
TORSDOF 5
ENDMDL
