MODEL 1
REMARK VINA RESULT:      -7.8      0.000      0.000
REMARK  Name = 
REMARK  11 active torsions:
REMARK  status: ('A' for Active; 'I' for Inactive)
REMARK    1  A    between atoms: C_1  and  C_2
REMARK    2  A    between atoms: C_3  and  C_4
REMARK    3  A    between atoms: N_6  and  C_7
REMARK    4  A    between atoms: N_6  and  C_17
REMARK    5  A    between atoms: C_10  and  C_11
REMARK    6  A    between atoms: C_11  and  C_12
REMARK    7  A    between atoms: C_11  and  C_13
REMARK    8  A    between atoms: C_11  and  C_14
REMARK    9  A    between atoms: C_17  and  C_18
REMARK   10  A    between atoms: C_17  and  C_27
REMARK   11  A    between atoms: N_20  and  C_21
REMARK                            x       y       z     vdW  Elec       q    Type
REMARK                         _______ _______ _______ _____ _____    ______ ____
ROOT
ATOM      1  C   UNL     1      -0.633  10.402  19.559  0.00  0.00    +0.000 C 
ENDROOT
BRANCH   1   2
ATOM      2  C   UNL     1      -1.737  10.631  18.504  0.00  0.00    +0.000 A 
ATOM      3  C   UNL     1      -2.812  11.517  18.681  0.00  0.00    +0.000 A 
ATOM      4  C   UNL     1      -3.790  11.612  17.696  0.00  0.00    +0.000 A 
ATOM      5  N   UNL     1      -3.765  10.921  16.538  0.00  0.00    +0.000 NA
ATOM      6  C   UNL     1      -2.709  10.109  16.349  0.00  0.00    +0.000 A 
ATOM      7  C   UNL     1      -1.688   9.948  17.276  0.00  0.00    +0.000 A 
ENDBRANCH   1   2
BRANCH   1   8
ATOM      8  C   UNL     1      -0.810  11.252  20.878  0.00  0.00    +0.000 C 
ATOM      9  O   UNL     1       0.063  11.301  21.746  0.00  0.00    +0.000 OA
ATOM     10  N   UNL     1      -1.945  12.053  20.995  0.00  0.00    +0.000 N 
ATOM     11  H   UNL     1      -2.553  12.143  20.186  0.00  0.00    +0.000 HD
BRANCH  10  12
ATOM     12  C   UNL     1      -2.010  13.058  22.061  0.00  0.00    +0.000 C 
ATOM     13  C   UNL     1      -2.494  14.419  21.548  0.00  0.00    +0.000 C 
ATOM     14  C   UNL     1      -3.994  14.646  21.687  0.00  0.00    +0.000 C 
ATOM     15  C   UNL     1      -4.426  14.436  23.128  0.00  0.00    +0.000 C 
ATOM     16  C   UNL     1      -4.183  12.991  23.532  0.00  0.00    +0.000 C 
ATOM     17  C   UNL     1      -2.729  12.558  23.338  0.00  0.00    +0.000 C 
ENDBRANCH  10  12
ENDBRANCH   1   8
BRANCH   1  20
ATOM     18  C   UNL     1       1.391  11.613  18.587  0.00  0.00    +0.000 C 
ATOM     19  O   UNL     1       2.516  11.669  18.087  0.00  0.00    +0.000 OA
ATOM     20  N   UNL     1       0.772  10.428  19.043  0.00  0.00    +0.000 N 
BRANCH  20  21
ATOM     21  C   UNL     1       1.500   9.168  19.031  0.00  0.00    +0.000 A 
ATOM     22  C   UNL     1       1.537   8.354  20.167  0.00  0.00    +0.000 A 
ATOM     23  C   UNL     1       2.170   7.102  20.170  0.00  0.00    +0.000 A 
ATOM     24  C   UNL     1       2.794   6.584  19.029  0.00  0.00    +0.000 A 
ATOM     25  C   UNL     1       2.796   7.411  17.895  0.00  0.00    +0.000 A 
ATOM     26  C   UNL     1       2.165   8.676  17.896  0.00  0.00    +0.000 A 
BRANCH  24  27
ATOM     27  C   UNL     1       3.403   5.168  19.007  0.00  0.00    +0.000 C 
ATOM     28  C   UNL     1       3.146   4.415  17.678  0.00  0.00    +0.000 C 
ATOM     29  C   UNL     1       4.935   5.268  19.177  0.00  0.00    +0.000 C 
ATOM     30  C   UNL     1       2.831   4.289  20.139  0.00  0.00    +0.000 C 
ENDBRANCH  24  27
ENDBRANCH  20  21
BRANCH  18  33
ATOM     31  C   UNL     1       0.439  15.333  18.973  0.00  0.00    +0.000 C 
ATOM     32  C   UNL     1       1.217  14.062  18.927  0.00  0.00    +0.000 C 
ATOM     33  C   UNL     1       0.616  12.886  18.692  0.00  0.00    +0.000 C 
ENDBRANCH  18  33
ENDBRANCH   1  20
TORSDOF 7
ENDMDL
MODEL 2
REMARK VINA RESULT:      -7.8      1.474      6.008
REMARK  Name = 
REMARK  11 active torsions:
REMARK  status: ('A' for Active; 'I' for Inactive)
REMARK    1  A    between atoms: C_1  and  C_2
REMARK    2  A    between atoms: C_3  and  C_4
REMARK    3  A    between atoms: N_6  and  C_7
REMARK    4  A    between atoms: N_6  and  C_17
REMARK    5  A    between atoms: C_10  and  C_11
REMARK    6  A    between atoms: C_11  and  C_12
REMARK    7  A    between atoms: C_11  and  C_13
REMARK    8  A    between atoms: C_11  and  C_14
REMARK    9  A    between atoms: C_17  and  C_18
REMARK   10  A    between atoms: C_17  and  C_27
REMARK   11  A    between atoms: N_20  and  C_21
REMARK                            x       y       z     vdW  Elec       q    Type
REMARK                         _______ _______ _______ _____ _____    ______ ____
ROOT
ATOM      1  C   UNL     1      -0.490  10.659  19.417  0.00  0.00    +0.000 C 
ENDROOT
BRANCH   1   2
ATOM      2  C   UNL     1      -1.768  10.751  18.556  0.00  0.00    +0.000 A 
ATOM      3  C   UNL     1      -2.854  11.587  18.859  0.00  0.00    +0.000 A 
ATOM      4  C   UNL     1      -3.988  11.556  18.053  0.00  0.00    +0.000 A 
ATOM      5  N   UNL     1      -4.113  10.785  16.954  0.00  0.00    +0.000 NA
ATOM      6  C   UNL     1      -3.052  10.020  16.638  0.00  0.00    +0.000 A 
ATOM      7  C   UNL     1      -1.882   9.983  17.383  0.00  0.00    +0.000 A 
ENDBRANCH   1   2
BRANCH   1   8
ATOM      8  C   UNL     1      -0.734  10.863  20.964  0.00  0.00    +0.000 C 
ATOM      9  O   UNL     1      -0.121  10.215  21.814  0.00  0.00    +0.000 OA
ATOM     10  N   UNL     1      -1.590  11.888  21.364  0.00  0.00    +0.000 N 
ATOM     11  H   UNL     1      -1.933  12.530  20.654  0.00  0.00    +0.000 HD
BRANCH  10  12
ATOM     12  C   UNL     1      -1.626  12.287  22.775  0.00  0.00    +0.000 C 
ATOM     13  C   UNL     1      -0.930  13.631  23.016  0.00  0.00    +0.000 C 
ATOM     14  C   UNL     1      -1.862  14.836  22.989  0.00  0.00    +0.000 C 
ATOM     15  C   UNL     1      -3.002  14.642  23.974  0.00  0.00    +0.000 C 
ATOM     16  C   UNL     1      -3.846  13.450  23.553  0.00  0.00    +0.000 C 
ATOM     17  C   UNL     1      -3.030  12.164  23.416  0.00  0.00    +0.000 C 
ENDBRANCH  10  12
ENDBRANCH   1   8
BRANCH   1  20
ATOM     18  C   UNL     1       1.736  10.838  18.182  0.00  0.00    +0.000 C 
ATOM     19  O   UNL     1       2.757  11.422  17.813  0.00  0.00    +0.000 OA
ATOM     20  N   UNL     1       0.687  11.437  18.915  0.00  0.00    +0.000 N 
BRANCH  20  21
ATOM     21  C   UNL     1       0.716  12.862  19.207  0.00  0.00    +0.000 A 
ATOM     22  C   UNL     1      -0.121  13.748  18.522  0.00  0.00    +0.000 A 
ATOM     23  C   UNL     1      -0.169  15.117  18.825  0.00  0.00    +0.000 A 
ATOM     24  C   UNL     1       0.610  15.679  19.842  0.00  0.00    +0.000 A 
ATOM     25  C   UNL     1       1.483  14.805  20.510  0.00  0.00    +0.000 A 
ATOM     26  C   UNL     1       1.535  13.427  20.197  0.00  0.00    +0.000 A 
BRANCH  24  27
ATOM     27  C   UNL     1       0.484  17.164  20.238  0.00  0.00    +0.000 C 
ATOM     28  C   UNL     1       1.541  18.068  19.555  0.00  0.00    +0.000 C 
ATOM     29  C   UNL     1      -0.903  17.692  19.811  0.00  0.00    +0.000 C 
ATOM     30  C   UNL     1       0.645  17.358  21.760  0.00  0.00    +0.000 C 
ENDBRANCH  24  27
ENDBRANCH  20  21
BRANCH  18  33
ATOM     31  C   UNL     1       2.418   7.051  17.882  0.00  0.00    +0.000 C 
ATOM     32  C   UNL     1       2.578   8.507  18.163  0.00  0.00    +0.000 C 
ATOM     33  C   UNL     1       1.612   9.386  17.854  0.00  0.00    +0.000 C 
ENDBRANCH  18  33
ENDBRANCH   1  20
TORSDOF 7
ENDMDL
MODEL 3
REMARK VINA RESULT:      -7.8      1.473      5.943
REMARK  Name = 
REMARK  11 active torsions:
REMARK  status: ('A' for Active; 'I' for Inactive)
REMARK    1  A    between atoms: C_1  and  C_2
REMARK    2  A    between atoms: C_3  and  C_4
REMARK    3  A    between atoms: N_6  and  C_7
REMARK    4  A    between atoms: N_6  and  C_17
REMARK    5  A    between atoms: C_10  and  C_11
REMARK    6  A    between atoms: C_11  and  C_12
REMARK    7  A    between atoms: C_11  and  C_13
REMARK    8  A    between atoms: C_11  and  C_14
REMARK    9  A    between atoms: C_17  and  C_18
REMARK   10  A    between atoms: C_17  and  C_27
REMARK   11  A    between atoms: N_20  and  C_21
REMARK                            x       y       z     vdW  Elec       q    Type
REMARK                         _______ _______ _______ _____ _____    ______ ____
ROOT
ATOM      1  C   UNL     1      -0.579  10.645  19.380  0.00  0.00    +0.000 C 
ENDROOT
BRANCH   1   2
ATOM      2  C   UNL     1      -1.841  10.745  18.495  0.00  0.00    +0.000 A 
ATOM      3  C   UNL     1      -2.931  11.580  18.783  0.00  0.00    +0.000 A 
ATOM      4  C   UNL     1      -4.049  11.557  17.955  0.00  0.00    +0.000 A 
ATOM      5  N   UNL     1      -4.154  10.794  16.848  0.00  0.00    +0.000 NA
ATOM      6  C   UNL     1      -3.089  10.029  16.547  0.00  0.00    +0.000 A 
ATOM      7  C   UNL     1      -1.933   9.986  17.314  0.00  0.00    +0.000 A 
ENDBRANCH   1   2
BRANCH   1   8
ATOM      8  C   UNL     1      -0.852  10.848  20.922  0.00  0.00    +0.000 C 
ATOM      9  O   UNL     1      -0.364  10.106  21.775  0.00  0.00    +0.000 OA
ATOM     10  N   UNL     1      -1.576  11.971  21.318  0.00  0.00    +0.000 N 
ATOM     11  H   UNL     1      -1.803  12.668  20.614  0.00  0.00    +0.000 HD
BRANCH  10  12
ATOM     12  C   UNL     1      -1.611  12.342  22.737  0.00  0.00    +0.000 C 
ATOM     13  C   UNL     1      -0.905  13.675  23.006  0.00  0.00    +0.000 C 
ATOM     14  C   UNL     1      -1.829  14.887  23.002  0.00  0.00    +0.000 C 
ATOM     15  C   UNL     1      -2.971  14.682  23.982  0.00  0.00    +0.000 C 
ATOM     16  C   UNL     1      -3.824  13.504  23.537  0.00  0.00    +0.000 C 
ATOM     17  C   UNL     1      -3.016  12.216  23.374  0.00  0.00    +0.000 C 
ENDBRANCH  10  12
ENDBRANCH   1   8
BRANCH   1  20
ATOM     18  C   UNL     1       1.682  10.810  18.209  0.00  0.00    +0.000 C 
ATOM     19  O   UNL     1       2.712  11.390  17.862  0.00  0.00    +0.000 OA
ATOM     20  N   UNL     1       0.611  11.417  18.901  0.00  0.00    +0.000 N 
BRANCH  20  21
ATOM     21  C   UNL     1       0.629  12.847  19.173  0.00  0.00    +0.000 A 
ATOM     22  C   UNL     1       1.494  13.380  20.133  0.00  0.00    +0.000 A 
ATOM     23  C   UNL     1       1.587  14.759  20.372  0.00  0.00    +0.000 A 
ATOM     24  C   UNL     1       0.827  15.689  19.654  0.00  0.00    +0.000 A 
ATOM     25  C   UNL     1      -0.073  15.161  18.716  0.00  0.00    +0.000 A 
ATOM     26  C   UNL     1      -0.171  13.770  18.482  0.00  0.00    +0.000 A 
BRANCH  24  27
ATOM     27  C   UNL     1       1.002  17.208  19.850  0.00  0.00    +0.000 C 
ATOM     28  C   UNL     1       2.333  17.583  20.549  0.00  0.00    +0.000 C 
ATOM     29  C   UNL     1       1.006  17.905  18.472  0.00  0.00    +0.000 C 
ATOM     30  C   UNL     1      -0.136  17.801  20.707  0.00  0.00    +0.000 C 
ENDBRANCH  24  27
ENDBRANCH  20  21
BRANCH  18  33
ATOM     31  C   UNL     1       2.440   7.041  17.861  0.00  0.00    +0.000 C 
ATOM     32  C   UNL     1       2.584   8.503  18.121  0.00  0.00    +0.000 C 
ATOM     33  C   UNL     1       1.570   9.353  17.899  0.00  0.00    +0.000 C 
ENDBRANCH  18  33
ENDBRANCH   1  20
TORSDOF 7
ENDMDL
MODEL 4
REMARK VINA RESULT:      -7.7      0.404      1.188
REMARK  Name = 
REMARK  11 active torsions:
REMARK  status: ('A' for Active; 'I' for Inactive)
REMARK    1  A    between atoms: C_1  and  C_2
REMARK    2  A    between atoms: C_3  and  C_4
REMARK    3  A    between atoms: N_6  and  C_7
REMARK    4  A    between atoms: N_6  and  C_17
REMARK    5  A    between atoms: C_10  and  C_11
REMARK    6  A    between atoms: C_11  and  C_12
REMARK    7  A    between atoms: C_11  and  C_13
REMARK    8  A    between atoms: C_11  and  C_14
REMARK    9  A    between atoms: C_17  and  C_18
REMARK   10  A    between atoms: C_17  and  C_27
REMARK   11  A    between atoms: N_20  and  C_21
REMARK                            x       y       z     vdW  Elec       q    Type
REMARK                         _______ _______ _______ _____ _____    ______ ____
ROOT
ATOM      1  C   UNL     1      -0.874  10.464  19.404  0.00  0.00    +0.000 C 
ENDROOT
BRANCH   1   2
ATOM      2  C   UNL     1      -1.903  10.640  18.265  0.00  0.00    +0.000 A 
ATOM      3  C   UNL     1      -1.785  10.030  17.007  0.00  0.00    +0.000 A 
ATOM      4  C   UNL     1      -2.734  10.297  16.025  0.00  0.00    +0.000 A 
ATOM      5  N   UNL     1      -3.806  11.094  16.208  0.00  0.00    +0.000 NA
ATOM      6  C   UNL     1      -3.943  11.640  17.430  0.00  0.00    +0.000 A 
ATOM      7  C   UNL     1      -3.047  11.433  18.469  0.00  0.00    +0.000 A 
ENDBRANCH   1   2
BRANCH   1   8
ATOM      8  C   UNL     1      -1.169  11.338  20.685  0.00  0.00    +0.000 C 
ATOM      9  O   UNL     1      -0.420  11.340  21.662  0.00  0.00    +0.000 OA
ATOM     10  N   UNL     1      -2.253  12.214  20.646  0.00  0.00    +0.000 N 
ATOM     11  H   UNL     1      -2.740  12.334  19.763  0.00  0.00    +0.000 HD
BRANCH  10  12
ATOM     12  C   UNL     1      -2.394  13.232  21.692  0.00  0.00    +0.000 C 
ATOM     13  C   UNL     1      -2.790  14.599  21.122  0.00  0.00    +0.000 C 
ATOM     14  C   UNL     1      -4.290  14.866  21.114  0.00  0.00    +0.000 C 
ATOM     15  C   UNL     1      -4.864  14.684  22.509  0.00  0.00    +0.000 C 
ATOM     16  C   UNL     1      -4.699  13.238  22.947  0.00  0.00    +0.000 C 
ATOM     17  C   UNL     1      -3.245  12.766  22.898  0.00  0.00    +0.000 C 
ENDBRANCH  10  12
ENDBRANCH   1   8
BRANCH   1  20
ATOM     18  C   UNL     1       1.198  11.715  18.596  0.00  0.00    +0.000 C 
ATOM     19  O   UNL     1       2.355  11.793  18.179  0.00  0.00    +0.000 OA
ATOM     20  N   UNL     1       0.564  10.516  18.992  0.00  0.00    +0.000 N 
BRANCH  20  21
ATOM     21  C   UNL     1       1.309   9.266  19.017  0.00  0.00    +0.000 A 
ATOM     22  C   UNL     1       1.420   8.526  20.198  0.00  0.00    +0.000 A 
ATOM     23  C   UNL     1       2.072   7.284  20.243  0.00  0.00    +0.000 A 
ATOM     24  C   UNL     1       2.641   6.703  19.104  0.00  0.00    +0.000 A 
ATOM     25  C   UNL     1       2.569   7.458  17.922  0.00  0.00    +0.000 A 
ATOM     26  C   UNL     1       1.919   8.712  17.880  0.00  0.00    +0.000 A 
BRANCH  24  27
ATOM     27  C   UNL     1       3.270   5.296  19.136  0.00  0.00    +0.000 C 
ATOM     28  C   UNL     1       4.811   5.321  19.289  0.00  0.00    +0.000 C 
ATOM     29  C   UNL     1       2.711   4.512  20.343  0.00  0.00    +0.000 C 
ATOM     30  C   UNL     1       2.960   4.510  17.844  0.00  0.00    +0.000 C 
ENDBRANCH  24  27
ENDBRANCH  20  21
BRANCH  18  33
ATOM     31  C   UNL     1       0.152  15.404  19.037  0.00  0.00    +0.000 C 
ATOM     32  C   UNL     1       0.946  14.142  19.033  0.00  0.00    +0.000 C 
ATOM     33  C   UNL     1       0.398  12.976  18.659  0.00  0.00    +0.000 C 
ENDBRANCH  18  33
ENDBRANCH   1  20
TORSDOF 7
ENDMDL
MODEL 5
REMARK VINA RESULT:      -7.6      0.497      1.287
REMARK  Name = 
REMARK  11 active torsions:
REMARK  status: ('A' for Active; 'I' for Inactive)
REMARK    1  A    between atoms: C_1  and  C_2
REMARK    2  A    between atoms: C_3  and  C_4
REMARK    3  A    between atoms: N_6  and  C_7
REMARK    4  A    between atoms: N_6  and  C_17
REMARK    5  A    between atoms: C_10  and  C_11
REMARK    6  A    between atoms: C_11  and  C_12
REMARK    7  A    between atoms: C_11  and  C_13
REMARK    8  A    between atoms: C_11  and  C_14
REMARK    9  A    between atoms: C_17  and  C_18
REMARK   10  A    between atoms: C_17  and  C_27
REMARK   11  A    between atoms: N_20  and  C_21
REMARK                            x       y       z     vdW  Elec       q    Type
REMARK                         _______ _______ _______ _____ _____    ______ ____
ROOT
ATOM      1  C   UNL     1      -0.533  10.288  19.618  0.00  0.00    +0.000 C 
ENDROOT
BRANCH   1   2
ATOM      2  C   UNL     1      -1.662  10.630  18.621  0.00  0.00    +0.000 A 
ATOM      3  C   UNL     1      -2.698  11.534  18.897  0.00  0.00    +0.000 A 
ATOM      4  C   UNL     1      -3.704  11.732  17.956  0.00  0.00    +0.000 A 
ATOM      5  N   UNL     1      -3.741  11.127  16.752  0.00  0.00    +0.000 NA
ATOM      6  C   UNL     1      -2.721  10.297  16.469  0.00  0.00    +0.000 A 
ATOM      7  C   UNL     1      -1.677  10.036  17.346  0.00  0.00    +0.000 A 
ENDBRANCH   1   2
BRANCH   1   8
ATOM      8  C   UNL     1      -0.619  11.071  20.987  0.00  0.00    +0.000 C 
ATOM      9  O   UNL     1       0.303  11.062  21.804  0.00  0.00    +0.000 OA
ATOM     10  N   UNL     1      -1.730  11.882  21.210  0.00  0.00    +0.000 N 
ATOM     11  H   UNL     1      -2.382  12.024  20.444  0.00  0.00    +0.000 HD
BRANCH  10  12
ATOM     12  C   UNL     1      -1.716  12.831  22.329  0.00  0.00    +0.000 C 
ATOM     13  C   UNL     1      -1.325  14.245  21.886  0.00  0.00    +0.000 C 
ATOM     14  C   UNL     1      -2.506  15.151  21.558  0.00  0.00    +0.000 C 
ATOM     15  C   UNL     1      -3.467  15.207  22.733  0.00  0.00    +0.000 C 
ATOM     16  C   UNL     1      -4.054  13.827  22.983  0.00  0.00    +0.000 C 
ATOM     17  C   UNL     1      -2.983  12.760  23.215  0.00  0.00    +0.000 C 
ENDBRANCH  10  12
ENDBRANCH   1   8
BRANCH   1  20
ATOM     18  C   UNL     1       1.504  11.450  18.612  0.00  0.00    +0.000 C 
ATOM     19  O   UNL     1       2.611  11.479  18.072  0.00  0.00    +0.000 OA
ATOM     20  N   UNL     1       0.852  10.276  19.049  0.00  0.00    +0.000 N 
BRANCH  20  21
ATOM     21  C   UNL     1       1.524   8.988  18.964  0.00  0.00    +0.000 A 
ATOM     22  C   UNL     1       2.136   8.580  17.775  0.00  0.00    +0.000 A 
ATOM     23  C   UNL     1       2.851   7.376  17.676  0.00  0.00    +0.000 A 
ATOM     24  C   UNL     1       3.006   6.515  18.767  0.00  0.00    +0.000 A 
ATOM     25  C   UNL     1       2.361   6.896  19.955  0.00  0.00    +0.000 A 
ATOM     26  C   UNL     1       1.635   8.105  20.050  0.00  0.00    +0.000 A 
BRANCH  24  27
ATOM     27  C   UNL     1       3.872   5.242  18.683  0.00  0.00    +0.000 C 
ATOM     28  C   UNL     1       5.348   5.483  19.088  0.00  0.00    +0.000 C 
ATOM     29  C   UNL     1       3.310   4.175  19.647  0.00  0.00    +0.000 C 
ATOM     30  C   UNL     1       3.888   4.664  17.253  0.00  0.00    +0.000 C 
ENDBRANCH  24  27
ENDBRANCH  20  21
BRANCH  18  33
ATOM     31  C   UNL     1       0.697  15.217  18.855  0.00  0.00    +0.000 C 
ATOM     32  C   UNL     1       1.432  13.925  18.730  0.00  0.00    +0.000 C 
ATOM     33  C   UNL     1       0.789  12.749  18.793  0.00  0.00    +0.000 C 
ENDBRANCH  18  33
ENDBRANCH   1  20
TORSDOF 7
ENDMDL
MODEL 6
REMARK VINA RESULT:      -7.6      1.846      3.981
REMARK  Name = 
REMARK  11 active torsions:
REMARK  status: ('A' for Active; 'I' for Inactive)
REMARK    1  A    between atoms: C_1  and  C_2
REMARK    2  A    between atoms: C_3  and  C_4
REMARK    3  A    between atoms: N_6  and  C_7
REMARK    4  A    between atoms: N_6  and  C_17
REMARK    5  A    between atoms: C_10  and  C_11
REMARK    6  A    between atoms: C_11  and  C_12
REMARK    7  A    between atoms: C_11  and  C_13
REMARK    8  A    between atoms: C_11  and  C_14
REMARK    9  A    between atoms: C_17  and  C_18
REMARK   10  A    between atoms: C_17  and  C_27
REMARK   11  A    between atoms: N_20  and  C_21
REMARK                            x       y       z     vdW  Elec       q    Type
REMARK                         _______ _______ _______ _____ _____    ______ ____
ROOT
ATOM      1  C   UNL     1      -0.455  12.062  19.240  0.00  0.00    +0.000 C 
ENDROOT
BRANCH   1   2
ATOM      2  C   UNL     1      -0.717  12.203  20.755  0.00  0.00    +0.000 A 
ATOM      3  C   UNL     1      -1.172  11.154  21.568  0.00  0.00    +0.000 A 
ATOM      4  C   UNL     1      -1.436  11.395  22.914  0.00  0.00    +0.000 A 
ATOM      5  N   UNL     1      -1.251  12.586  23.518  0.00  0.00    +0.000 NA
ATOM      6  C   UNL     1      -0.768  13.578  22.748  0.00  0.00    +0.000 A 
ATOM      7  C   UNL     1      -0.479  13.431  21.398  0.00  0.00    +0.000 A 
ENDBRANCH   1   2
BRANCH   1   8
ATOM      8  C   UNL     1      -1.574  11.267  18.460  0.00  0.00    +0.000 C 
ATOM      9  O   UNL     1      -1.449  10.077  18.169  0.00  0.00    +0.000 OA
ATOM     10  N   UNL     1      -2.780  11.917  18.201  0.00  0.00    +0.000 N 
ATOM     11  H   UNL     1      -2.931  12.831  18.617  0.00  0.00    +0.000 HD
BRANCH  10  12
ATOM     12  C   UNL     1      -3.932  11.138  17.735  0.00  0.00    +0.000 C 
ATOM     13  C   UNL     1      -4.802  10.639  18.893  0.00  0.00    +0.000 C 
ATOM     14  C   UNL     1      -5.972  11.551  19.240  0.00  0.00    +0.000 C 
ATOM     15  C   UNL     1      -6.822  11.808  18.007  0.00  0.00    +0.000 C 
ATOM     16  C   UNL     1      -6.004  12.553  16.965  0.00  0.00    +0.000 C 
ATOM     17  C   UNL     1      -4.716  11.820  16.587  0.00  0.00    +0.000 C 
ENDBRANCH  10  12
ENDBRANCH   1   8
BRANCH   1  20
ATOM     18  C   UNL     1       1.910  12.539  18.408  0.00  0.00    +0.000 C 
ATOM     19  O   UNL     1       3.034  12.220  18.015  0.00  0.00    +0.000 OA
ATOM     20  N   UNL     1       0.927  11.630  18.859  0.00  0.00    +0.000 N 
BRANCH  20  21
ATOM     21  C   UNL     1       1.236  10.213  18.974  0.00  0.00    +0.000 A 
ATOM     22  C   UNL     1       1.660   9.482  17.860  0.00  0.00    +0.000 A 
ATOM     23  C   UNL     1       2.031   8.131  17.949  0.00  0.00    +0.000 A 
ATOM     24  C   UNL     1       2.012   7.435  19.162  0.00  0.00    +0.000 A 
ATOM     25  C   UNL     1       1.550   8.150  20.279  0.00  0.00    +0.000 A 
ATOM     26  C   UNL     1       1.169   9.508  20.186  0.00  0.00    +0.000 A 
BRANCH  24  27
ATOM     27  C   UNL     1       2.513   5.982  19.275  0.00  0.00    +0.000 C 
ATOM     28  C   UNL     1       2.032   5.270  20.564  0.00  0.00    +0.000 C 
ATOM     29  C   UNL     1       1.976   5.161  18.082  0.00  0.00    +0.000 C 
ATOM     30  C   UNL     1       4.054   5.914  19.273  0.00  0.00    +0.000 C 
ENDBRANCH  24  27
ENDBRANCH  20  21
BRANCH  18  33
ATOM     31  C   UNL     1       1.948  16.361  18.947  0.00  0.00    +0.000 C 
ATOM     32  C   UNL     1       2.281  14.910  19.030  0.00  0.00    +0.000 C 
ATOM     33  C   UNL     1       1.553  13.989  18.380  0.00  0.00    +0.000 C 
ENDBRANCH  18  33
ENDBRANCH   1  20
TORSDOF 7
ENDMDL
MODEL 7
REMARK VINA RESULT:      -7.5      2.335      5.186
REMARK  Name = 
REMARK  11 active torsions:
REMARK  status: ('A' for Active; 'I' for Inactive)
REMARK    1  A    between atoms: C_1  and  C_2
REMARK    2  A    between atoms: C_3  and  C_4
REMARK    3  A    between atoms: N_6  and  C_7
REMARK    4  A    between atoms: N_6  and  C_17
REMARK    5  A    between atoms: C_10  and  C_11
REMARK    6  A    between atoms: C_11  and  C_12
REMARK    7  A    between atoms: C_11  and  C_13
REMARK    8  A    between atoms: C_11  and  C_14
REMARK    9  A    between atoms: C_17  and  C_18
REMARK   10  A    between atoms: C_17  and  C_27
REMARK   11  A    between atoms: N_20  and  C_21
REMARK                            x       y       z     vdW  Elec       q    Type
REMARK                         _______ _______ _______ _____ _____    ______ ____
ROOT
ATOM      1  C   UNL     1       0.921  11.830  20.239  0.00  0.00    +0.000 C 
ENDROOT
BRANCH   1   2
ATOM      2  C   UNL     1       0.059  12.252  21.449  0.00  0.00    +0.000 A 
ATOM      3  C   UNL     1      -0.603  11.344  22.289  0.00  0.00    +0.000 A 
ATOM      4  C   UNL     1      -1.404  11.824  23.321  0.00  0.00    +0.000 A 
ATOM      5  N   UNL     1      -1.571  13.132  23.601  0.00  0.00    +0.000 NA
ATOM      6  C   UNL     1      -0.896  14.000  22.825  0.00  0.00    +0.000 A 
ATOM      7  C   UNL     1      -0.077  13.614  21.774  0.00  0.00    +0.000 A 
ENDBRANCH   1   2
BRANCH   1   8
ATOM      8  C   UNL     1       1.493  13.038  19.399  0.00  0.00    +0.000 C 
ATOM      9  O   UNL     1       0.833  13.595  18.520  0.00  0.00    +0.000 OA
ATOM     10  N   UNL     1       2.741  13.550  19.751  0.00  0.00    +0.000 N 
ATOM     11  H   UNL     1       3.180  13.200  20.598  0.00  0.00    +0.000 HD
BRANCH  10  12
ATOM     12  C   UNL     1       3.180  14.831  19.188  0.00  0.00    +0.000 C 
ATOM     13  C   UNL     1       3.416  15.891  20.269  0.00  0.00    +0.000 C 
ATOM     14  C   UNL     1       4.856  15.982  20.756  0.00  0.00    +0.000 C 
ATOM     15  C   UNL     1       5.795  16.201  19.582  0.00  0.00    +0.000 C 
ATOM     16  C   UNL     1       5.743  15.000  18.652  0.00  0.00    +0.000 C 
ATOM     17  C   UNL     1       4.328  14.693  18.159  0.00  0.00    +0.000 C 
ENDBRANCH  10  12
ENDBRANCH   1   8
BRANCH   1  20
ATOM     18  C   UNL     1      -0.962  10.831  18.836  0.00  0.00    +0.000 C 
ATOM     19  O   UNL     1      -1.506   9.938  18.182  0.00  0.00    +0.000 OA
ATOM     20  N   UNL     1       0.341  10.753  19.375  0.00  0.00    +0.000 N 
BRANCH  20  21
ATOM     21  C   UNL     1       1.183   9.599  19.097  0.00  0.00    +0.000 A 
ATOM     22  C   UNL     1       1.358   8.596  20.054  0.00  0.00    +0.000 A 
ATOM     23  C   UNL     1       2.106   7.437  19.796  0.00  0.00    +0.000 A 
ATOM     24  C   UNL     1       2.715   7.209  18.557  0.00  0.00    +0.000 A 
ATOM     25  C   UNL     1       2.579   8.229  17.603  0.00  0.00    +0.000 A 
ATOM     26  C   UNL     1       1.831   9.399  17.868  0.00  0.00    +0.000 A 
BRANCH  24  27
ATOM     27  C   UNL     1       3.454   5.893  18.243  0.00  0.00    +0.000 C 
ATOM     28  C   UNL     1       2.497   4.725  17.896  0.00  0.00    +0.000 C 
ATOM     29  C   UNL     1       4.372   6.101  17.019  0.00  0.00    +0.000 C 
ATOM     30  C   UNL     1       4.312   5.429  19.438  0.00  0.00    +0.000 C 
ENDBRANCH  24  27
ENDBRANCH  20  21
BRANCH  18  33
ATOM     31  C   UNL     1      -3.737  13.279  19.934  0.00  0.00    +0.000 C 
ATOM     32  C   UNL     1      -2.984  12.030  19.621  0.00  0.00    +0.000 C 
ATOM     33  C   UNL     1      -1.749  12.073  19.099  0.00  0.00    +0.000 C 
ENDBRANCH  18  33
ENDBRANCH   1  20
TORSDOF 7
ENDMDL
MODEL 8
REMARK VINA RESULT:      -7.4      1.862      3.881
REMARK  Name = 
REMARK  11 active torsions:
REMARK  status: ('A' for Active; 'I' for Inactive)
REMARK    1  A    between atoms: C_1  and  C_2
REMARK    2  A    between atoms: C_3  and  C_4
REMARK    3  A    between atoms: N_6  and  C_7
REMARK    4  A    between atoms: N_6  and  C_17
REMARK    5  A    between atoms: C_10  and  C_11
REMARK    6  A    between atoms: C_11  and  C_12
REMARK    7  A    between atoms: C_11  and  C_13
REMARK    8  A    between atoms: C_11  and  C_14
REMARK    9  A    between atoms: C_17  and  C_18
REMARK   10  A    between atoms: C_17  and  C_27
REMARK   11  A    between atoms: N_20  and  C_21
REMARK                            x       y       z     vdW  Elec       q    Type
REMARK                         _______ _______ _______ _____ _____    ______ ____
ROOT
ATOM      1  C   UNL     1      -0.486  12.151  19.163  0.00  0.00    +0.000 C 
ENDROOT
BRANCH   1   2
ATOM      2  C   UNL     1      -0.752  12.369  20.668  0.00  0.00    +0.000 A 
ATOM      3  C   UNL     1      -0.356  13.518  21.371  0.00  0.00    +0.000 A 
ATOM      4  C   UNL     1      -0.590  13.597  22.740  0.00  0.00    +0.000 A 
ATOM      5  N   UNL     1      -1.214  12.640  23.457  0.00  0.00    +0.000 NA
ATOM      6  C   UNL     1      -1.636  11.561  22.772  0.00  0.00    +0.000 A 
ATOM      7  C   UNL     1      -1.445  11.394  21.408  0.00  0.00    +0.000 A 
ENDBRANCH   1   2
BRANCH   1   8
ATOM      8  C   UNL     1      -1.600  11.311  18.423  0.00  0.00    +0.000 C 
ATOM      9  O   UNL     1      -1.492  10.097  18.243  0.00  0.00    +0.000 OA
ATOM     10  N   UNL     1      -2.783  11.958  18.070  0.00  0.00    +0.000 N 
ATOM     11  H   UNL     1      -2.926  12.908  18.399  0.00  0.00    +0.000 HD
BRANCH  10  12
ATOM     12  C   UNL     1      -3.938  11.162  17.641  0.00  0.00    +0.000 C 
ATOM     13  C   UNL     1      -4.755  10.637  18.827  0.00  0.00    +0.000 C 
ATOM     14  C   UNL     1      -5.927  11.526  19.226  0.00  0.00    +0.000 C 
ATOM     15  C   UNL     1      -6.827  11.778  18.028  0.00  0.00    +0.000 C 
ATOM     16  C   UNL     1      -6.062  12.546  16.963  0.00  0.00    +0.000 C 
ATOM     17  C   UNL     1      -4.777  11.840  16.530  0.00  0.00    +0.000 C 
ENDBRANCH  10  12
ENDBRANCH   1   8
BRANCH   1  20
ATOM     18  C   UNL     1       1.897  12.606  18.370  0.00  0.00    +0.000 C 
ATOM     19  O   UNL     1       3.024  12.277  17.997  0.00  0.00    +0.000 OA
ATOM     20  N   UNL     1       0.899  11.707  18.807  0.00  0.00    +0.000 N 
BRANCH  20  21
ATOM     21  C   UNL     1       1.195  10.287  18.934  0.00  0.00    +0.000 A 
ATOM     22  C   UNL     1       1.607   9.542  17.825  0.00  0.00    +0.000 A 
ATOM     23  C   UNL     1       1.966   8.189  17.925  0.00  0.00    +0.000 A 
ATOM     24  C   UNL     1       1.946   7.505  19.145  0.00  0.00    +0.000 A 
ATOM     25  C   UNL     1       1.495   8.234  20.257  0.00  0.00    +0.000 A 
ATOM     26  C   UNL     1       1.126   9.594  20.153  0.00  0.00    +0.000 A 
BRANCH  24  27
ATOM     27  C   UNL     1       2.433   6.047  19.269  0.00  0.00    +0.000 C 
ATOM     28  C   UNL     1       1.996   5.156  18.080  0.00  0.00    +0.000 C 
ATOM     29  C   UNL     1       3.977   6.025  19.303  0.00  0.00    +0.000 C 
ATOM     30  C   UNL     1       1.896   5.380  20.552  0.00  0.00    +0.000 C 
ENDBRANCH  24  27
ENDBRANCH  20  21
BRANCH  18  33
ATOM     31  C   UNL     1       1.965  16.432  18.875  0.00  0.00    +0.000 C 
ATOM     32  C   UNL     1       2.287  14.978  18.970  0.00  0.00    +0.000 C 
ATOM     33  C   UNL     1       1.551  14.059  18.329  0.00  0.00    +0.000 C 
ENDBRANCH  18  33
ENDBRANCH   1  20
TORSDOF 7
ENDMDL
MODEL 9
REMARK VINA RESULT:      -7.4      2.266      5.176
REMARK  Name = 
REMARK  11 active torsions:
REMARK  status: ('A' for Active; 'I' for Inactive)
REMARK    1  A    between atoms: C_1  and  C_2
REMARK    2  A    between atoms: C_3  and  C_4
REMARK    3  A    between atoms: N_6  and  C_7
REMARK    4  A    between atoms: N_6  and  C_17
REMARK    5  A    between atoms: C_10  and  C_11
REMARK    6  A    between atoms: C_11  and  C_12
REMARK    7  A    between atoms: C_11  and  C_13
REMARK    8  A    between atoms: C_11  and  C_14
REMARK    9  A    between atoms: C_17  and  C_18
REMARK   10  A    between atoms: C_17  and  C_27
REMARK   11  A    between atoms: N_20  and  C_21
REMARK                            x       y       z     vdW  Elec       q    Type
REMARK                         _______ _______ _______ _____ _____    ______ ____
ROOT
ATOM      1  C   UNL     1       0.901  11.835  20.096  0.00  0.00    +0.000 C 
ENDROOT
BRANCH   1   2
ATOM      2  C   UNL     1       0.078  12.326  21.307  0.00  0.00    +0.000 A 
ATOM      3  C   UNL     1      -0.092  13.679  21.637  0.00  0.00    +0.000 A 
ATOM      4  C   UNL     1      -0.804  14.021  22.783  0.00  0.00    +0.000 A 
ATOM      5  N   UNL     1      -1.385  13.125  23.606  0.00  0.00    +0.000 NA
ATOM      6  C   UNL     1      -1.261  11.830  23.262  0.00  0.00    +0.000 A 
ATOM      7  C   UNL     1      -0.569  11.396  22.140  0.00  0.00    +0.000 A 
ENDBRANCH   1   2
BRANCH   1   8
ATOM      8  C   UNL     1       1.432  12.992  19.162  0.00  0.00    +0.000 C 
ATOM      9  O   UNL     1       0.724  13.510  18.296  0.00  0.00    +0.000 OA
ATOM     10  N   UNL     1       2.702  13.508  19.413  0.00  0.00    +0.000 N 
ATOM     11  H   UNL     1       3.189  13.198  20.249  0.00  0.00    +0.000 HD
BRANCH  10  12
ATOM     12  C   UNL     1       3.116  14.754  18.758  0.00  0.00    +0.000 C 
ATOM     13  C   UNL     1       2.925  15.976  19.663  0.00  0.00    +0.000 C 
ATOM     14  C   UNL     1       4.163  16.366  20.462  0.00  0.00    +0.000 C 
ATOM     15  C   UNL     1       5.346  16.571  19.532  0.00  0.00    +0.000 C 
ATOM     16  C   UNL     1       5.689  15.261  18.840  0.00  0.00    +0.000 C 
ATOM     17  C   UNL     1       4.505  14.664  18.080  0.00  0.00    +0.000 C 
ENDBRANCH  10  12
ENDBRANCH   1   8
BRANCH   1  20
ATOM     18  C   UNL     1      -1.027  10.723  18.849  0.00  0.00    +0.000 C 
ATOM     19  O   UNL     1      -1.583   9.785  18.274  0.00  0.00    +0.000 OA
ATOM     20  N   UNL     1       0.303  10.701  19.323  0.00  0.00    +0.000 N 
BRANCH  20  21
ATOM     21  C   UNL     1       1.156   9.551  19.063  0.00  0.00    +0.000 A 
ATOM     22  C   UNL     1       1.331   8.559  20.033  0.00  0.00    +0.000 A 
ATOM     23  C   UNL     1       2.090   7.403  19.792  0.00  0.00    +0.000 A 
ATOM     24  C   UNL     1       2.710   7.167  18.560  0.00  0.00    +0.000 A 
ATOM     25  C   UNL     1       2.574   8.176  17.594  0.00  0.00    +0.000 A 
ATOM     26  C   UNL     1       1.815   9.343  17.841  0.00  0.00    +0.000 A 
BRANCH  24  27
ATOM     27  C   UNL     1       3.462   5.853  18.266  0.00  0.00    +0.000 C 
ATOM     28  C   UNL     1       4.276   5.333  19.477  0.00  0.00    +0.000 C 
ATOM     29  C   UNL     1       2.443   4.751  17.903  0.00  0.00    +0.000 C 
ATOM     30  C   UNL     1       4.455   6.021  17.097  0.00  0.00    +0.000 C 
ENDBRANCH  24  27
ENDBRANCH  20  21
BRANCH  18  33
ATOM     31  C   UNL     1      -3.869  13.154  19.802  0.00  0.00    +0.000 C 
ATOM     32  C   UNL     1      -3.099  11.910  19.513  0.00  0.00    +0.000 C 
ATOM     33  C   UNL     1      -1.828  11.961  19.087  0.00  0.00    +0.000 C 
ENDBRANCH  18  33
ENDBRANCH   1  20
TORSDOF 7
ENDMDL
