MODEL 1
REMARK VINA RESULT:      -7.6      0.000      0.000
REMARK  Name = 
REMARK  7 active torsions:
REMARK  status: ('A' for Active; 'I' for Inactive)
REMARK    1  A    between atoms: C_2  and  C_3
REMARK    2  A    between atoms: C_8  and  C_10
REMARK    3  A    between atoms: C_10  and  N_11
REMARK    4  A    between atoms: C_12  and  C_14
REMARK    5  A    between atoms: C_14  and  C_15
REMARK    6  A    between atoms: C_15  and  C_16
REMARK    7  A    between atoms: C_16  and  C_17
REMARK                            x       y       z     vdW  Elec       q    Type
REMARK                         _______ _______ _______ _____ _____    ______ ____
ROOT
ATOM      1  N   UNL     1       6.600   3.880  18.578  0.00  0.00    +0.000 N 
ATOM      2  C   UNL     1       7.282   4.694  17.718  0.00  0.00    +0.000 C 
ATOM      3  O   UNL     1       8.282   4.272  17.139  0.00  0.00    +0.000 OA
ATOM      4  H   UNL     1       6.974   2.938  18.656  0.00  0.00    +0.000 HD
ENDROOT
BRANCH   1   5
ATOM      5  C   UNL     1       5.399   4.195  19.316  0.00  0.00    +0.000 C 
BRANCH   5  11
ATOM      6  C   UNL     1       2.597   4.336  18.319  0.00  0.00    +0.000 C 
ATOM      7  C   UNL     1       1.236   3.823  17.844  0.00  0.00    +0.000 C 
ATOM      8  C   UNL     1       0.830   2.851  18.946  0.00  0.00    +0.000 C 
ATOM      9  C   UNL     1       2.146   2.183  19.308  0.00  0.00    +0.000 C 
ATOM     10  N   UNL     1       3.140   3.218  19.115  0.00  0.00    +0.000 N 
ATOM     11  C   UNL     1       4.443   3.031  19.549  0.00  0.00    +0.000 C 
ATOM     12  O   UNL     1       4.806   2.007  20.127  0.00  0.00    +0.000 OA
BRANCH   6  14
ATOM     13  N   UNL     1       2.365   6.560  19.722  0.00  0.00    +0.000 NA
ATOM     14  C   UNL     1       2.458   5.576  19.113  0.00  0.00    +0.000 C 
ENDBRANCH   6  14
ENDBRANCH   5  11
ENDBRANCH   1   5
BRANCH   2  15
ATOM     15  C   UNL     1       6.777   6.112  17.483  0.00  0.00    +0.000 C 
BRANCH  15  16
ATOM     16  C   UNL     1       6.103   6.355  16.129  0.00  0.00    +0.000 C 
BRANCH  16  17
ATOM     17  C   UNL     1       5.322   5.148  15.620  0.00  0.00    +0.000 C 
BRANCH  17  18
ATOM     18  C   UNL     1       5.924   4.658  14.326  0.00  0.00    +0.000 A 
ATOM     19  C   UNL     1       7.153   5.160  13.877  0.00  0.00    +0.000 A 
ATOM     20  C   UNL     1       7.693   4.728  12.665  0.00  0.00    +0.000 A 
ATOM     21  C   UNL     1       7.004   3.798  11.890  0.00  0.00    +0.000 A 
ATOM     22  C   UNL     1       5.771   3.309  12.318  0.00  0.00    +0.000 A 
ATOM     23  C   UNL     1       5.229   3.740  13.528  0.00  0.00    +0.000 A 
ENDBRANCH  17  18
ENDBRANCH  16  17
ENDBRANCH  15  16
ENDBRANCH   2  15
TORSDOF 7
ENDMDL
MODEL 2
REMARK VINA RESULT:      -7.4      0.963      1.487
REMARK  Name = 
REMARK  7 active torsions:
REMARK  status: ('A' for Active; 'I' for Inactive)
REMARK    1  A    between atoms: C_2  and  C_3
REMARK    2  A    between atoms: C_8  and  C_10
REMARK    3  A    between atoms: C_10  and  N_11
REMARK    4  A    between atoms: C_12  and  C_14
REMARK    5  A    between atoms: C_14  and  C_15
REMARK    6  A    between atoms: C_15  and  C_16
REMARK    7  A    between atoms: C_16  and  C_17
REMARK                            x       y       z     vdW  Elec       q    Type
REMARK                         _______ _______ _______ _____ _____    ______ ____
ROOT
ATOM      1  N   UNL     1       6.206   3.759  18.345  0.00  0.00    +0.000 N 
ATOM      2  C   UNL     1       6.977   4.700  17.719  0.00  0.00    +0.000 C 
ATOM      3  O   UNL     1       8.138   4.434  17.411  0.00  0.00    +0.000 OA
ATOM      4  H   UNL     1       6.665   2.864  18.491  0.00  0.00    +0.000 HD
ENDROOT
BRANCH   1   5
ATOM      5  C   UNL     1       4.825   3.886  18.749  0.00  0.00    +0.000 C 
BRANCH   5  11
ATOM      6  C   UNL     1       1.992   3.899  19.664  0.00  0.00    +0.000 C 
ATOM      7  C   UNL     1       0.710   3.366  20.306  0.00  0.00    +0.000 C 
ATOM      8  C   UNL     1       1.184   2.885  21.674  0.00  0.00    +0.000 C 
ATOM      9  C   UNL     1       2.544   2.280  21.365  0.00  0.00    +0.000 C 
ATOM     10  N   UNL     1       3.062   3.094  20.284  0.00  0.00    +0.000 N 
ATOM     11  C   UNL     1       4.381   2.964  19.878  0.00  0.00    +0.000 C 
ATOM     12  O   UNL     1       5.165   2.185  20.418  0.00  0.00    +0.000 OA
BRANCH   6  14
ATOM     13  N   UNL     1       2.278   6.488  20.093  0.00  0.00    +0.000 NA
ATOM     14  C   UNL     1       2.160   5.346  19.915  0.00  0.00    +0.000 C 
ENDBRANCH   6  14
ENDBRANCH   5  11
ENDBRANCH   1   5
BRANCH   2  15
ATOM     15  C   UNL     1       6.371   6.061  17.401  0.00  0.00    +0.000 C 
BRANCH  15  16
ATOM     16  C   UNL     1       5.808   6.216  15.985  0.00  0.00    +0.000 C 
BRANCH  16  17
ATOM     17  C   UNL     1       5.150   4.946  15.456  0.00  0.00    +0.000 C 
BRANCH  17  18
ATOM     18  C   UNL     1       5.795   4.540  14.154  0.00  0.00    +0.000 A 
ATOM     19  C   UNL     1       5.169   3.613  13.308  0.00  0.00    +0.000 A 
ATOM     20  C   UNL     1       5.782   3.216  12.119  0.00  0.00    +0.000 A 
ATOM     21  C   UNL     1       7.027   3.734  11.771  0.00  0.00    +0.000 A 
ATOM     22  C   UNL     1       7.667   4.639  12.616  0.00  0.00    +0.000 A 
ATOM     23  C   UNL     1       7.057   5.037  13.805  0.00  0.00    +0.000 A 
ENDBRANCH  17  18
ENDBRANCH  16  17
ENDBRANCH  15  16
ENDBRANCH   2  15
TORSDOF 7
ENDMDL
MODEL 3
REMARK VINA RESULT:      -7.3      2.880      5.852
REMARK  Name = 
REMARK  7 active torsions:
REMARK  status: ('A' for Active; 'I' for Inactive)
REMARK    1  A    between atoms: C_2  and  C_3
REMARK    2  A    between atoms: C_8  and  C_10
REMARK    3  A    between atoms: C_10  and  N_11
REMARK    4  A    between atoms: C_12  and  C_14
REMARK    5  A    between atoms: C_14  and  C_15
REMARK    6  A    between atoms: C_15  and  C_16
REMARK    7  A    between atoms: C_16  and  C_17
REMARK                            x       y       z     vdW  Elec       q    Type
REMARK                         _______ _______ _______ _____ _____    ______ ____
ROOT
ATOM      1  N   UNL     1       4.892   4.332  16.195  0.00  0.00    +0.000 N 
ATOM      2  C   UNL     1       5.135   5.673  16.083  0.00  0.00    +0.000 C 
ATOM      3  O   UNL     1       5.427   6.153  14.989  0.00  0.00    +0.000 OA
ATOM      4  H   UNL     1       4.948   3.816  15.320  0.00  0.00    +0.000 HD
ENDROOT
BRANCH   1   5
ATOM      5  C   UNL     1       4.511   3.607  17.385  0.00  0.00    +0.000 C 
BRANCH   5  11
ATOM      6  C   UNL     1       3.359   3.551  20.130  0.00  0.00    +0.000 C 
ATOM      7  C   UNL     1       2.294   3.676  21.220  0.00  0.00    +0.000 C 
ATOM      8  C   UNL     1       1.153   2.816  20.689  0.00  0.00    +0.000 C 
ATOM      9  C   UNL     1       1.180   3.105  19.196  0.00  0.00    +0.000 C 
ATOM     10  N   UNL     1       2.581   3.319  18.897  0.00  0.00    +0.000 N 
ATOM     11  C   UNL     1       3.013   3.405  17.583  0.00  0.00    +0.000 C 
ATOM     12  O   UNL     1       2.248   3.285  16.627  0.00  0.00    +0.000 OA
BRANCH   6  14
ATOM     13  N   UNL     1       5.048   1.584  20.625  0.00  0.00    +0.000 NA
ATOM     14  C   UNL     1       4.298   2.446  20.418  0.00  0.00    +0.000 C 
ENDBRANCH   6  14
ENDBRANCH   5  11
ENDBRANCH   1   5
BRANCH   2  15
ATOM     15  C   UNL     1       5.025   6.551  17.323  0.00  0.00    +0.000 C 
BRANCH  15  16
ATOM     16  C   UNL     1       3.705   7.312  17.475  0.00  0.00    +0.000 C 
BRANCH  16  17
ATOM     17  C   UNL     1       2.908   6.894  18.707  0.00  0.00    +0.000 C 
BRANCH  17  18
ATOM     18  C   UNL     1       2.006   8.024  19.140  0.00  0.00    +0.000 A 
ATOM     19  C   UNL     1       1.653   9.038  18.239  0.00  0.00    +0.000 A 
ATOM     20  C   UNL     1       0.844  10.098  18.651  0.00  0.00    +0.000 A 
ATOM     21  C   UNL     1       0.390  10.156  19.967  0.00  0.00    +0.000 A 
ATOM     22  C   UNL     1       0.754   9.164  20.875  0.00  0.00    +0.000 A 
ATOM     23  C   UNL     1       1.563   8.104  20.466  0.00  0.00    +0.000 A 
ENDBRANCH  17  18
ENDBRANCH  16  17
ENDBRANCH  15  16
ENDBRANCH   2  15
TORSDOF 7
ENDMDL
MODEL 4
REMARK VINA RESULT:      -7.3      3.064      6.174
REMARK  Name = 
REMARK  7 active torsions:
REMARK  status: ('A' for Active; 'I' for Inactive)
REMARK    1  A    between atoms: C_2  and  C_3
REMARK    2  A    between atoms: C_8  and  C_10
REMARK    3  A    between atoms: C_10  and  N_11
REMARK    4  A    between atoms: C_12  and  C_14
REMARK    5  A    between atoms: C_14  and  C_15
REMARK    6  A    between atoms: C_15  and  C_16
REMARK    7  A    between atoms: C_16  and  C_17
REMARK                            x       y       z     vdW  Elec       q    Type
REMARK                         _______ _______ _______ _____ _____    ______ ____
ROOT
ATOM      1  N   UNL     1       4.883   4.592  16.357  0.00  0.00    +0.000 N 
ATOM      2  C   UNL     1       4.824   5.950  16.504  0.00  0.00    +0.000 C 
ATOM      3  O   UNL     1       5.155   6.682  15.572  0.00  0.00    +0.000 OA
ATOM      4  H   UNL     1       5.187   4.278  15.439  0.00  0.00    +0.000 HD
ENDROOT
BRANCH   1   5
ATOM      5  C   UNL     1       4.509   3.589  17.327  0.00  0.00    +0.000 C 
BRANCH   5  11
ATOM      6  C   UNL     1       3.353   3.629  20.070  0.00  0.00    +0.000 C 
ATOM      7  C   UNL     1       2.286   3.793  21.153  0.00  0.00    +0.000 C 
ATOM      8  C   UNL     1       1.146   2.915  20.651  0.00  0.00    +0.000 C 
ATOM      9  C   UNL     1       1.175   3.152  19.149  0.00  0.00    +0.000 C 
ATOM     10  N   UNL     1       2.577   3.355  18.845  0.00  0.00    +0.000 N 
ATOM     11  C   UNL     1       3.011   3.395  17.529  0.00  0.00    +0.000 C 
ATOM     12  O   UNL     1       2.247   3.241  16.577  0.00  0.00    +0.000 OA
BRANCH   6  14
ATOM     13  N   UNL     1       5.019   1.662  20.638  0.00  0.00    +0.000 NA
ATOM     14  C   UNL     1       4.291   2.535  20.398  0.00  0.00    +0.000 C 
ENDBRANCH   6  14
ENDBRANCH   5  11
ENDBRANCH   1   5
BRANCH   2  15
ATOM     15  C   UNL     1       4.330   6.531  17.824  0.00  0.00    +0.000 C 
BRANCH  15  16
ATOM     16  C   UNL     1       2.837   6.867  17.878  0.00  0.00    +0.000 C 
BRANCH  16  17
ATOM     17  C   UNL     1       2.558   8.366  17.881  0.00  0.00    +0.000 C 
BRANCH  17  18
ATOM     18  C   UNL     1       1.692   8.723  19.065  0.00  0.00    +0.000 A 
ATOM     19  C   UNL     1       1.769   7.980  20.252  0.00  0.00    +0.000 A 
ATOM     20  C   UNL     1       0.946   8.293  21.334  0.00  0.00    +0.000 A 
ATOM     21  C   UNL     1       0.035   9.343  21.236  0.00  0.00    +0.000 A 
ATOM     22  C   UNL     1      -0.063  10.073  20.053  0.00  0.00    +0.000 A 
ATOM     23  C   UNL     1       0.758   9.761  18.969  0.00  0.00    +0.000 A 
ENDBRANCH  17  18
ENDBRANCH  16  17
ENDBRANCH  15  16
ENDBRANCH   2  15
TORSDOF 7
ENDMDL
MODEL 5
REMARK VINA RESULT:      -7.3      3.298      5.423
REMARK  Name = 
REMARK  7 active torsions:
REMARK  status: ('A' for Active; 'I' for Inactive)
REMARK    1  A    between atoms: C_2  and  C_3
REMARK    2  A    between atoms: C_8  and  C_10
REMARK    3  A    between atoms: C_10  and  N_11
REMARK    4  A    between atoms: C_12  and  C_14
REMARK    5  A    between atoms: C_14  and  C_15
REMARK    6  A    between atoms: C_15  and  C_16
REMARK    7  A    between atoms: C_16  and  C_17
REMARK                            x       y       z     vdW  Elec       q    Type
REMARK                         _______ _______ _______ _____ _____    ______ ____
ROOT
ATOM      1  N   UNL     1       6.550   4.311  18.554  0.00  0.00    +0.000 N 
ATOM      2  C   UNL     1       7.510   4.869  17.757  0.00  0.00    +0.000 C 
ATOM      3  O   UNL     1       8.532   4.236  17.494  0.00  0.00    +0.000 OA
ATOM      4  H   UNL     1       6.752   3.363  18.861  0.00  0.00    +0.000 HD
ENDROOT
BRANCH   1   5
ATOM      5  C   UNL     1       5.285   4.893  18.939  0.00  0.00    +0.000 C 
BRANCH   5  11
ATOM      6  C   UNL     1       3.166   3.261  20.248  0.00  0.00    +0.000 C 
ATOM      7  C   UNL     1       1.777   2.660  20.468  0.00  0.00    +0.000 C 
ATOM      8  C   UNL     1       1.438   2.066  19.105  0.00  0.00    +0.000 C 
ATOM      9  C   UNL     1       2.006   3.094  18.139  0.00  0.00    +0.000 C 
ATOM     10  N   UNL     1       3.179   3.611  18.814  0.00  0.00    +0.000 N 
ATOM     11  C   UNL     1       4.074   4.426  18.139  0.00  0.00    +0.000 C 
ATOM     12  O   UNL     1       3.931   4.726  16.955  0.00  0.00    +0.000 OA
BRANCH   6  14
ATOM     13  N   UNL     1       5.054   1.534  20.894  0.00  0.00    +0.000 NA
ATOM     14  C   UNL     1       4.232   2.300  20.602  0.00  0.00    +0.000 C 
ENDBRANCH   6  14
ENDBRANCH   5  11
ENDBRANCH   1   5
BRANCH   2  15
ATOM     15  C   UNL     1       7.285   6.267  17.195  0.00  0.00    +0.000 C 
BRANCH  15  16
ATOM     16  C   UNL     1       7.913   7.409  18.000  0.00  0.00    +0.000 C 
BRANCH  16  17
ATOM     17  C   UNL     1       7.564   8.791  17.458  0.00  0.00    +0.000 C 
BRANCH  17  18
ATOM     18  C   UNL     1       8.378   9.842  18.172  0.00  0.00    +0.000 A 
ATOM     19  C   UNL     1       8.451  11.149  17.669  0.00  0.00    +0.000 A 
ATOM     20  C   UNL     1       9.229  12.111  18.315  0.00  0.00    +0.000 A 
ATOM     21  C   UNL     1       9.944  11.772  19.461  0.00  0.00    +0.000 A 
ATOM     22  C   UNL     1       9.894  10.471  19.956  0.00  0.00    +0.000 A 
ATOM     23  C   UNL     1       9.119   9.507  19.312  0.00  0.00    +0.000 A 
ENDBRANCH  17  18
ENDBRANCH  16  17
ENDBRANCH  15  16
ENDBRANCH   2  15
TORSDOF 7
ENDMDL
MODEL 6
REMARK VINA RESULT:      -7.2      0.812      1.327
REMARK  Name = 
REMARK  7 active torsions:
REMARK  status: ('A' for Active; 'I' for Inactive)
REMARK    1  A    between atoms: C_2  and  C_3
REMARK    2  A    between atoms: C_8  and  C_10
REMARK    3  A    between atoms: C_10  and  N_11
REMARK    4  A    between atoms: C_12  and  C_14
REMARK    5  A    between atoms: C_14  and  C_15
REMARK    6  A    between atoms: C_15  and  C_16
REMARK    7  A    between atoms: C_16  and  C_17
REMARK                            x       y       z     vdW  Elec       q    Type
REMARK                         _______ _______ _______ _____ _____    ______ ____
ROOT
ATOM      1  N   UNL     1       6.736   4.220  18.533  0.00  0.00    +0.000 N 
ATOM      2  C   UNL     1       7.096   4.634  17.280  0.00  0.00    +0.000 C 
ATOM      3  O   UNL     1       8.169   4.270  16.801  0.00  0.00    +0.000 OA
ATOM      4  H   UNL     1       7.401   3.596  18.981  0.00  0.00    +0.000 HD
ENDROOT
BRANCH   1   5
ATOM      5  C   UNL     1       5.511   4.522  19.236  0.00  0.00    +0.000 C 
BRANCH   5  11
ATOM      6  C   UNL     1       2.746   4.596  18.134  0.00  0.00    +0.000 C 
ATOM      7  C   UNL     1       1.413   4.050  17.618  0.00  0.00    +0.000 C 
ATOM      8  C   UNL     1       0.983   3.089  18.720  0.00  0.00    +0.000 C 
ATOM      9  C   UNL     1       2.297   2.450  19.141  0.00  0.00    +0.000 C 
ATOM     10  N   UNL     1       3.279   3.501  18.968  0.00  0.00    +0.000 N 
ATOM     11  C   UNL     1       4.568   3.344  19.453  0.00  0.00    +0.000 C 
ATOM     12  O   UNL     1       4.927   2.336  20.061  0.00  0.00    +0.000 OA
BRANCH   6  14
ATOM     13  N   UNL     1       2.391   6.834  19.488  0.00  0.00    +0.000 NA
ATOM     14  C   UNL     1       2.556   5.845  18.901  0.00  0.00    +0.000 C 
ENDBRANCH   6  14
ENDBRANCH   5  11
ENDBRANCH   1   5
BRANCH   2  15
ATOM     15  C   UNL     1       6.147   5.530  16.495  0.00  0.00    +0.000 C 
BRANCH  15  16
ATOM     16  C   UNL     1       5.619   4.940  15.184  0.00  0.00    +0.000 C 
BRANCH  16  17
ATOM     17  C   UNL     1       6.694   4.799  14.112  0.00  0.00    +0.000 C 
BRANCH  17  18
ATOM     18  C   UNL     1       6.215   3.866  13.027  0.00  0.00    +0.000 A 
ATOM     19  C   UNL     1       7.127   3.064  12.325  0.00  0.00    +0.000 A 
ATOM     20  C   UNL     1       6.686   2.224  11.301  0.00  0.00    +0.000 A 
ATOM     21  C   UNL     1       5.334   2.187  10.966  0.00  0.00    +0.000 A 
ATOM     22  C   UNL     1       4.424   2.997  11.644  0.00  0.00    +0.000 A 
ATOM     23  C   UNL     1       4.863   3.837  12.666  0.00  0.00    +0.000 A 
ENDBRANCH  17  18
ENDBRANCH  16  17
ENDBRANCH  15  16
ENDBRANCH   2  15
TORSDOF 7
ENDMDL
MODEL 7
REMARK VINA RESULT:      -7.2      2.276      6.436
REMARK  Name = 
REMARK  7 active torsions:
REMARK  status: ('A' for Active; 'I' for Inactive)
REMARK    1  A    between atoms: C_2  and  C_3
REMARK    2  A    between atoms: C_8  and  C_10
REMARK    3  A    between atoms: C_10  and  N_11
REMARK    4  A    between atoms: C_12  and  C_14
REMARK    5  A    between atoms: C_14  and  C_15
REMARK    6  A    between atoms: C_15  and  C_16
REMARK    7  A    between atoms: C_16  and  C_17
REMARK                            x       y       z     vdW  Elec       q    Type
REMARK                         _______ _______ _______ _____ _____    ______ ____
ROOT
ATOM      1  N   UNL     1       2.826   3.407  17.183  0.00  0.00    +0.000 N 
ATOM      2  C   UNL     1       1.652   3.628  17.849  0.00  0.00    +0.000 C 
ATOM      3  O   UNL     1       0.717   4.183  17.273  0.00  0.00    +0.000 OA
ATOM      4  H   UNL     1       2.826   3.708  16.212  0.00  0.00    +0.000 HD
ENDROOT
BRANCH   1   5
ATOM      5  C   UNL     1       4.008   2.749  17.688  0.00  0.00    +0.000 C 
BRANCH   5  11
ATOM      6  C   UNL     1       5.225   5.271  16.677  0.00  0.00    +0.000 C 
ATOM      7  C   UNL     1       5.849   6.666  16.742  0.00  0.00    +0.000 C 
ATOM      8  C   UNL     1       6.970   6.496  17.761  0.00  0.00    +0.000 C 
ATOM      9  C   UNL     1       6.350   5.565  18.790  0.00  0.00    +0.000 C 
ATOM     10  N   UNL     1       5.474   4.708  18.018  0.00  0.00    +0.000 N 
ATOM     11  C   UNL     1       4.893   3.592  18.600  0.00  0.00    +0.000 C 
ATOM     12  O   UNL     1       5.106   3.269  19.767  0.00  0.00    +0.000 OA
BRANCH   6  14
ATOM     13  N   UNL     1       6.333   3.820  14.771  0.00  0.00    +0.000 NA
ATOM     14  C   UNL     1       5.833   4.457  15.604  0.00  0.00    +0.000 C 
ENDBRANCH   6  14
ENDBRANCH   5  11
ENDBRANCH   1   5
BRANCH   2  15
ATOM     15  C   UNL     1       1.523   3.167  19.295  0.00  0.00    +0.000 C 
BRANCH  15  16
ATOM     16  C   UNL     1       1.125   4.252  20.299  0.00  0.00    +0.000 C 
BRANCH  16  17
ATOM     17  C   UNL     1       2.274   5.187  20.661  0.00  0.00    +0.000 C 
BRANCH  17  18
ATOM     18  C   UNL     1       2.047   6.543  20.038  0.00  0.00    +0.000 A 
ATOM     19  C   UNL     1       2.548   6.832  18.761  0.00  0.00    +0.000 A 
ATOM     20  C   UNL     1       2.363   8.097  18.199  0.00  0.00    +0.000 A 
ATOM     21  C   UNL     1       1.684   9.082  18.913  0.00  0.00    +0.000 A 
ATOM     22  C   UNL     1       1.201   8.810  20.192  0.00  0.00    +0.000 A 
ATOM     23  C   UNL     1       1.386   7.548  20.755  0.00  0.00    +0.000 A 
ENDBRANCH  17  18
ENDBRANCH  16  17
ENDBRANCH  15  16
ENDBRANCH   2  15
TORSDOF 7
ENDMDL
MODEL 8
REMARK VINA RESULT:      -7.2      3.818      5.463
REMARK  Name = 
REMARK  7 active torsions:
REMARK  status: ('A' for Active; 'I' for Inactive)
REMARK    1  A    between atoms: C_2  and  C_3
REMARK    2  A    between atoms: C_8  and  C_10
REMARK    3  A    between atoms: C_10  and  N_11
REMARK    4  A    between atoms: C_12  and  C_14
REMARK    5  A    between atoms: C_14  and  C_15
REMARK    6  A    between atoms: C_15  and  C_16
REMARK    7  A    between atoms: C_16  and  C_17
REMARK                            x       y       z     vdW  Elec       q    Type
REMARK                         _______ _______ _______ _____ _____    ______ ____
ROOT
ATOM      1  N   UNL     1       5.888   5.704  17.166  0.00  0.00    +0.000 N 
ATOM      2  C   UNL     1       7.111   6.279  16.959  0.00  0.00    +0.000 C 
ATOM      3  O   UNL     1       7.684   6.128  15.881  0.00  0.00    +0.000 OA
ATOM      4  H   UNL     1       5.519   5.194  16.367  0.00  0.00    +0.000 HD
ENDROOT
BRANCH   1   5
ATOM      5  C   UNL     1       5.064   5.799  18.348  0.00  0.00    +0.000 C 
BRANCH   5  11
ATOM      6  C   UNL     1       2.317   4.889  19.047  0.00  0.00    +0.000 C 
ATOM      7  C   UNL     1       1.203   3.908  19.419  0.00  0.00    +0.000 C 
ATOM      8  C   UNL     1       1.791   3.150  20.604  0.00  0.00    +0.000 C 
ATOM      9  C   UNL     1       3.251   2.994  20.212  0.00  0.00    +0.000 C 
ATOM     10  N   UNL     1       3.553   4.196  19.461  0.00  0.00    +0.000 N 
ATOM     11  C   UNL     1       4.861   4.498  19.117  0.00  0.00    +0.000 C 
ATOM     12  O   UNL     1       5.811   3.789  19.443  0.00  0.00    +0.000 OA
BRANCH   6  14
ATOM     13  N   UNL     1       2.017   7.197  20.292  0.00  0.00    +0.000 NA
ATOM     14  C   UNL     1       2.144   6.187  19.733  0.00  0.00    +0.000 C 
ENDBRANCH   6  14
ENDBRANCH   5  11
ENDBRANCH   1   5
BRANCH   2  15
ATOM     15  C   UNL     1       7.734   7.112  18.071  0.00  0.00    +0.000 C 
BRANCH  15  16
ATOM     16  C   UNL     1       8.005   8.579  17.723  0.00  0.00    +0.000 C 
BRANCH  16  17
ATOM     17  C   UNL     1       8.783   9.321  18.804  0.00  0.00    +0.000 C 
BRANCH  17  18
ATOM     18  C   UNL     1       9.234  10.662  18.281  0.00  0.00    +0.000 A 
ATOM     19  C   UNL     1      10.600  10.962  18.174  0.00  0.00    +0.000 A 
ATOM     20  C   UNL     1      11.014  12.215  17.719  0.00  0.00    +0.000 A 
ATOM     21  C   UNL     1      10.068  13.178  17.377  0.00  0.00    +0.000 A 
ATOM     22  C   UNL     1       8.709  12.897  17.500  0.00  0.00    +0.000 A 
ATOM     23  C   UNL     1       8.292  11.646  17.956  0.00  0.00    +0.000 A 
ENDBRANCH  17  18
ENDBRANCH  16  17
ENDBRANCH  15  16
ENDBRANCH   2  15
TORSDOF 7
ENDMDL
MODEL 9
REMARK VINA RESULT:      -7.2      2.334      6.355
REMARK  Name = 
REMARK  7 active torsions:
REMARK  status: ('A' for Active; 'I' for Inactive)
REMARK    1  A    between atoms: C_2  and  C_3
REMARK    2  A    between atoms: C_8  and  C_10
REMARK    3  A    between atoms: C_10  and  N_11
REMARK    4  A    between atoms: C_12  and  C_14
REMARK    5  A    between atoms: C_14  and  C_15
REMARK    6  A    between atoms: C_15  and  C_16
REMARK    7  A    between atoms: C_16  and  C_17
REMARK                            x       y       z     vdW  Elec       q    Type
REMARK                         _______ _______ _______ _____ _____    ______ ____
ROOT
ATOM      1  N   UNL     1       2.863   3.444  17.201  0.00  0.00    +0.000 N 
ATOM      2  C   UNL     1       1.710   3.806  17.840  0.00  0.00    +0.000 C 
ATOM      3  O   UNL     1       0.838   4.421  17.228  0.00  0.00    +0.000 OA
ATOM      4  H   UNL     1       2.901   3.700  16.218  0.00  0.00    +0.000 HD
ENDROOT
BRANCH   1   5
ATOM      5  C   UNL     1       3.973   2.699  17.750  0.00  0.00    +0.000 C 
BRANCH   5  11
ATOM      6  C   UNL     1       5.285   5.202  16.812  0.00  0.00    +0.000 C 
ATOM      7  C   UNL     1       5.963   6.569  16.917  0.00  0.00    +0.000 C 
ATOM      8  C   UNL     1       7.079   6.324  17.927  0.00  0.00    +0.000 C 
ATOM      9  C   UNL     1       6.425   5.387  18.930  0.00  0.00    +0.000 C 
ATOM     10  N   UNL     1       5.514   4.589  18.135  0.00  0.00    +0.000 N 
ATOM     11  C   UNL     1       4.891   3.479  18.684  0.00  0.00    +0.000 C 
ATOM     12  O   UNL     1       5.094   3.112  19.841  0.00  0.00    +0.000 OA
BRANCH   6  14
ATOM     13  N   UNL     1       6.328   3.760  14.863  0.00  0.00    +0.000 NA
ATOM     14  C   UNL     1       5.859   4.398  15.713  0.00  0.00    +0.000 C 
ENDBRANCH   6  14
ENDBRANCH   5  11
ENDBRANCH   1   5
BRANCH   2  15
ATOM     15  C   UNL     1       1.524   3.425  19.303  0.00  0.00    +0.000 C 
BRANCH  15  16
ATOM     16  C   UNL     1       1.398   4.599  20.278  0.00  0.00    +0.000 C 
BRANCH  16  17
ATOM     17  C   UNL     1       2.622   5.509  20.286  0.00  0.00    +0.000 C 
BRANCH  17  18
ATOM     18  C   UNL     1       2.256   6.864  19.730  0.00  0.00    +0.000 A 
ATOM     19  C   UNL     1       1.534   7.781  20.508  0.00  0.00    +0.000 A 
ATOM     20  C   UNL     1       1.170   9.021  19.981  0.00  0.00    +0.000 A 
ATOM     21  C   UNL     1       1.517   9.349  18.673  0.00  0.00    +0.000 A 
ATOM     22  C   UNL     1       2.217   8.436  17.886  0.00  0.00    +0.000 A 
ATOM     23  C   UNL     1       2.580   7.196  18.409  0.00  0.00    +0.000 A 
ENDBRANCH  17  18
ENDBRANCH  16  17
ENDBRANCH  15  16
ENDBRANCH   2  15
TORSDOF 7
ENDMDL
