MODEL 1
REMARK VINA RESULT:      -7.3      0.000      0.000
REMARK  Name = 
REMARK  17 active torsions:
REMARK  status: ('A' for Active; 'I' for Inactive)
REMARK    1  A    between atoms: C_1  and  C_2
REMARK    2  A    between atoms: C_2  and  O_3
REMARK    3  A    between atoms: O_3  and  C_4
REMARK    4  A    between atoms: C_4  and  C_6
REMARK    5  A    between atoms: C_8  and  C_9
REMARK    6  A    between atoms: C_9  and  O_10
REMARK    7  A    between atoms: O_10  and  C_11
REMARK    8  A    between atoms: C_11  and  C_13
REMARK    9  A    between atoms: C_13  and  C_14
REMARK   10  A    between atoms: C_14  and  C_15
REMARK   11  A    between atoms: C_15  and  O_16
REMARK   12  A    between atoms: O_16  and  C_17
REMARK   13  A    between atoms: C_23  and  C_24
REMARK   14  A    between atoms: C_24  and  O_26
REMARK   15  A    between atoms: O_26  and  C_27
REMARK   16  A    between atoms: C_27  and  C_28
REMARK   17  A    between atoms: C_29  and  C_30
REMARK                            x       y       z     vdW  Elec       q    Type
REMARK                         _______ _______ _______ _____ _____    ______ ____
ROOT
ATOM      1  C   UNL     1       4.422   3.389  18.567  0.00  0.00    +0.000 A 
ATOM      2  N   UNL     1       5.689   3.831  18.847  0.00  0.00    +0.000 N 
ATOM      3  C   UNL     1       6.181   4.611  17.826  0.00  0.00    +0.000 A 
ATOM      4  C   UNL     1       5.187   4.710  16.849  0.00  0.00    +0.000 A 
ATOM      5  C   UNL     1       4.074   3.918  17.330  0.00  0.00    +0.000 A 
ATOM      6  C   UNL     1       2.751   3.679  16.673  0.00  0.00    +0.000 C 
ATOM      7  H   UNL     1       6.181   3.634  19.717  0.00  0.00    +0.000 HD
ENDROOT
BRANCH   1   8
ATOM      8  C   UNL     1       3.609   2.587  19.450  0.00  0.00    +0.000 C 
ATOM      9  O   UNL     1       3.216   1.452  19.217  0.00  0.00    +0.000 OA
BRANCH   8  10
ATOM     10  O   UNL     1       3.244   3.329  20.532  0.00  0.00    +0.000 OA
BRANCH  10  12
ATOM     11  C   UNL     1       1.494   4.923  20.778  0.00  0.00    +0.000 C 
ATOM     12  C   UNL     1       2.878   4.675  20.207  0.00  0.00    +0.000 C 
ENDBRANCH  10  12
ENDBRANCH   8  10
ENDBRANCH   1   8
BRANCH   4  13
ATOM     13  C   UNL     1       5.198   5.425  15.563  0.00  0.00    +0.000 C 
ATOM     14  O   UNL     1       5.179   6.642  15.485  0.00  0.00    +0.000 OA
BRANCH  13  15
ATOM     15  O   UNL     1       5.137   4.616  14.460  0.00  0.00    +0.000 OA
BRANCH  15  16
ATOM     16  C   UNL     1       6.373   3.932  14.187  0.00  0.00    +0.000 C 
ATOM     17  C   UNL     1       6.386   3.586  12.710  0.00  0.00    +0.000 C 
ENDBRANCH  15  16
ENDBRANCH  13  15
ENDBRANCH   4  13
BRANCH   3  18
ATOM     18  C   UNL     1       7.567   5.150  17.960  0.00  0.00    +0.000 C 
BRANCH  18  19
ATOM     19  O   UNL     1       7.500   6.407  18.650  0.00  0.00    +0.000 OA
BRANCH  19  20
ATOM     20  C   UNL     1       7.916   7.511  17.963  0.00  0.00    +0.000 C 
ATOM     21  O   UNL     1       7.678   7.740  16.787  0.00  0.00    +0.000 OA
BRANCH  20  22
ATOM     22  C   UNL     1       8.674   8.420  18.910  0.00  0.00    +0.000 C 
BRANCH  22  23
ATOM     23  C   UNL     1       8.731   9.896  18.523  0.00  0.00    +0.000 C 
BRANCH  23  24
ATOM     24  C   UNL     1       9.482  10.796  19.506  0.00  0.00    +0.000 C 
BRANCH  24  25
ATOM     25  O   UNL     1      10.726  11.145  18.887  0.00  0.00    +0.000 OA
BRANCH  25  26
ATOM     26  C   UNL     1      10.818  12.404  18.361  0.00  0.00    +0.000 A 
ATOM     27  C   UNL     1      10.240  13.415  19.134  0.00  0.00    +0.000 A 
ATOM     28  C   UNL     1      10.277  14.745  18.712  0.00  0.00    +0.000 A 
ATOM     29  C   UNL     1      10.913  15.075  17.517  0.00  0.00    +0.000 A 
ATOM     30  C   UNL     1      11.517  14.075  16.755  0.00  0.00    +0.000 A 
ATOM     31  C   UNL     1      11.471  12.741  17.174  0.00  0.00    +0.000 A 
ENDBRANCH  25  26
ENDBRANCH  24  25
ENDBRANCH  23  24
ENDBRANCH  22  23
ENDBRANCH  20  22
ENDBRANCH  19  20
ENDBRANCH  18  19
ENDBRANCH   3  18
TORSDOF 14
ENDMDL
MODEL 2
REMARK VINA RESULT:      -7.2      2.280      4.253
REMARK  Name = 
REMARK  17 active torsions:
REMARK  status: ('A' for Active; 'I' for Inactive)
REMARK    1  A    between atoms: C_1  and  C_2
REMARK    2  A    between atoms: C_2  and  O_3
REMARK    3  A    between atoms: O_3  and  C_4
REMARK    4  A    between atoms: C_4  and  C_6
REMARK    5  A    between atoms: C_8  and  C_9
REMARK    6  A    between atoms: C_9  and  O_10
REMARK    7  A    between atoms: O_10  and  C_11
REMARK    8  A    between atoms: C_11  and  C_13
REMARK    9  A    between atoms: C_13  and  C_14
REMARK   10  A    between atoms: C_14  and  C_15
REMARK   11  A    between atoms: C_15  and  O_16
REMARK   12  A    between atoms: O_16  and  C_17
REMARK   13  A    between atoms: C_23  and  C_24
REMARK   14  A    between atoms: C_24  and  O_26
REMARK   15  A    between atoms: O_26  and  C_27
REMARK   16  A    between atoms: C_27  and  C_28
REMARK   17  A    between atoms: C_29  and  C_30
REMARK                            x       y       z     vdW  Elec       q    Type
REMARK                         _______ _______ _______ _____ _____    ______ ____
ROOT
ATOM      1  C   UNL     1       2.781   6.560  19.165  0.00  0.00    +0.000 A 
ATOM      2  N   UNL     1       3.839   6.355  18.318  0.00  0.00    +0.000 N 
ATOM      3  C   UNL     1       4.261   5.047  18.358  0.00  0.00    +0.000 A 
ATOM      4  C   UNL     1       3.430   4.357  19.244  0.00  0.00    +0.000 A 
ATOM      5  C   UNL     1       2.496   5.337  19.760  0.00  0.00    +0.000 A 
ATOM      6  C   UNL     1       1.389   5.136  20.745  0.00  0.00    +0.000 C 
ATOM      7  H   UNL     1       4.231   7.074  17.713  0.00  0.00    +0.000 HD
ENDROOT
BRANCH   1   8
ATOM      8  C   UNL     1       2.078   7.810  19.326  0.00  0.00    +0.000 C 
ATOM      9  O   UNL     1       1.694   8.532  18.416  0.00  0.00    +0.000 OA
BRANCH   8  10
ATOM     10  O   UNL     1       2.011   8.127  20.650  0.00  0.00    +0.000 OA
BRANCH  10  12
ATOM     11  C   UNL     1      -0.176   8.532  21.497  0.00  0.00    +0.000 C 
ATOM     12  C   UNL     1       1.081   9.177  20.942  0.00  0.00    +0.000 C 
ENDBRANCH  10  12
ENDBRANCH   8  10
ENDBRANCH   1   8
BRANCH   4  13
ATOM     13  C   UNL     1       3.449   2.941  19.645  0.00  0.00    +0.000 C 
ATOM     14  O   UNL     1       3.622   2.585  20.799  0.00  0.00    +0.000 OA
BRANCH  13  15
ATOM     15  O   UNL     1       3.352   2.054  18.608  0.00  0.00    +0.000 OA
BRANCH  15  16
ATOM     16  C   UNL     1       2.166   2.235  17.814  0.00  0.00    +0.000 C 
ATOM     17  C   UNL     1       0.972   2.110  18.741  0.00  0.00    +0.000 C 
ENDBRANCH  15  16
ENDBRANCH  13  15
ENDBRANCH   4  13
BRANCH   3  18
ATOM     18  C   UNL     1       5.430   4.660  17.512  0.00  0.00    +0.000 C 
BRANCH  18  19
ATOM     19  O   UNL     1       6.548   4.402  18.375  0.00  0.00    +0.000 OA
BRANCH  19  20
ATOM     20  C   UNL     1       7.257   5.486  18.808  0.00  0.00    +0.000 C 
ATOM     21  O   UNL     1       7.604   5.686  19.962  0.00  0.00    +0.000 OA
BRANCH  20  22
ATOM     22  C   UNL     1       7.580   6.367  17.618  0.00  0.00    +0.000 C 
BRANCH  22  23
ATOM     23  C   UNL     1       7.326   7.861  17.799  0.00  0.00    +0.000 C 
BRANCH  23  24
ATOM     24  C   UNL     1       8.582   8.734  17.834  0.00  0.00    +0.000 C 
BRANCH  24  25
ATOM     25  O   UNL     1       8.386   9.707  18.868  0.00  0.00    +0.000 OA
BRANCH  25  26
ATOM     26  C   UNL     1       9.418  10.576  19.096  0.00  0.00    +0.000 A 
ATOM     27  C   UNL     1      10.125  10.971  17.958  0.00  0.00    +0.000 A 
ATOM     28  C   UNL     1      11.194  11.864  18.057  0.00  0.00    +0.000 A 
ATOM     29  C   UNL     1      11.550  12.384  19.299  0.00  0.00    +0.000 A 
ATOM     30  C   UNL     1      10.830  12.015  20.435  0.00  0.00    +0.000 A 
ATOM     31  C   UNL     1       9.765  11.113  20.337  0.00  0.00    +0.000 A 
ENDBRANCH  25  26
ENDBRANCH  24  25
ENDBRANCH  23  24
ENDBRANCH  22  23
ENDBRANCH  20  22
ENDBRANCH  19  20
ENDBRANCH  18  19
ENDBRANCH   3  18
TORSDOF 14
ENDMDL
MODEL 3
REMARK VINA RESULT:      -7.2      5.271      8.192
REMARK  Name = 
REMARK  17 active torsions:
REMARK  status: ('A' for Active; 'I' for Inactive)
REMARK    1  A    between atoms: C_1  and  C_2
REMARK    2  A    between atoms: C_2  and  O_3
REMARK    3  A    between atoms: O_3  and  C_4
REMARK    4  A    between atoms: C_4  and  C_6
REMARK    5  A    between atoms: C_8  and  C_9
REMARK    6  A    between atoms: C_9  and  O_10
REMARK    7  A    between atoms: O_10  and  C_11
REMARK    8  A    between atoms: C_11  and  C_13
REMARK    9  A    between atoms: C_13  and  C_14
REMARK   10  A    between atoms: C_14  and  C_15
REMARK   11  A    between atoms: C_15  and  O_16
REMARK   12  A    between atoms: O_16  and  C_17
REMARK   13  A    between atoms: C_23  and  C_24
REMARK   14  A    between atoms: C_24  and  O_26
REMARK   15  A    between atoms: O_26  and  C_27
REMARK   16  A    between atoms: C_27  and  C_28
REMARK   17  A    between atoms: C_29  and  C_30
REMARK                            x       y       z     vdW  Elec       q    Type
REMARK                         _______ _______ _______ _____ _____    ______ ____
ROOT
ATOM      1  C   UNL     1       2.621   4.393  18.230  0.00  0.00    +0.000 A 
ATOM      2  N   UNL     1       2.066   5.604  18.548  0.00  0.00    +0.000 N 
ATOM      3  C   UNL     1       2.823   6.642  18.057  0.00  0.00    +0.000 A 
ATOM      4  C   UNL     1       3.904   6.091  17.364  0.00  0.00    +0.000 A 
ATOM      5  C   UNL     1       3.768   4.654  17.490  0.00  0.00    +0.000 A 
ATOM      6  C   UNL     1       4.656   3.585  16.937  0.00  0.00    +0.000 C 
ATOM      7  H   UNL     1       1.186   5.713  19.050  0.00  0.00    +0.000 HD
ENDROOT
BRANCH   1   8
ATOM      8  C   UNL     1       2.052   3.107  18.558  0.00  0.00    +0.000 C 
ATOM      9  O   UNL     1       0.990   2.670  18.133  0.00  0.00    +0.000 OA
BRANCH   8  10
ATOM     10  O   UNL     1       2.816   2.501  19.510  0.00  0.00    +0.000 OA
BRANCH  10  12
ATOM     11  C   UNL     1       1.599   2.677  21.547  0.00  0.00    +0.000 C 
ATOM     12  C   UNL     1       2.804   3.178  20.772  0.00  0.00    +0.000 C 
ENDBRANCH  10  12
ENDBRANCH   8  10
ENDBRANCH   1   8
BRANCH   4  13
ATOM     13  C   UNL     1       5.005   6.758  16.652  0.00  0.00    +0.000 C 
ATOM     14  O   UNL     1       5.062   6.819  15.434  0.00  0.00    +0.000 OA
BRANCH  13  15
ATOM     15  O   UNL     1       6.008   7.222  17.459  0.00  0.00    +0.000 OA
BRANCH  15  16
ATOM     16  C   UNL     1       7.251   6.519  17.282  0.00  0.00    +0.000 C 
ATOM     17  C   UNL     1       7.598   5.866  18.607  0.00  0.00    +0.000 C 
ENDBRANCH  15  16
ENDBRANCH  13  15
ENDBRANCH   4  13
BRANCH   3  18
ATOM     18  C   UNL     1       2.372   8.036  18.343  0.00  0.00    +0.000 C 
BRANCH  18  19
ATOM     19  O   UNL     1       1.981   8.113  19.723  0.00  0.00    +0.000 OA
BRANCH  19  20
ATOM     20  C   UNL     1       1.119   9.115  20.065  0.00  0.00    +0.000 C 
ATOM     21  O   UNL     1       0.433   9.753  19.281  0.00  0.00    +0.000 OA
BRANCH  20  22
ATOM     22  C   UNL     1       1.119   9.267  21.574  0.00  0.00    +0.000 C 
BRANCH  22  23
ATOM     23  C   UNL     1      -0.201   8.969  22.279  0.00  0.00    +0.000 C 
BRANCH  23  24
ATOM     24  C   UNL     1      -0.758  10.114  23.126  0.00  0.00    +0.000 C 
BRANCH  24  25
ATOM     25  O   UNL     1      -0.632  11.310  22.347  0.00  0.00    +0.000 OA
BRANCH  25  26
ATOM     26  C   UNL     1      -1.784  12.003  22.094  0.00  0.00    +0.000 A 
ATOM     27  C   UNL     1      -2.666  12.102  23.173  0.00  0.00    +0.000 A 
ATOM     28  C   UNL     1      -3.872  12.794  23.046  0.00  0.00    +0.000 A 
ATOM     29  C   UNL     1      -4.195  13.408  21.839  0.00  0.00    +0.000 A 
ATOM     30  C   UNL     1      -3.306  13.336  20.766  0.00  0.00    +0.000 A 
ATOM     31  C   UNL     1      -2.102  12.635  20.891  0.00  0.00    +0.000 A 
ENDBRANCH  25  26
ENDBRANCH  24  25
ENDBRANCH  23  24
ENDBRANCH  22  23
ENDBRANCH  20  22
ENDBRANCH  19  20
ENDBRANCH  18  19
ENDBRANCH   3  18
TORSDOF 14
ENDMDL
MODEL 4
REMARK VINA RESULT:      -7.1      4.680      8.568
REMARK  Name = 
REMARK  17 active torsions:
REMARK  status: ('A' for Active; 'I' for Inactive)
REMARK    1  A    between atoms: C_1  and  C_2
REMARK    2  A    between atoms: C_2  and  O_3
REMARK    3  A    between atoms: O_3  and  C_4
REMARK    4  A    between atoms: C_4  and  C_6
REMARK    5  A    between atoms: C_8  and  C_9
REMARK    6  A    between atoms: C_9  and  O_10
REMARK    7  A    between atoms: O_10  and  C_11
REMARK    8  A    between atoms: C_11  and  C_13
REMARK    9  A    between atoms: C_13  and  C_14
REMARK   10  A    between atoms: C_14  and  C_15
REMARK   11  A    between atoms: C_15  and  O_16
REMARK   12  A    between atoms: O_16  and  C_17
REMARK   13  A    between atoms: C_23  and  C_24
REMARK   14  A    between atoms: C_24  and  O_26
REMARK   15  A    between atoms: O_26  and  C_27
REMARK   16  A    between atoms: C_27  and  C_28
REMARK   17  A    between atoms: C_29  and  C_30
REMARK                            x       y       z     vdW  Elec       q    Type
REMARK                         _______ _______ _______ _____ _____    ______ ____
ROOT
ATOM      1  C   UNL     1       4.236   6.043  17.307  0.00  0.00    +0.000 A 
ATOM      2  N   UNL     1       3.462   6.629  18.274  0.00  0.00    +0.000 N 
ATOM      3  C   UNL     1       2.615   5.714  18.854  0.00  0.00    +0.000 A 
ATOM      4  C   UNL     1       2.862   4.471  18.265  0.00  0.00    +0.000 A 
ATOM      5  C   UNL     1       3.892   4.697  17.273  0.00  0.00    +0.000 A 
ATOM      6  C   UNL     1       4.529   3.705  16.352  0.00  0.00    +0.000 C 
ATOM      7  H   UNL     1       3.537   7.607  18.548  0.00  0.00    +0.000 HD
ENDROOT
BRANCH   1   8
ATOM      8  C   UNL     1       5.256   6.718  16.540  0.00  0.00    +0.000 C 
ATOM      9  O   UNL     1       5.317   6.758  15.318  0.00  0.00    +0.000 OA
BRANCH   8  10
ATOM     10  O   UNL     1       6.211   7.203  17.381  0.00  0.00    +0.000 OA
BRANCH  10  12
ATOM     11  C   UNL     1       7.660   5.931  18.777  0.00  0.00    +0.000 C 
ATOM     12  C   UNL     1       7.427   6.445  17.368  0.00  0.00    +0.000 C 
ENDBRANCH  10  12
ENDBRANCH   8  10
ENDBRANCH   1   8
BRANCH   4  13
ATOM     13  C   UNL     1       2.234   3.165  18.523  0.00  0.00    +0.000 C 
ATOM     14  O   UNL     1       1.123   2.875  18.110  0.00  0.00    +0.000 OA
BRANCH  13  15
ATOM     15  O   UNL     1       2.954   2.338  19.341  0.00  0.00    +0.000 OA
BRANCH  15  16
ATOM     16  C   UNL     1       3.141   2.869  20.665  0.00  0.00    +0.000 C 
ATOM     17  C   UNL     1       1.838   2.679  21.420  0.00  0.00    +0.000 C 
ENDBRANCH  15  16
ENDBRANCH  13  15
ENDBRANCH   4  13
BRANCH   3  18
ATOM     18  C   UNL     1       1.677   6.197  19.911  0.00  0.00    +0.000 C 
BRANCH  18  19
ATOM     19  O   UNL     1       2.191   7.426  20.446  0.00  0.00    +0.000 OA
BRANCH  19  20
ATOM     20  C   UNL     1       1.585   8.579  20.035  0.00  0.00    +0.000 C 
ATOM     21  O   UNL     1       1.530   8.973  18.880  0.00  0.00    +0.000 OA
BRANCH  20  22
ATOM     22  C   UNL     1       0.956   9.257  21.236  0.00  0.00    +0.000 C 
BRANCH  22  23
ATOM     23  C   UNL     1      -0.497   9.696  21.074  0.00  0.00    +0.000 C 
BRANCH  23  24
ATOM     24  C   UNL     1      -0.706  11.203  20.915  0.00  0.00    +0.000 C 
BRANCH  24  25
ATOM     25  O   UNL     1      -0.562  11.499  19.520  0.00  0.00    +0.000 OA
BRANCH  25  26
ATOM     26  C   UNL     1      -1.594  11.124  18.703  0.00  0.00    +0.000 A 
ATOM     27  C   UNL     1      -2.784  11.833  18.886  0.00  0.00    +0.000 A 
ATOM     28  C   UNL     1      -3.907  11.552  18.106  0.00  0.00    +0.000 A 
ATOM     29  C   UNL     1      -3.839  10.570  17.122  0.00  0.00    +0.000 A 
ATOM     30  C   UNL     1      -2.646   9.878  16.915  0.00  0.00    +0.000 A 
ATOM     31  C   UNL     1      -1.523  10.153  17.703  0.00  0.00    +0.000 A 
ENDBRANCH  25  26
ENDBRANCH  24  25
ENDBRANCH  23  24
ENDBRANCH  22  23
ENDBRANCH  20  22
ENDBRANCH  19  20
ENDBRANCH  18  19
ENDBRANCH   3  18
TORSDOF 14
ENDMDL
MODEL 5
REMARK VINA RESULT:      -7.1      2.518      4.279
REMARK  Name = 
REMARK  17 active torsions:
REMARK  status: ('A' for Active; 'I' for Inactive)
REMARK    1  A    between atoms: C_1  and  C_2
REMARK    2  A    between atoms: C_2  and  O_3
REMARK    3  A    between atoms: O_3  and  C_4
REMARK    4  A    between atoms: C_4  and  C_6
REMARK    5  A    between atoms: C_8  and  C_9
REMARK    6  A    between atoms: C_9  and  O_10
REMARK    7  A    between atoms: O_10  and  C_11
REMARK    8  A    between atoms: C_11  and  C_13
REMARK    9  A    between atoms: C_13  and  C_14
REMARK   10  A    between atoms: C_14  and  C_15
REMARK   11  A    between atoms: C_15  and  O_16
REMARK   12  A    between atoms: O_16  and  C_17
REMARK   13  A    between atoms: C_23  and  C_24
REMARK   14  A    between atoms: C_24  and  O_26
REMARK   15  A    between atoms: O_26  and  C_27
REMARK   16  A    between atoms: C_27  and  C_28
REMARK   17  A    between atoms: C_29  and  C_30
REMARK                            x       y       z     vdW  Elec       q    Type
REMARK                         _______ _______ _______ _____ _____    ______ ____
ROOT
ATOM      1  C   UNL     1       2.956   7.043  18.256  0.00  0.00    +0.000 A 
ATOM      2  N   UNL     1       3.904   6.845  17.287  0.00  0.00    +0.000 N 
ATOM      3  C   UNL     1       4.444   5.582  17.371  0.00  0.00    +0.000 A 
ATOM      4  C   UNL     1       3.805   4.914  18.419  0.00  0.00    +0.000 A 
ATOM      5  C   UNL     1       2.864   5.862  18.981  0.00  0.00    +0.000 A 
ATOM      6  C   UNL     1       1.921   5.666  20.126  0.00  0.00    +0.000 C 
ATOM      7  H   UNL     1       4.145   7.534  16.576  0.00  0.00    +0.000 HD
ENDROOT
BRANCH   1   8
ATOM      8  C   UNL     1       2.170   8.244  18.414  0.00  0.00    +0.000 C 
ATOM      9  O   UNL     1       1.882   9.028  17.519  0.00  0.00    +0.000 OA
BRANCH   8  10
ATOM     10  O   UNL     1       1.899   8.440  19.734  0.00  0.00    +0.000 OA
BRANCH  10  12
ATOM     11  C   UNL     1       1.016  10.389  20.776  0.00  0.00    +0.000 C 
ATOM     12  C   UNL     1       0.677   9.149  19.970  0.00  0.00    +0.000 C 
ENDBRANCH  10  12
ENDBRANCH   8  10
ENDBRANCH   1   8
BRANCH   4  13
ATOM     13  C   UNL     1       4.005   3.548  18.926  0.00  0.00    +0.000 C 
ATOM     14  O   UNL     1       4.891   3.259  19.714  0.00  0.00    +0.000 OA
BRANCH  13  15
ATOM     15  O   UNL     1       3.179   2.608  18.372  0.00  0.00    +0.000 OA
BRANCH  15  16
ATOM     16  C   UNL     1       2.216   2.078  19.300  0.00  0.00    +0.000 C 
ATOM     17  C   UNL     1       0.835   2.403  18.760  0.00  0.00    +0.000 C 
ENDBRANCH  15  16
ENDBRANCH  13  15
ENDBRANCH   4  13
BRANCH   3  18
ATOM     18  C   UNL     1       5.519   5.213  16.403  0.00  0.00    +0.000 C 
BRANCH  18  19
ATOM     19  O   UNL     1       6.606   4.624  17.135  0.00  0.00    +0.000 OA
BRANCH  19  20
ATOM     20  C   UNL     1       7.375   5.469  17.883  0.00  0.00    +0.000 C 
ATOM     21  O   UNL     1       7.841   5.210  18.982  0.00  0.00    +0.000 OA
BRANCH  20  22
ATOM     22  C   UNL     1       7.593   6.751  17.104  0.00  0.00    +0.000 C 
BRANCH  22  23
ATOM     23  C   UNL     1       7.255   8.047  17.836  0.00  0.00    +0.000 C 
BRANCH  23  24
ATOM     24  C   UNL     1       8.324   9.138  17.753  0.00  0.00    +0.000 C 
BRANCH  24  25
ATOM     25  O   UNL     1       8.834   9.325  19.079  0.00  0.00    +0.000 OA
BRANCH  25  26
ATOM     26  C   UNL     1       9.478  10.505  19.328  0.00  0.00    +0.000 A 
ATOM     27  C   UNL     1       9.952  11.174  18.197  0.00  0.00    +0.000 A 
ATOM     28  C   UNL     1      10.618  12.395  18.317  0.00  0.00    +0.000 A 
ATOM     29  C   UNL     1      10.798  12.966  19.575  0.00  0.00    +0.000 A 
ATOM     30  C   UNL     1      10.302  12.317  20.706  0.00  0.00    +0.000 A 
ATOM     31  C   UNL     1       9.643  11.089  20.586  0.00  0.00    +0.000 A 
ENDBRANCH  25  26
ENDBRANCH  24  25
ENDBRANCH  23  24
ENDBRANCH  22  23
ENDBRANCH  20  22
ENDBRANCH  19  20
ENDBRANCH  18  19
ENDBRANCH   3  18
TORSDOF 14
ENDMDL
MODEL 6
REMARK VINA RESULT:      -7.1      5.154      8.085
REMARK  Name = 
REMARK  17 active torsions:
REMARK  status: ('A' for Active; 'I' for Inactive)
REMARK    1  A    between atoms: C_1  and  C_2
REMARK    2  A    between atoms: C_2  and  O_3
REMARK    3  A    between atoms: O_3  and  C_4
REMARK    4  A    between atoms: C_4  and  C_6
REMARK    5  A    between atoms: C_8  and  C_9
REMARK    6  A    between atoms: C_9  and  O_10
REMARK    7  A    between atoms: O_10  and  C_11
REMARK    8  A    between atoms: C_11  and  C_13
REMARK    9  A    between atoms: C_13  and  C_14
REMARK   10  A    between atoms: C_14  and  C_15
REMARK   11  A    between atoms: C_15  and  O_16
REMARK   12  A    between atoms: O_16  and  C_17
REMARK   13  A    between atoms: C_23  and  C_24
REMARK   14  A    between atoms: C_24  and  O_26
REMARK   15  A    between atoms: O_26  and  C_27
REMARK   16  A    between atoms: C_27  and  C_28
REMARK   17  A    between atoms: C_29  and  C_30
REMARK                            x       y       z     vdW  Elec       q    Type
REMARK                         _______ _______ _______ _____ _____    ______ ____
ROOT
ATOM      1  C   UNL     1       2.170   4.823  18.419  0.00  0.00    +0.000 A 
ATOM      2  N   UNL     1       1.753   6.127  18.400  0.00  0.00    +0.000 N 
ATOM      3  C   UNL     1       2.731   6.955  17.901  0.00  0.00    +0.000 A 
ATOM      4  C   UNL     1       3.826   6.160  17.551  0.00  0.00    +0.000 A 
ATOM      5  C   UNL     1       3.457   4.802  17.896  0.00  0.00    +0.000 A 
ATOM      6  C   UNL     1       4.262   3.551  17.732  0.00  0.00    +0.000 C 
ATOM      7  H   UNL     1       0.823   6.432  18.684  0.00  0.00    +0.000 HD
ENDROOT
BRANCH   1   8
ATOM      8  C   UNL     1       1.366   3.701  18.843  0.00  0.00    +0.000 C 
ATOM      9  O   UNL     1       1.034   2.758  18.137  0.00  0.00    +0.000 OA
BRANCH   8  10
ATOM     10  O   UNL     1       0.931   3.908  20.117  0.00  0.00    +0.000 OA
BRANCH  10  12
ATOM     11  C   UNL     1       2.571   2.819  21.454  0.00  0.00    +0.000 C 
ATOM     12  C   UNL     1       1.129   2.784  20.982  0.00  0.00    +0.000 C 
ENDBRANCH  10  12
ENDBRANCH   8  10
ENDBRANCH   1   8
BRANCH   4  13
ATOM     13  C   UNL     1       5.124   6.543  16.975  0.00  0.00    +0.000 C 
ATOM     14  O   UNL     1       5.277   6.767  15.786  0.00  0.00    +0.000 OA
BRANCH  13  15
ATOM     15  O   UNL     1       6.166   6.537  17.862  0.00  0.00    +0.000 OA
BRANCH  15  16
ATOM     16  C   UNL     1       7.435   6.831  17.251  0.00  0.00    +0.000 C 
ATOM     17  C   UNL     1       7.847   8.220  17.703  0.00  0.00    +0.000 C 
ENDBRANCH  15  16
ENDBRANCH  13  15
ENDBRANCH   4  13
BRANCH   3  18
ATOM     18  C   UNL     1       2.448   8.420  17.841  0.00  0.00    +0.000 C 
BRANCH  18  19
ATOM     19  O   UNL     1       2.246   8.899  19.179  0.00  0.00    +0.000 OA
BRANCH  19  20
ATOM     20  C   UNL     1       1.029   9.450  19.460  0.00  0.00    +0.000 C 
ATOM     21  O   UNL     1       0.459  10.286  18.775  0.00  0.00    +0.000 OA
BRANCH  20  22
ATOM     22  C   UNL     1       0.487   8.819  20.728  0.00  0.00    +0.000 C 
BRANCH  22  23
ATOM     23  C   UNL     1       0.818   9.540  22.032  0.00  0.00    +0.000 C 
BRANCH  23  24
ATOM     24  C   UNL     1      -0.332   9.628  23.036  0.00  0.00    +0.000 C 
BRANCH  24  25
ATOM     25  O   UNL     1      -0.516  11.017  23.339  0.00  0.00    +0.000 OA
BRANCH  25  26
ATOM     26  C   UNL     1      -1.487  11.675  22.635  0.00  0.00    +0.000 A 
ATOM     27  C   UNL     1      -2.632  12.002  23.366  0.00  0.00    +0.000 A 
ATOM     28  C   UNL     1      -3.691  12.685  22.764  0.00  0.00    +0.000 A 
ATOM     29  C   UNL     1      -3.600  13.063  21.426  0.00  0.00    +0.000 A 
ATOM     30  C   UNL     1      -2.448  12.764  20.699  0.00  0.00    +0.000 A 
ATOM     31  C   UNL     1      -1.391  12.071  21.300  0.00  0.00    +0.000 A 
ENDBRANCH  25  26
ENDBRANCH  24  25
ENDBRANCH  23  24
ENDBRANCH  22  23
ENDBRANCH  20  22
ENDBRANCH  19  20
ENDBRANCH  18  19
ENDBRANCH   3  18
TORSDOF 14
ENDMDL
MODEL 7
REMARK VINA RESULT:      -7.0      4.182      6.958
REMARK  Name = 
REMARK  17 active torsions:
REMARK  status: ('A' for Active; 'I' for Inactive)
REMARK    1  A    between atoms: C_1  and  C_2
REMARK    2  A    between atoms: C_2  and  O_3
REMARK    3  A    between atoms: O_3  and  C_4
REMARK    4  A    between atoms: C_4  and  C_6
REMARK    5  A    between atoms: C_8  and  C_9
REMARK    6  A    between atoms: C_9  and  O_10
REMARK    7  A    between atoms: O_10  and  C_11
REMARK    8  A    between atoms: C_11  and  C_13
REMARK    9  A    between atoms: C_13  and  C_14
REMARK   10  A    between atoms: C_14  and  C_15
REMARK   11  A    between atoms: C_15  and  O_16
REMARK   12  A    between atoms: O_16  and  C_17
REMARK   13  A    between atoms: C_23  and  C_24
REMARK   14  A    between atoms: C_24  and  O_26
REMARK   15  A    between atoms: O_26  and  C_27
REMARK   16  A    between atoms: C_27  and  C_28
REMARK   17  A    between atoms: C_29  and  C_30
REMARK                            x       y       z     vdW  Elec       q    Type
REMARK                         _______ _______ _______ _____ _____    ______ ____
ROOT
ATOM      1  C   UNL     1       2.765   6.396  19.544  0.00  0.00    +0.000 A 
ATOM      2  N   UNL     1       4.030   6.033  19.163  0.00  0.00    +0.000 N 
ATOM      3  C   UNL     1       4.287   4.719  19.478  0.00  0.00    +0.000 A 
ATOM      4  C   UNL     1       3.135   4.188  20.065  0.00  0.00    +0.000 A 
ATOM      5  C   UNL     1       2.175   5.272  20.109  0.00  0.00    +0.000 A 
ATOM      6  C   UNL     1       0.776   5.252  20.640  0.00  0.00    +0.000 C 
ATOM      7  H   UNL     1       4.677   6.651  18.674  0.00  0.00    +0.000 HD
ENDROOT
BRANCH   1   8
ATOM      8  C   UNL     1       2.170   7.692  19.318  0.00  0.00    +0.000 C 
ATOM      9  O   UNL     1       2.060   8.243  18.231  0.00  0.00    +0.000 OA
BRANCH   8  10
ATOM     10  O   UNL     1       1.857   8.264  20.514  0.00  0.00    +0.000 OA
BRANCH  10  12
ATOM     11  C   UNL     1      -0.075   9.194  21.547  0.00  0.00    +0.000 C 
ATOM     12  C   UNL     1       0.917   9.339  20.408  0.00  0.00    +0.000 C 
ENDBRANCH  10  12
ENDBRANCH   8  10
ENDBRANCH   1   8
BRANCH   4  13
ATOM     13  C   UNL     1       2.878   2.834  20.579  0.00  0.00    +0.000 C 
ATOM     14  O   UNL     1       2.845   2.577  21.771  0.00  0.00    +0.000 OA
BRANCH  13  15
ATOM     15  O   UNL     1       2.774   1.868  19.615  0.00  0.00    +0.000 OA
BRANCH  15  16
ATOM     16  C   UNL     1       2.049   2.303  18.451  0.00  0.00    +0.000 C 
ATOM     17  C   UNL     1       0.578   2.023  18.697  0.00  0.00    +0.000 C 
ENDBRANCH  15  16
ENDBRANCH  13  15
ENDBRANCH   4  13
BRANCH   3  18
ATOM     18  C   UNL     1       5.638   4.171  19.156  0.00  0.00    +0.000 C 
BRANCH  18  19
ATOM     19  O   UNL     1       6.603   5.224  19.308  0.00  0.00    +0.000 OA
BRANCH  19  20
ATOM     20  C   UNL     1       7.604   5.281  18.382  0.00  0.00    +0.000 C 
ATOM     21  O   UNL     1       8.335   4.351  18.076  0.00  0.00    +0.000 OA
BRANCH  20  22
ATOM     22  C   UNL     1       7.624   6.667  17.767  0.00  0.00    +0.000 C 
BRANCH  22  23
ATOM     23  C   UNL     1       6.290   7.187  17.239  0.00  0.00    +0.000 C 
BRANCH  23  24
ATOM     24  C   UNL     1       5.807   6.537  15.942  0.00  0.00    +0.000 C 
BRANCH  24  25
ATOM     25  O   UNL     1       6.881   5.723  15.457  0.00  0.00    +0.000 OA
BRANCH  25  26
ATOM     26  C   UNL     1       6.629   4.975  14.339  0.00  0.00    +0.000 A 
ATOM     27  C   UNL     1       7.555   5.123  13.304  0.00  0.00    +0.000 A 
ATOM     28  C   UNL     1       7.416   4.406  12.114  0.00  0.00    +0.000 A 
ATOM     29  C   UNL     1       6.353   3.518  11.961  0.00  0.00    +0.000 A 
ATOM     30  C   UNL     1       5.441   3.345  13.002  0.00  0.00    +0.000 A 
ATOM     31  C   UNL     1       5.576   4.071  14.190  0.00  0.00    +0.000 A 
ENDBRANCH  25  26
ENDBRANCH  24  25
ENDBRANCH  23  24
ENDBRANCH  22  23
ENDBRANCH  20  22
ENDBRANCH  19  20
ENDBRANCH  18  19
ENDBRANCH   3  18
TORSDOF 14
ENDMDL
MODEL 8
REMARK VINA RESULT:      -7.0      2.744      4.357
REMARK  Name = 
REMARK  17 active torsions:
REMARK  status: ('A' for Active; 'I' for Inactive)
REMARK    1  A    between atoms: C_1  and  C_2
REMARK    2  A    between atoms: C_2  and  O_3
REMARK    3  A    between atoms: O_3  and  C_4
REMARK    4  A    between atoms: C_4  and  C_6
REMARK    5  A    between atoms: C_8  and  C_9
REMARK    6  A    between atoms: C_9  and  O_10
REMARK    7  A    between atoms: O_10  and  C_11
REMARK    8  A    between atoms: C_11  and  C_13
REMARK    9  A    between atoms: C_13  and  C_14
REMARK   10  A    between atoms: C_14  and  C_15
REMARK   11  A    between atoms: C_15  and  O_16
REMARK   12  A    between atoms: O_16  and  C_17
REMARK   13  A    between atoms: C_23  and  C_24
REMARK   14  A    between atoms: C_24  and  O_26
REMARK   15  A    between atoms: O_26  and  C_27
REMARK   16  A    between atoms: C_27  and  C_28
REMARK   17  A    between atoms: C_29  and  C_30
REMARK                            x       y       z     vdW  Elec       q    Type
REMARK                         _______ _______ _______ _____ _____    ______ ____
ROOT
ATOM      1  C   UNL     1       2.666   7.107  18.876  0.00  0.00    +0.000 A 
ATOM      2  N   UNL     1       3.358   6.897  17.712  0.00  0.00    +0.000 N 
ATOM      3  C   UNL     1       3.949   5.655  17.702  0.00  0.00    +0.000 A 
ATOM      4  C   UNL     1       3.609   5.012  18.896  0.00  0.00    +0.000 A 
ATOM      5  C   UNL     1       2.798   5.954  19.639  0.00  0.00    +0.000 A 
ATOM      6  C   UNL     1       2.169   5.778  20.985  0.00  0.00    +0.000 C 
ATOM      7  H   UNL     1       3.393   7.563  16.942  0.00  0.00    +0.000 HD
ENDROOT
BRANCH   1   8
ATOM      8  C   UNL     1       1.899   8.291  19.182  0.00  0.00    +0.000 C 
ATOM      9  O   UNL     1       1.405   8.557  20.270  0.00  0.00    +0.000 OA
BRANCH   8  10
ATOM     10  O   UNL     1       1.702   9.013  18.043  0.00  0.00    +0.000 OA
BRANCH  10  12
ATOM     11  C   UNL     1       1.891  11.375  18.267  0.00  0.00    +0.000 C 
ATOM     12  C   UNL     1       0.929  10.202  18.244  0.00  0.00    +0.000 C 
ENDBRANCH  10  12
ENDBRANCH   8  10
ENDBRANCH   1   8
BRANCH   4  13
ATOM     13  C   UNL     1       3.977   3.673  19.382  0.00  0.00    +0.000 C 
ATOM     14  O   UNL     1       5.135   3.298  19.469  0.00  0.00    +0.000 OA
BRANCH  13  15
ATOM     15  O   UNL     1       2.916   2.848  19.640  0.00  0.00    +0.000 OA
BRANCH  15  16
ATOM     16  C   UNL     1       2.001   2.737  18.534  0.00  0.00    +0.000 C 
ATOM     17  C   UNL     1       2.725   2.011  17.415  0.00  0.00    +0.000 C 
ENDBRANCH  15  16
ENDBRANCH  13  15
ENDBRANCH   4  13
BRANCH   3  18
ATOM     18  C   UNL     1       4.770   5.277  16.514  0.00  0.00    +0.000 C 
BRANCH  18  19
ATOM     19  O   UNL     1       5.918   6.138  16.463  0.00  0.00    +0.000 OA
BRANCH  19  20
ATOM     20  C   UNL     1       7.088   5.636  16.959  0.00  0.00    +0.000 C 
ATOM     21  O   UNL     1       7.666   4.647  16.535  0.00  0.00    +0.000 OA
BRANCH  20  22
ATOM     22  C   UNL     1       7.568   6.534  18.081  0.00  0.00    +0.000 C 
BRANCH  22  23
ATOM     23  C   UNL     1       7.835   7.991  17.710  0.00  0.00    +0.000 C 
BRANCH  23  24
ATOM     24  C   UNL     1       8.702   8.766  18.703  0.00  0.00    +0.000 C 
BRANCH  24  25
ATOM     25  O   UNL     1       8.669  10.141  18.301  0.00  0.00    +0.000 OA
BRANCH  25  26
ATOM     26  C   UNL     1       9.673  10.943  18.773  0.00  0.00    +0.000 A 
ATOM     27  C   UNL     1      10.564  11.411  17.804  0.00  0.00    +0.000 A 
ATOM     28  C   UNL     1      11.626  12.246  18.156  0.00  0.00    +0.000 A 
ATOM     29  C   UNL     1      11.790  12.635  19.483  0.00  0.00    +0.000 A 
ATOM     30  C   UNL     1      10.888  12.194  20.451  0.00  0.00    +0.000 A 
ATOM     31  C   UNL     1       9.830  11.349  20.099  0.00  0.00    +0.000 A 
ENDBRANCH  25  26
ENDBRANCH  24  25
ENDBRANCH  23  24
ENDBRANCH  22  23
ENDBRANCH  20  22
ENDBRANCH  19  20
ENDBRANCH  18  19
ENDBRANCH   3  18
TORSDOF 14
ENDMDL
MODEL 9
REMARK VINA RESULT:      -7.0      5.322      8.820
REMARK  Name = 
REMARK  17 active torsions:
REMARK  status: ('A' for Active; 'I' for Inactive)
REMARK    1  A    between atoms: C_1  and  C_2
REMARK    2  A    between atoms: C_2  and  O_3
REMARK    3  A    between atoms: O_3  and  C_4
REMARK    4  A    between atoms: C_4  and  C_6
REMARK    5  A    between atoms: C_8  and  C_9
REMARK    6  A    between atoms: C_9  and  O_10
REMARK    7  A    between atoms: O_10  and  C_11
REMARK    8  A    between atoms: C_11  and  C_13
REMARK    9  A    between atoms: C_13  and  C_14
REMARK   10  A    between atoms: C_14  and  C_15
REMARK   11  A    between atoms: C_15  and  O_16
REMARK   12  A    between atoms: O_16  and  C_17
REMARK   13  A    between atoms: C_23  and  C_24
REMARK   14  A    between atoms: C_24  and  O_26
REMARK   15  A    between atoms: O_26  and  C_27
REMARK   16  A    between atoms: C_27  and  C_28
REMARK   17  A    between atoms: C_29  and  C_30
REMARK                            x       y       z     vdW  Elec       q    Type
REMARK                         _______ _______ _______ _____ _____    ______ ____
ROOT
ATOM      1  C   UNL     1       5.023   5.429  16.938  0.00  0.00    +0.000 A 
ATOM      2  N   UNL     1       4.470   6.651  17.217  0.00  0.00    +0.000 N 
ATOM      3  C   UNL     1       3.240   6.516  17.817  0.00  0.00    +0.000 A 
ATOM      4  C   UNL     1       2.986   5.149  17.964  0.00  0.00    +0.000 A 
ATOM      5  C   UNL     1       4.128   4.467  17.390  0.00  0.00    +0.000 A 
ATOM      6  C   UNL     1       4.374   2.995  17.284  0.00  0.00    +0.000 C 
ATOM      7  H   UNL     1       4.934   7.541  17.036  0.00  0.00    +0.000 HD
ENDROOT
BRANCH   1   8
ATOM      8  C   UNL     1       6.325   5.223  16.349  0.00  0.00    +0.000 C 
ATOM      9  O   UNL     1       7.337   4.902  16.958  0.00  0.00    +0.000 OA
BRANCH   8  10
ATOM     10  O   UNL     1       6.286   5.556  15.029  0.00  0.00    +0.000 OA
BRANCH  10  12
ATOM     11  C   UNL     1       6.633   3.940  13.316  0.00  0.00    +0.000 C 
ATOM     12  C   UNL     1       5.601   4.597  14.215  0.00  0.00    +0.000 C 
ENDBRANCH  10  12
ENDBRANCH   8  10
ENDBRANCH   1   8
BRANCH   4  13
ATOM     13  C   UNL     1       1.820   4.465  18.544  0.00  0.00    +0.000 C 
ATOM     14  O   UNL     1       1.007   3.858  17.866  0.00  0.00    +0.000 OA
BRANCH  13  15
ATOM     15  O   UNL     1       1.667   4.643  19.892  0.00  0.00    +0.000 OA
BRANCH  15  16
ATOM     16  C   UNL     1       1.026   3.530  20.543  0.00  0.00    +0.000 C 
ATOM     17  C   UNL     1       2.052   2.885  21.457  0.00  0.00    +0.000 C 
ENDBRANCH  15  16
ENDBRANCH  13  15
ENDBRANCH   4  13
BRANCH   3  18
ATOM     18  C   UNL     1       2.485   7.757  18.161  0.00  0.00    +0.000 C 
BRANCH  18  19
ATOM     19  O   UNL     1       2.239   7.761  19.576  0.00  0.00    +0.000 OA
BRANCH  19  20
ATOM     20  C   UNL     1       1.370   8.702  20.048  0.00  0.00    +0.000 C 
ATOM     21  O   UNL     1       0.956   9.661  19.413  0.00  0.00    +0.000 OA
BRANCH  20  22
ATOM     22  C   UNL     1       0.970   8.334  21.463  0.00  0.00    +0.000 C 
BRANCH  22  23
ATOM     23  C   UNL     1      -0.366   8.889  21.950  0.00  0.00    +0.000 C 
BRANCH  23  24
ATOM     24  C   UNL     1      -0.275  10.178  22.768  0.00  0.00    +0.000 C 
BRANCH  24  25
ATOM     25  O   UNL     1      -0.901  11.209  21.995  0.00  0.00    +0.000 OA
BRANCH  25  26
ATOM     26  C   UNL     1      -1.503  12.220  22.693  0.00  0.00    +0.000 A 
ATOM     27  C   UNL     1      -2.737  11.897  23.261  0.00  0.00    +0.000 A 
ATOM     28  C   UNL     1      -3.447  12.840  24.008  0.00  0.00    +0.000 A 
ATOM     29  C   UNL     1      -2.913  14.111  24.207  0.00  0.00    +0.000 A 
ATOM     30  C   UNL     1      -1.668  14.430  23.665  0.00  0.00    +0.000 A 
ATOM     31  C   UNL     1      -0.961  13.488  22.910  0.00  0.00    +0.000 A 
ENDBRANCH  25  26
ENDBRANCH  24  25
ENDBRANCH  23  24
ENDBRANCH  22  23
ENDBRANCH  20  22
ENDBRANCH  19  20
ENDBRANCH  18  19
ENDBRANCH   3  18
TORSDOF 14
ENDMDL
