MODEL 1
REMARK VINA RESULT:      -7.4      0.000      0.000
REMARK  Name = 
REMARK  7 active torsions:
REMARK  status: ('A' for Active; 'I' for Inactive)
REMARK    1  A    between atoms: C_1  and  C_2
REMARK    2  A    between atoms: C_2  and  C_3
REMARK    3  A    between atoms: C_6  and  S_7
REMARK    4  A    between atoms: S_7  and  C_8
REMARK    5  A    between atoms: C_8  and  C_9
REMARK    6  A    between atoms: C_9  and  C_11
REMARK    7  A    between atoms: C_14  and  C_15
REMARK                            x       y       z     vdW  Elec       q    Type
REMARK                         _______ _______ _______ _____ _____    ______ ____
ROOT
ATOM      1  C   UNL     1       5.726   4.139  14.244  0.00  0.00    +0.000 A 
ATOM      2  C   UNL     1       5.000   3.863  15.381  0.00  0.00    +0.000 A 
ATOM      3  C   UNL     1       5.664   4.272  16.586  0.00  0.00    +0.000 A 
ATOM      4  C   UNL     1       5.338   4.181  17.945  0.00  0.00    +0.000 A 
ATOM      5  N   UNL     1       6.178   4.659  18.884  0.00  0.00    +0.000 NA
ATOM      6  C   UNL     1       7.324   5.218  18.455  0.00  0.00    +0.000 A 
ATOM      7  N   UNL     1       7.749   5.366  17.195  0.00  0.00    +0.000 NA
ATOM      8  C   UNL     1       6.878   4.872  16.299  0.00  0.00    +0.000 A 
ATOM      9  S   UNL     1       7.196   4.930  14.622  0.00  0.00    +0.000 S 
ENDROOT
BRANCH   1  11
ATOM     10  C   UNL     1       6.555   3.315  12.044  0.00  0.00    +0.000 C 
ATOM     11  C   UNL     1       5.352   3.808  12.832  0.00  0.00    +0.000 C 
ENDBRANCH   1  11
BRANCH   4  12
ATOM     12  S   UNL     1       3.806   3.412  18.367  0.00  0.00    +0.000 S 
BRANCH  12  13
ATOM     13  C   UNL     1       2.634   4.784  18.186  0.00  0.00    +0.000 C 
BRANCH  13  14
ATOM     14  C   UNL     1       2.596   5.634  19.454  0.00  0.00    +0.000 C 
ATOM     15  O   UNL     1       2.918   5.223  20.569  0.00  0.00    +0.000 OA
BRANCH  14  16
ATOM     16  C   UNL     1       2.139   7.050  19.332  0.00  0.00    +0.000 A 
ATOM     17  C   UNL     1       1.570   7.747  20.402  0.00  0.00    +0.000 A 
ATOM     18  C   UNL     1       1.152   9.071  20.234  0.00  0.00    +0.000 A 
ATOM     19  C   UNL     1       1.299   9.715  19.001  0.00  0.00    +0.000 A 
ATOM     20  C   UNL     1       0.845  11.132  18.815  0.00  0.00    +0.000 C 
ATOM     21  C   UNL     1       1.873   9.017  17.932  0.00  0.00    +0.000 A 
ATOM     22  C   UNL     1       2.289   7.695  18.096  0.00  0.00    +0.000 A 
ENDBRANCH  14  16
ENDBRANCH  13  14
ENDBRANCH  12  13
ENDBRANCH   4  12
TORSDOF 5
ENDMDL
MODEL 2
REMARK VINA RESULT:      -7.2      0.858      1.411
REMARK  Name = 
REMARK  7 active torsions:
REMARK  status: ('A' for Active; 'I' for Inactive)
REMARK    1  A    between atoms: C_1  and  C_2
REMARK    2  A    between atoms: C_2  and  C_3
REMARK    3  A    between atoms: C_6  and  S_7
REMARK    4  A    between atoms: S_7  and  C_8
REMARK    5  A    between atoms: C_8  and  C_9
REMARK    6  A    between atoms: C_9  and  C_11
REMARK    7  A    between atoms: C_14  and  C_15
REMARK                            x       y       z     vdW  Elec       q    Type
REMARK                         _______ _______ _______ _____ _____    ______ ____
ROOT
ATOM      1  C   UNL     1       5.619   4.289  14.621  0.00  0.00    +0.000 A 
ATOM      2  C   UNL     1       5.018   3.930  15.807  0.00  0.00    +0.000 A 
ATOM      3  C   UNL     1       5.714   4.422  16.962  0.00  0.00    +0.000 A 
ATOM      4  C   UNL     1       5.503   4.297  18.340  0.00  0.00    +0.000 A 
ATOM      5  N   UNL     1       6.346   4.877  19.217  0.00  0.00    +0.000 NA
ATOM      6  C   UNL     1       7.379   5.571  18.708  0.00  0.00    +0.000 A 
ATOM      7  N   UNL     1       7.688   5.766  17.421  0.00  0.00    +0.000 NA
ATOM      8  C   UNL     1       6.821   5.166  16.589  0.00  0.00    +0.000 A 
ATOM      9  S   UNL     1       7.005   5.255  14.893  0.00  0.00    +0.000 S 
ENDROOT
BRANCH   1  11
ATOM     10  C   UNL     1       6.355   3.396  12.414  0.00  0.00    +0.000 C 
ATOM     11  C   UNL     1       5.185   3.910  13.238  0.00  0.00    +0.000 C 
ENDBRANCH   1  11
BRANCH   4  12
ATOM     12  S   UNL     1       4.112   3.347  18.869  0.00  0.00    +0.000 S 
BRANCH  12  13
ATOM     13  C   UNL     1       3.594   4.237  20.362  0.00  0.00    +0.000 C 
BRANCH  13  14
ATOM     14  C   UNL     1       2.199   4.831  20.181  0.00  0.00    +0.000 C 
ATOM     15  O   UNL     1       1.157   4.235  20.452  0.00  0.00    +0.000 OA
BRANCH  14  16
ATOM     16  C   UNL     1       2.096   6.219  19.641  0.00  0.00    +0.000 A 
ATOM     17  C   UNL     1       2.477   6.544  18.336  0.00  0.00    +0.000 A 
ATOM     18  C   UNL     1       2.366   7.861  17.880  0.00  0.00    +0.000 A 
ATOM     19  C   UNL     1       1.873   8.868  18.718  0.00  0.00    +0.000 A 
ATOM     20  C   UNL     1       1.760  10.283  18.235  0.00  0.00    +0.000 C 
ATOM     21  C   UNL     1       1.488   8.540  20.023  0.00  0.00    +0.000 A 
ATOM     22  C   UNL     1       1.598   7.226  20.481  0.00  0.00    +0.000 A 
ENDBRANCH  14  16
ENDBRANCH  13  14
ENDBRANCH  12  13
ENDBRANCH   4  12
TORSDOF 5
ENDMDL
MODEL 3
REMARK VINA RESULT:      -7.1      2.884      7.731
REMARK  Name = 
REMARK  7 active torsions:
REMARK  status: ('A' for Active; 'I' for Inactive)
REMARK    1  A    between atoms: C_1  and  C_2
REMARK    2  A    between atoms: C_2  and  C_3
REMARK    3  A    between atoms: C_6  and  S_7
REMARK    4  A    between atoms: S_7  and  C_8
REMARK    5  A    between atoms: C_8  and  C_9
REMARK    6  A    between atoms: C_9  and  C_11
REMARK    7  A    between atoms: C_14  and  C_15
REMARK                            x       y       z     vdW  Elec       q    Type
REMARK                         _______ _______ _______ _____ _____    ______ ____
ROOT
ATOM      1  C   UNL     1       0.376   9.182  21.695  0.00  0.00    +0.000 A 
ATOM      2  C   UNL     1       1.028   8.004  21.403  0.00  0.00    +0.000 A 
ATOM      3  C   UNL     1       1.615   7.997  20.093  0.00  0.00    +0.000 A 
ATOM      4  C   UNL     1       2.334   7.042  19.365  0.00  0.00    +0.000 A 
ATOM      5  N   UNL     1       2.771   7.316  18.120  0.00  0.00    +0.000 NA
ATOM      6  C   UNL     1       2.485   8.533  17.623  0.00  0.00    +0.000 A 
ATOM      7  N   UNL     1       1.812   9.528  18.214  0.00  0.00    +0.000 NA
ATOM      8  C   UNL     1       1.398   9.204  19.450  0.00  0.00    +0.000 A 
ATOM      9  S   UNL     1       0.506  10.301  20.407  0.00  0.00    +0.000 S 
ENDROOT
BRANCH   1  11
ATOM     10  C   UNL     1      -0.909  10.934  22.915  0.00  0.00    +0.000 C 
ATOM     11  C   UNL     1      -0.378   9.509  22.947  0.00  0.00    +0.000 C 
ENDBRANCH   1  11
BRANCH   4  12
ATOM     12  S   UNL     1       2.628   5.480  20.135  0.00  0.00    +0.000 S 
BRANCH  12  13
ATOM     13  C   UNL     1       3.027   4.428  18.712  0.00  0.00    +0.000 C 
BRANCH  13  14
ATOM     14  C   UNL     1       4.507   4.054  18.714  0.00  0.00    +0.000 C 
ATOM     15  O   UNL     1       5.096   3.578  19.685  0.00  0.00    +0.000 OA
BRANCH  14  16
ATOM     16  C   UNL     1       5.286   4.280  17.461  0.00  0.00    +0.000 A 
ATOM     17  C   UNL     1       6.658   4.549  17.471  0.00  0.00    +0.000 A 
ATOM     18  C   UNL     1       7.340   4.760  16.270  0.00  0.00    +0.000 A 
ATOM     19  C   UNL     1       6.665   4.704  15.046  0.00  0.00    +0.000 A 
ATOM     20  C   UNL     1       7.392   4.938  13.755  0.00  0.00    +0.000 C 
ATOM     21  C   UNL     1       5.293   4.431  15.036  0.00  0.00    +0.000 A 
ATOM     22  C   UNL     1       4.608   4.221  16.235  0.00  0.00    +0.000 A 
ENDBRANCH  14  16
ENDBRANCH  13  14
ENDBRANCH  12  13
ENDBRANCH   4  12
TORSDOF 5
ENDMDL
MODEL 4
REMARK VINA RESULT:      -7.1      0.984      1.480
REMARK  Name = 
REMARK  7 active torsions:
REMARK  status: ('A' for Active; 'I' for Inactive)
REMARK    1  A    between atoms: C_1  and  C_2
REMARK    2  A    between atoms: C_2  and  C_3
REMARK    3  A    between atoms: C_6  and  S_7
REMARK    4  A    between atoms: S_7  and  C_8
REMARK    5  A    between atoms: C_8  and  C_9
REMARK    6  A    between atoms: C_9  and  C_11
REMARK    7  A    between atoms: C_14  and  C_15
REMARK                            x       y       z     vdW  Elec       q    Type
REMARK                         _______ _______ _______ _____ _____    ______ ____
ROOT
ATOM      1  C   UNL     1       5.915   3.832  13.684  0.00  0.00    +0.000 A 
ATOM      2  C   UNL     1       5.203   3.815  14.862  0.00  0.00    +0.000 A 
ATOM      3  C   UNL     1       5.752   4.683  15.864  0.00  0.00    +0.000 A 
ATOM      4  C   UNL     1       5.399   4.972  17.188  0.00  0.00    +0.000 A 
ATOM      5  N   UNL     1       6.121   5.850  17.913  0.00  0.00    +0.000 NA
ATOM      6  C   UNL     1       7.177   6.423  17.309  0.00  0.00    +0.000 A 
ATOM      7  N   UNL     1       7.615   6.234  16.059  0.00  0.00    +0.000 NA
ATOM      8  C   UNL     1       6.865   5.350  15.380  0.00  0.00    +0.000 A 
ATOM      9  S   UNL     1       7.227   4.928  13.766  0.00  0.00    +0.000 S 
ENDROOT
BRANCH   1  11
ATOM     10  C   UNL     1       4.456   3.565  11.681  0.00  0.00    +0.000 C 
ATOM     11  C   UNL     1       5.646   3.019  12.455  0.00  0.00    +0.000 C 
ENDBRANCH   1  11
BRANCH   4  12
ATOM     12  S   UNL     1       3.995   4.138  17.858  0.00  0.00    +0.000 S 
BRANCH  12  13
ATOM     13  C   UNL     1       3.942   4.789  19.550  0.00  0.00    +0.000 C 
BRANCH  13  14
ATOM     14  C   UNL     1       2.542   5.295  19.892  0.00  0.00    +0.000 C 
ATOM     15  O   UNL     1       1.681   4.612  20.448  0.00  0.00    +0.000 OA
BRANCH  14  16
ATOM     16  C   UNL     1       2.200   6.701  19.528  0.00  0.00    +0.000 A 
ATOM     17  C   UNL     1       2.454   7.229  18.259  0.00  0.00    +0.000 A 
ATOM     18  C   UNL     1       2.119   8.555  17.970  0.00  0.00    +0.000 A 
ATOM     19  C   UNL     1       1.526   9.369  18.941  0.00  0.00    +0.000 A 
ATOM     20  C   UNL     1       1.172  10.794  18.638  0.00  0.00    +0.000 C 
ATOM     21  C   UNL     1       1.267   8.838  20.210  0.00  0.00    +0.000 A 
ATOM     22  C   UNL     1       1.602   7.515  20.501  0.00  0.00    +0.000 A 
ENDBRANCH  14  16
ENDBRANCH  13  14
ENDBRANCH  12  13
ENDBRANCH   4  12
TORSDOF 5
ENDMDL
MODEL 5
REMARK VINA RESULT:      -7.1      2.939      6.086
REMARK  Name = 
REMARK  7 active torsions:
REMARK  status: ('A' for Active; 'I' for Inactive)
REMARK    1  A    between atoms: C_1  and  C_2
REMARK    2  A    between atoms: C_2  and  C_3
REMARK    3  A    between atoms: C_6  and  S_7
REMARK    4  A    between atoms: S_7  and  C_8
REMARK    5  A    between atoms: C_8  and  C_9
REMARK    6  A    between atoms: C_9  and  C_11
REMARK    7  A    between atoms: C_14  and  C_15
REMARK                            x       y       z     vdW  Elec       q    Type
REMARK                         _______ _______ _______ _____ _____    ______ ____
ROOT
ATOM      1  C   UNL     1       2.360   7.323  18.591  0.00  0.00    +0.000 A 
ATOM      2  C   UNL     1       2.536   6.054  18.086  0.00  0.00    +0.000 A 
ATOM      3  C   UNL     1       2.413   5.030  19.084  0.00  0.00    +0.000 A 
ATOM      4  C   UNL     1       2.533   3.635  19.053  0.00  0.00    +0.000 A 
ATOM      5  N   UNL     1       2.366   2.909  20.176  0.00  0.00    +0.000 NA
ATOM      6  C   UNL     1       2.084   3.581  21.306  0.00  0.00    +0.000 A 
ATOM      7  N   UNL     1       1.943   4.902  21.466  0.00  0.00    +0.000 NA
ATOM      8  C   UNL     1       2.121   5.580  20.320  0.00  0.00    +0.000 A 
ATOM      9  S   UNL     1       2.005   7.283  20.265  0.00  0.00    +0.000 S 
ENDROOT
BRANCH   1  11
ATOM     10  C   UNL     1       1.405   9.607  18.301  0.00  0.00    +0.000 C 
ATOM     11  C   UNL     1       2.464   8.616  17.841  0.00  0.00    +0.000 C 
ENDBRANCH   1  11
BRANCH   4  12
ATOM     12  S   UNL     1       2.919   2.884  17.502  0.00  0.00    +0.000 S 
BRANCH  12  13
ATOM     13  C   UNL     1       4.730   2.966  17.484  0.00  0.00    +0.000 C 
BRANCH  13  14
ATOM     14  C   UNL     1       5.215   4.008  16.479  0.00  0.00    +0.000 C 
ATOM     15  O   UNL     1       4.970   3.966  15.273  0.00  0.00    +0.000 OA
BRANCH  14  16
ATOM     16  C   UNL     1       6.036   5.143  16.991  0.00  0.00    +0.000 A 
ATOM     17  C   UNL     1       5.890   6.449  16.513  0.00  0.00    +0.000 A 
ATOM     18  C   UNL     1       6.688   7.477  17.022  0.00  0.00    +0.000 A 
ATOM     19  C   UNL     1       7.641   7.217  18.014  0.00  0.00    +0.000 A 
ATOM     20  C   UNL     1       8.505   8.316  18.557  0.00  0.00    +0.000 C 
ATOM     21  C   UNL     1       7.784   5.911  18.495  0.00  0.00    +0.000 A 
ATOM     22  C   UNL     1       6.988   4.882  17.987  0.00  0.00    +0.000 A 
ENDBRANCH  14  16
ENDBRANCH  13  14
ENDBRANCH  12  13
ENDBRANCH   4  12
TORSDOF 5
ENDMDL
MODEL 6
REMARK VINA RESULT:      -7.0      2.952      7.772
REMARK  Name = 
REMARK  7 active torsions:
REMARK  status: ('A' for Active; 'I' for Inactive)
REMARK    1  A    between atoms: C_1  and  C_2
REMARK    2  A    between atoms: C_2  and  C_3
REMARK    3  A    between atoms: C_6  and  S_7
REMARK    4  A    between atoms: S_7  and  C_8
REMARK    5  A    between atoms: C_8  and  C_9
REMARK    6  A    between atoms: C_9  and  C_11
REMARK    7  A    between atoms: C_14  and  C_15
REMARK                            x       y       z     vdW  Elec       q    Type
REMARK                         _______ _______ _______ _____ _____    ______ ____
ROOT
ATOM      1  C   UNL     1       0.710   9.170  21.844  0.00  0.00    +0.000 A 
ATOM      2  C   UNL     1       1.268   8.001  21.376  0.00  0.00    +0.000 A 
ATOM      3  C   UNL     1       1.684   8.087  20.005  0.00  0.00    +0.000 A 
ATOM      4  C   UNL     1       2.263   7.175  19.114  0.00  0.00    +0.000 A 
ATOM      5  N   UNL     1       2.550   7.540  17.849  0.00  0.00    +0.000 NA
ATOM      6  C   UNL     1       2.256   8.804  17.494  0.00  0.00    +0.000 A 
ATOM      7  N   UNL     1       1.707   9.765  18.246  0.00  0.00    +0.000 NA
ATOM      8  C   UNL     1       1.439   9.350  19.495  0.00  0.00    +0.000 A 
ATOM      9  S   UNL     1       0.723  10.390  20.645  0.00  0.00    +0.000 S 
ENDROOT
BRANCH   1  11
ATOM     10  C   UNL     1      -1.014  10.407  23.149  0.00  0.00    +0.000 C 
ATOM     11  C   UNL     1       0.135   9.413  23.205  0.00  0.00    +0.000 C 
ENDBRANCH   1  11
BRANCH   4  12
ATOM     12  S   UNL     1       2.584   5.544  19.711  0.00  0.00    +0.000 S 
BRANCH  12  13
ATOM     13  C   UNL     1       4.397   5.507  19.747  0.00  0.00    +0.000 C 
BRANCH  13  14
ATOM     14  C   UNL     1       4.926   4.243  19.071  0.00  0.00    +0.000 C 
ATOM     15  O   UNL     1       4.954   3.136  19.608  0.00  0.00    +0.000 OA
BRANCH  14  16
ATOM     16  C   UNL     1       5.441   4.362  17.676  0.00  0.00    +0.000 A 
ATOM     17  C   UNL     1       4.612   4.229  16.558  0.00  0.00    +0.000 A 
ATOM     18  C   UNL     1       5.145   4.342  15.271  0.00  0.00    +0.000 A 
ATOM     19  C   UNL     1       6.510   4.591  15.083  0.00  0.00    +0.000 A 
ATOM     20  C   UNL     1       7.087   4.705  13.703  0.00  0.00    +0.000 C 
ATOM     21  C   UNL     1       7.338   4.728  16.202  0.00  0.00    +0.000 A 
ATOM     22  C   UNL     1       6.808   4.614  17.488  0.00  0.00    +0.000 A 
ENDBRANCH  14  16
ENDBRANCH  13  14
ENDBRANCH  12  13
ENDBRANCH   4  12
TORSDOF 5
ENDMDL
MODEL 7
REMARK VINA RESULT:      -7.0      2.959      5.962
REMARK  Name = 
REMARK  7 active torsions:
REMARK  status: ('A' for Active; 'I' for Inactive)
REMARK    1  A    between atoms: C_1  and  C_2
REMARK    2  A    between atoms: C_2  and  C_3
REMARK    3  A    between atoms: C_6  and  S_7
REMARK    4  A    between atoms: S_7  and  C_8
REMARK    5  A    between atoms: C_8  and  C_9
REMARK    6  A    between atoms: C_9  and  C_11
REMARK    7  A    between atoms: C_14  and  C_15
REMARK                            x       y       z     vdW  Elec       q    Type
REMARK                         _______ _______ _______ _____ _____    ______ ____
ROOT
ATOM      1  C   UNL     1       2.423   7.245  18.389  0.00  0.00    +0.000 A 
ATOM      2  C   UNL     1       2.562   5.972  17.881  0.00  0.00    +0.000 A 
ATOM      3  C   UNL     1       2.427   4.950  18.879  0.00  0.00    +0.000 A 
ATOM      4  C   UNL     1       2.512   3.553  18.846  0.00  0.00    +0.000 A 
ATOM      5  N   UNL     1       2.341   2.830  19.971  0.00  0.00    +0.000 NA
ATOM      6  C   UNL     1       2.088   3.508  21.105  0.00  0.00    +0.000 A 
ATOM      7  N   UNL     1       1.982   4.832  21.267  0.00  0.00    +0.000 NA
ATOM      8  C   UNL     1       2.162   5.506  20.120  0.00  0.00    +0.000 A 
ATOM      9  S   UNL     1       2.088   7.212  20.067  0.00  0.00    +0.000 S 
ENDROOT
BRANCH   1  11
ATOM     10  C   UNL     1       1.319   9.408  17.832  0.00  0.00    +0.000 C 
ATOM     11  C   UNL     1       2.549   8.535  17.639  0.00  0.00    +0.000 C 
ENDBRANCH   1  11
BRANCH   4  12
ATOM     12  S   UNL     1       2.860   2.794  17.291  0.00  0.00    +0.000 S 
BRANCH  12  13
ATOM     13  C   UNL     1       4.670   2.890  17.222  0.00  0.00    +0.000 C 
BRANCH  13  14
ATOM     14  C   UNL     1       5.117   4.070  16.362  0.00  0.00    +0.000 C 
ATOM     15  O   UNL     1       4.788   4.229  15.186  0.00  0.00    +0.000 OA
BRANCH  14  16
ATOM     16  C   UNL     1       6.008   5.092  16.987  0.00  0.00    +0.000 A 
ATOM     17  C   UNL     1       6.785   4.816  18.116  0.00  0.00    +0.000 A 
ATOM     18  C   UNL     1       7.599   5.810  18.668  0.00  0.00    +0.000 A 
ATOM     19  C   UNL     1       7.649   7.088  18.100  0.00  0.00    +0.000 A 
ATOM     20  C   UNL     1       8.515   8.159  18.693  0.00  0.00    +0.000 C 
ATOM     21  C   UNL     1       6.874   7.361  16.967  0.00  0.00    +0.000 A 
ATOM     22  C   UNL     1       6.060   6.371  16.416  0.00  0.00    +0.000 A 
ENDBRANCH  14  16
ENDBRANCH  13  14
ENDBRANCH  12  13
ENDBRANCH   4  12
TORSDOF 5
ENDMDL
MODEL 8
REMARK VINA RESULT:      -6.9      1.115      1.199
REMARK  Name = 
REMARK  7 active torsions:
REMARK  status: ('A' for Active; 'I' for Inactive)
REMARK    1  A    between atoms: C_1  and  C_2
REMARK    2  A    between atoms: C_2  and  C_3
REMARK    3  A    between atoms: C_6  and  S_7
REMARK    4  A    between atoms: S_7  and  C_8
REMARK    5  A    between atoms: C_8  and  C_9
REMARK    6  A    between atoms: C_9  and  C_11
REMARK    7  A    between atoms: C_14  and  C_15
REMARK                            x       y       z     vdW  Elec       q    Type
REMARK                         _______ _______ _______ _____ _____    ______ ____
ROOT
ATOM      1  C   UNL     1       6.275   3.951  14.056  0.00  0.00    +0.000 A 
ATOM      2  C   UNL     1       5.698   3.696  15.280  0.00  0.00    +0.000 A 
ATOM      3  C   UNL     1       6.119   4.611  16.303  0.00  0.00    +0.000 A 
ATOM      4  C   UNL     1       5.831   4.731  17.667  0.00  0.00    +0.000 A 
ATOM      5  N   UNL     1       6.392   5.713  18.402  0.00  0.00    +0.000 NA
ATOM      6  C   UNL     1       7.226   6.555  17.766  0.00  0.00    +0.000 A 
ATOM      7  N   UNL     1       7.579   6.548  16.476  0.00  0.00    +0.000 NA
ATOM      8  C   UNL     1       6.997   5.551  15.789  0.00  0.00    +0.000 A 
ATOM      9  S   UNL     1       7.298   5.321  14.124  0.00  0.00    +0.000 S 
ENDROOT
BRANCH   1  11
ATOM     10  C   UNL     1       4.764   3.498  12.127  0.00  0.00    +0.000 C 
ATOM     11  C   UNL     1       6.092   3.169  12.792  0.00  0.00    +0.000 C 
ENDBRANCH   1  11
BRANCH   4  12
ATOM     12  S   UNL     1       4.727   3.549  18.375  0.00  0.00    +0.000 S 
BRANCH  12  13
ATOM     13  C   UNL     1       3.684   4.592  19.429  0.00  0.00    +0.000 C 
BRANCH  13  14
ATOM     14  C   UNL     1       2.597   5.279  18.605  0.00  0.00    +0.000 C 
ATOM     15  O   UNL     1       2.059   4.774  17.619  0.00  0.00    +0.000 OA
BRANCH  14  16
ATOM     16  C   UNL     1       2.162   6.644  19.022  0.00  0.00    +0.000 A 
ATOM     17  C   UNL     1       1.789   6.943  20.336  0.00  0.00    +0.000 A 
ATOM     18  C   UNL     1       1.384   8.237  20.674  0.00  0.00    +0.000 A 
ATOM     19  C   UNL     1       1.347   9.249  19.708  0.00  0.00    +0.000 A 
ATOM     20  C   UNL     1       0.905  10.636  20.065  0.00  0.00    +0.000 C 
ATOM     21  C   UNL     1       1.725   8.950  18.394  0.00  0.00    +0.000 A 
ATOM     22  C   UNL     1       2.129   7.658  18.053  0.00  0.00    +0.000 A 
ENDBRANCH  14  16
ENDBRANCH  13  14
ENDBRANCH  12  13
ENDBRANCH   4  12
TORSDOF 5
ENDMDL
MODEL 9
REMARK VINA RESULT:      -6.9      3.010      7.648
REMARK  Name = 
REMARK  7 active torsions:
REMARK  status: ('A' for Active; 'I' for Inactive)
REMARK    1  A    between atoms: C_1  and  C_2
REMARK    2  A    between atoms: C_2  and  C_3
REMARK    3  A    between atoms: C_6  and  S_7
REMARK    4  A    between atoms: S_7  and  C_8
REMARK    5  A    between atoms: C_8  and  C_9
REMARK    6  A    between atoms: C_9  and  C_11
REMARK    7  A    between atoms: C_14  and  C_15
REMARK                            x       y       z     vdW  Elec       q    Type
REMARK                         _______ _______ _______ _____ _____    ______ ____
ROOT
ATOM      1  C   UNL     1       0.153   9.661  21.634  0.00  0.00    +0.000 A 
ATOM      2  C   UNL     1       0.745   8.423  21.521  0.00  0.00    +0.000 A 
ATOM      3  C   UNL     1       1.394   8.224  20.256  0.00  0.00    +0.000 A 
ATOM      4  C   UNL     1       2.088   7.150  19.687  0.00  0.00    +0.000 A 
ATOM      5  N   UNL     1       2.600   7.246  18.444  0.00  0.00    +0.000 NA
ATOM      6  C   UNL     1       2.412   8.406  17.791  0.00  0.00    +0.000 A 
ATOM      7  N   UNL     1       1.773   9.501  18.221  0.00  0.00    +0.000 NA
ATOM      8  C   UNL     1       1.281   9.353  19.462  0.00  0.00    +0.000 A 
ATOM      9  S   UNL     1       0.411  10.606  20.231  0.00  0.00    +0.000 S 
ENDROOT
BRANCH   1  11
ATOM     10  C   UNL     1      -0.883  11.676  22.673  0.00  0.00    +0.000 C 
ATOM     11  C   UNL     1      -0.640  10.179  22.795  0.00  0.00    +0.000 C 
ENDBRANCH   1  11
BRANCH   4  12
ATOM     12  S   UNL     1       2.250   5.680  20.653  0.00  0.00    +0.000 S 
BRANCH  12  13
ATOM     13  C   UNL     1       1.948   4.384  19.421  0.00  0.00    +0.000 C 
BRANCH  13  14
ATOM     14  C   UNL     1       3.163   3.469  19.290  0.00  0.00    +0.000 C 
ATOM     15  O   UNL     1       3.319   2.435  19.940  0.00  0.00    +0.000 OA
BRANCH  14  16
ATOM     16  C   UNL     1       4.224   3.853  18.314  0.00  0.00    +0.000 A 
ATOM     17  C   UNL     1       5.489   4.292  18.718  0.00  0.00    +0.000 A 
ATOM     18  C   UNL     1       6.447   4.646  17.764  0.00  0.00    +0.000 A 
ATOM     19  C   UNL     1       6.157   4.565  16.397  0.00  0.00    +0.000 A 
ATOM     20  C   UNL     1       7.180   4.952  15.371  0.00  0.00    +0.000 C 
ATOM     21  C   UNL     1       4.893   4.122  15.994  0.00  0.00    +0.000 A 
ATOM     22  C   UNL     1       3.934   3.769  16.945  0.00  0.00    +0.000 A 
ENDBRANCH  14  16
ENDBRANCH  13  14
ENDBRANCH  12  13
ENDBRANCH   4  12
TORSDOF 5
ENDMDL
