MODEL 1
REMARK VINA RESULT:      -7.4      0.000      0.000
REMARK  Name = 
REMARK  5 active torsions:
REMARK  status: ('A' for Active; 'I' for Inactive)
REMARK    1  A    between atoms: C_1  and  O_2
REMARK    2  A    between atoms: O_2  and  C_3
REMARK    3  A    between atoms: C_3  and  C_4
REMARK    4  A    between atoms: C_4  and  C_5
REMARK    5  A    between atoms: C_13  and  C_14
REMARK                            x       y       z     vdW  Elec       q    Type
REMARK                         _______ _______ _______ _____ _____    ______ ____
ROOT
ATOM      1  C   UNL     1       4.723   5.931  17.097  0.00  0.00    +0.000 A 
ATOM      2  C   UNL     1       4.305   7.241  17.394  0.00  0.00    +0.000 A 
ATOM      3  C   UNL     1       3.050   7.497  17.968  0.00  0.00    +0.000 A 
ATOM      4  C   UNL     1       2.178   6.451  18.254  0.00  0.00    +0.000 A 
ATOM      5  C   UNL     1       2.569   5.164  17.922  0.00  0.00    +0.000 A 
ATOM      6  C   UNL     1       3.815   4.903  17.328  0.00  0.00    +0.000 A 
ATOM      7  C   UNL     1       3.975   3.428  17.093  0.00  0.00    +0.000 C 
ATOM      8  C   UNL     1       2.523   2.935  17.206  0.00  0.00    +0.000 C 
ATOM      9  C   UNL     1       1.814   3.884  18.192  0.00  0.00    +0.000 C 
ENDROOT
BRANCH   9  10
ATOM     10  C   UNL     1       1.925   3.399  19.608  0.00  0.00    +0.000 A 
ATOM     11  N   UNL     1       3.042   3.113  20.250  0.00  0.00    +0.000 NA
ATOM     12  C   UNL     1       2.662   2.728  21.510  0.00  0.00    +0.000 A 
ATOM     13  C   UNL     1       1.297   2.787  21.647  0.00  0.00    +0.000 A 
ATOM     14  N   UNL     1       0.839   3.211  20.434  0.00  0.00    +0.000 N 
ATOM     15  H   UNL     1      -0.127   3.361  20.172  0.00  0.00    +0.000 HD
ENDBRANCH   9  10
BRANCH   1  16
ATOM     16  C   UNL     1       6.125   5.684  16.597  0.00  0.00    +0.000 C 
BRANCH  16  17
ATOM     17  C   UNL     1       7.158   6.364  17.500  0.00  0.00    +0.000 C 
BRANCH  17  19
ATOM     18  C   UNL     1       8.003   8.535  17.795  0.00  0.00    +0.000 C 
ATOM     19  O   UNL     1       7.688   7.519  16.850  0.00  0.00    +0.000 OA
ENDBRANCH  17  19
ENDBRANCH  16  17
ENDBRANCH   1  16
TORSDOF 4
ENDMDL
MODEL 2
REMARK VINA RESULT:      -7.3      1.341      1.356
REMARK  Name = 
REMARK  5 active torsions:
REMARK  status: ('A' for Active; 'I' for Inactive)
REMARK    1  A    between atoms: C_1  and  O_2
REMARK    2  A    between atoms: O_2  and  C_3
REMARK    3  A    between atoms: C_3  and  C_4
REMARK    4  A    between atoms: C_4  and  C_5
REMARK    5  A    between atoms: C_13  and  C_14
REMARK                            x       y       z     vdW  Elec       q    Type
REMARK                         _______ _______ _______ _____ _____    ______ ____
ROOT
ATOM      1  C   UNL     1       4.969   5.182  16.874  0.00  0.00    +0.000 A 
ATOM      2  C   UNL     1       4.854   6.578  17.002  0.00  0.00    +0.000 A 
ATOM      3  C   UNL     1       3.707   7.171  17.552  0.00  0.00    +0.000 A 
ATOM      4  C   UNL     1       2.642   6.385  17.981  0.00  0.00    +0.000 A 
ATOM      5  C   UNL     1       2.735   5.012  17.816  0.00  0.00    +0.000 A 
ATOM      6  C   UNL     1       3.872   4.413  17.247  0.00  0.00    +0.000 A 
ATOM      7  C   UNL     1       3.702   2.921  17.206  0.00  0.00    +0.000 C 
ATOM      8  C   UNL     1       2.184   2.775  17.398  0.00  0.00    +0.000 C 
ATOM      9  C   UNL     1       1.734   3.972  18.259  0.00  0.00    +0.000 C 
ENDROOT
BRANCH   9  10
ATOM     10  C   UNL     1       1.794   3.655  19.725  0.00  0.00    +0.000 A 
ATOM     11  N   UNL     1       2.710   4.074  20.577  0.00  0.00    +0.000 NA
ATOM     12  C   UNL     1       2.355   3.554  21.795  0.00  0.00    +0.000 A 
ATOM     13  C   UNL     1       1.202   2.814  21.692  0.00  0.00    +0.000 A 
ATOM     14  N   UNL     1       0.857   2.883  20.374  0.00  0.00    +0.000 N 
ATOM     15  H   UNL     1       0.057   2.443  19.936  0.00  0.00    +0.000 HD
ENDBRANCH   9  10
BRANCH   1  16
ATOM     16  C   UNL     1       6.265   4.575  16.395  0.00  0.00    +0.000 C 
BRANCH  16  17
ATOM     17  C   UNL     1       7.424   4.956  17.320  0.00  0.00    +0.000 C 
BRANCH  17  19
ATOM     18  C   UNL     1       7.566   5.601  19.574  0.00  0.00    +0.000 C 
ATOM     19  O   UNL     1       7.107   4.604  18.667  0.00  0.00    +0.000 OA
ENDBRANCH  17  19
ENDBRANCH  16  17
ENDBRANCH   1  16
TORSDOF 4
ENDMDL
MODEL 3
REMARK VINA RESULT:      -7.1      1.407      2.013
REMARK  Name = 
REMARK  5 active torsions:
REMARK  status: ('A' for Active; 'I' for Inactive)
REMARK    1  A    between atoms: C_1  and  O_2
REMARK    2  A    between atoms: O_2  and  C_3
REMARK    3  A    between atoms: C_3  and  C_4
REMARK    4  A    between atoms: C_4  and  C_5
REMARK    5  A    between atoms: C_13  and  C_14
REMARK                            x       y       z     vdW  Elec       q    Type
REMARK                         _______ _______ _______ _____ _____    ______ ____
ROOT
ATOM      1  C   UNL     1       4.798   5.703  17.045  0.00  0.00    +0.000 A 
ATOM      2  C   UNL     1       4.405   7.032  17.282  0.00  0.00    +0.000 A 
ATOM      3  C   UNL     1       3.151   7.339  17.833  0.00  0.00    +0.000 A 
ATOM      4  C   UNL     1       2.255   6.324  18.155  0.00  0.00    +0.000 A 
ATOM      5  C   UNL     1       2.622   5.016  17.882  0.00  0.00    +0.000 A 
ATOM      6  C   UNL     1       3.867   4.704  17.311  0.00  0.00    +0.000 A 
ATOM      7  C   UNL     1       3.998   3.217  17.141  0.00  0.00    +0.000 C 
ATOM      8  C   UNL     1       2.535   2.760  17.262  0.00  0.00    +0.000 C 
ATOM      9  C   UNL     1       1.838   3.765  18.200  0.00  0.00    +0.000 C 
ENDROOT
BRANCH   9  10
ATOM     10  C   UNL     1       1.928   3.339  19.636  0.00  0.00    +0.000 A 
ATOM     11  N   UNL     1       3.035   3.195  20.340  0.00  0.00    +0.000 NA
ATOM     12  C   UNL     1       2.634   2.811  21.594  0.00  0.00    +0.000 A 
ATOM     13  C   UNL     1       1.265   2.726  21.664  0.00  0.00    +0.000 A 
ATOM     14  N   UNL     1       0.828   3.061  20.416  0.00  0.00    +0.000 N 
ATOM     15  H   UNL     1      -0.135   3.096  20.103  0.00  0.00    +0.000 HD
ENDBRANCH   9  10
BRANCH   1  16
ATOM     16  C   UNL     1       6.199   5.406  16.568  0.00  0.00    +0.000 C 
BRANCH  16  17
ATOM     17  C   UNL     1       6.260   5.358  15.039  0.00  0.00    +0.000 C 
BRANCH  17  19
ATOM     18  C   UNL     1       6.048   3.679  13.410  0.00  0.00    +0.000 C 
ATOM     19  O   UNL     1       6.705   4.071  14.610  0.00  0.00    +0.000 OA
ENDBRANCH  17  19
ENDBRANCH  16  17
ENDBRANCH   1  16
TORSDOF 4
ENDMDL
MODEL 4
REMARK VINA RESULT:      -7.1      1.381      1.927
REMARK  Name = 
REMARK  5 active torsions:
REMARK  status: ('A' for Active; 'I' for Inactive)
REMARK    1  A    between atoms: C_1  and  O_2
REMARK    2  A    between atoms: O_2  and  C_3
REMARK    3  A    between atoms: C_3  and  C_4
REMARK    4  A    between atoms: C_4  and  C_5
REMARK    5  A    between atoms: C_13  and  C_14
REMARK                            x       y       z     vdW  Elec       q    Type
REMARK                         _______ _______ _______ _____ _____    ______ ____
ROOT
ATOM      1  C   UNL     1       5.140   5.307  17.054  0.00  0.00    +0.000 A 
ATOM      2  C   UNL     1       4.960   6.696  17.190  0.00  0.00    +0.000 A 
ATOM      3  C   UNL     1       3.751   7.236  17.655  0.00  0.00    +0.000 A 
ATOM      4  C   UNL     1       2.688   6.403  17.990  0.00  0.00    +0.000 A 
ATOM      5  C   UNL     1       2.847   5.037  17.815  0.00  0.00    +0.000 A 
ATOM      6  C   UNL     1       4.048   4.491  17.330  0.00  0.00    +0.000 A 
ATOM      7  C   UNL     1       3.940   2.995  17.256  0.00  0.00    +0.000 C 
ATOM      8  C   UNL     1       2.418   2.788  17.326  0.00  0.00    +0.000 C 
ATOM      9  C   UNL     1       1.856   3.952  18.164  0.00  0.00    +0.000 C 
ENDROOT
BRANCH   9  10
ATOM     10  C   UNL     1       1.814   3.615  19.626  0.00  0.00    +0.000 A 
ATOM     11  N   UNL     1       1.081   2.674  20.190  0.00  0.00    +0.000 NA
ATOM     12  C   UNL     1       1.377   2.719  21.528  0.00  0.00    +0.000 A 
ATOM     13  C   UNL     1       2.309   3.694  21.789  0.00  0.00    +0.000 A 
ATOM     14  N   UNL     1       2.577   4.257  20.576  0.00  0.00    +0.000 N 
ATOM     15  H   UNL     1       3.219   5.019  20.393  0.00  0.00    +0.000 HD
ENDBRANCH   9  10
BRANCH   1  16
ATOM     16  C   UNL     1       6.491   4.758  16.670  0.00  0.00    +0.000 C 
BRANCH  16  17
ATOM     17  C   UNL     1       6.588   4.544  15.157  0.00  0.00    +0.000 C 
BRANCH  17  19
ATOM     18  C   UNL     1       7.788   5.131  13.225  0.00  0.00    +0.000 C 
ATOM     19  O   UNL     1       7.585   5.405  14.607  0.00  0.00    +0.000 OA
ENDBRANCH  17  19
ENDBRANCH  16  17
ENDBRANCH   1  16
TORSDOF 4
ENDMDL
MODEL 5
REMARK VINA RESULT:      -7.1      1.058      1.341
REMARK  Name = 
REMARK  5 active torsions:
REMARK  status: ('A' for Active; 'I' for Inactive)
REMARK    1  A    between atoms: C_1  and  O_2
REMARK    2  A    between atoms: O_2  and  C_3
REMARK    3  A    between atoms: C_3  and  C_4
REMARK    4  A    between atoms: C_4  and  C_5
REMARK    5  A    between atoms: C_13  and  C_14
REMARK                            x       y       z     vdW  Elec       q    Type
REMARK                         _______ _______ _______ _____ _____    ______ ____
ROOT
ATOM      1  C   UNL     1       4.379   6.305  17.190  0.00  0.00    +0.000 A 
ATOM      2  C   UNL     1       3.872   7.561  17.569  0.00  0.00    +0.000 A 
ATOM      3  C   UNL     1       2.618   7.689  18.187  0.00  0.00    +0.000 A 
ATOM      4  C   UNL     1       1.836   6.565  18.437  0.00  0.00    +0.000 A 
ATOM      5  C   UNL     1       2.314   5.331  18.025  0.00  0.00    +0.000 A 
ATOM      6  C   UNL     1       3.558   5.199  17.387  0.00  0.00    +0.000 A 
ATOM      7  C   UNL     1       3.822   3.755  17.068  0.00  0.00    +0.000 C 
ATOM      8  C   UNL     1       2.415   3.146  17.190  0.00  0.00    +0.000 C 
ATOM      9  C   UNL     1       1.666   3.985  18.244  0.00  0.00    +0.000 C 
ENDROOT
BRANCH   9  10
ATOM     10  C   UNL     1       1.855   3.436  19.628  0.00  0.00    +0.000 A 
ATOM     11  N   UNL     1       3.003   3.103  20.186  0.00  0.00    +0.000 NA
ATOM     12  C   UNL     1       2.695   2.670  21.449  0.00  0.00    +0.000 A 
ATOM     13  C   UNL     1       1.342   2.745  21.674  0.00  0.00    +0.000 A 
ATOM     14  N   UNL     1       0.819   3.230  20.512  0.00  0.00    +0.000 N 
ATOM     15  H   UNL     1      -0.159   3.407  20.317  0.00  0.00    +0.000 HD
ENDBRANCH   9  10
BRANCH   1  16
ATOM     16  C   UNL     1       5.780   6.193  16.642  0.00  0.00    +0.000 C 
BRANCH  16  17
ATOM     17  C   UNL     1       6.744   5.658  17.704  0.00  0.00    +0.000 C 
BRANCH  17  19
ATOM     18  C   UNL     1       7.232   4.340  15.822  0.00  0.00    +0.000 C 
ATOM     19  O   UNL     1       7.682   4.765  17.104  0.00  0.00    +0.000 OA
ENDBRANCH  17  19
ENDBRANCH  16  17
ENDBRANCH   1  16
TORSDOF 4
ENDMDL
MODEL 6
REMARK VINA RESULT:      -6.9      3.354      5.875
REMARK  Name = 
REMARK  5 active torsions:
REMARK  status: ('A' for Active; 'I' for Inactive)
REMARK    1  A    between atoms: C_1  and  O_2
REMARK    2  A    between atoms: O_2  and  C_3
REMARK    3  A    between atoms: C_3  and  C_4
REMARK    4  A    between atoms: C_4  and  C_5
REMARK    5  A    between atoms: C_13  and  C_14
REMARK                            x       y       z     vdW  Elec       q    Type
REMARK                         _______ _______ _______ _____ _____    ______ ____
ROOT
ATOM      1  C   UNL     1       3.360   5.343  19.416  0.00  0.00    +0.000 A 
ATOM      2  C   UNL     1       2.391   6.288  19.033  0.00  0.00    +0.000 A 
ATOM      3  C   UNL     1       2.668   7.273  18.072  0.00  0.00    +0.000 A 
ATOM      4  C   UNL     1       3.923   7.343  17.475  0.00  0.00    +0.000 A 
ATOM      5  C   UNL     1       4.893   6.441  17.882  0.00  0.00    +0.000 A 
ATOM      6  C   UNL     1       4.628   5.466  18.859  0.00  0.00    +0.000 A 
ATOM      7  C   UNL     1       5.851   4.624  19.090  0.00  0.00    +0.000 C 
ATOM      8  C   UNL     1       6.954   5.499  18.473  0.00  0.00    +0.000 C 
ATOM      9  C   UNL     1       6.292   6.298  17.333  0.00  0.00    +0.000 C 
ENDROOT
BRANCH   9  10
ATOM     10  C   UNL     1       6.361   5.562  16.027  0.00  0.00    +0.000 A 
ATOM     11  N   UNL     1       7.395   5.518  15.208  0.00  0.00    +0.000 NA
ATOM     12  C   UNL     1       7.010   4.722  14.160  0.00  0.00    +0.000 A 
ATOM     13  C   UNL     1       5.727   4.264  14.340  0.00  0.00    +0.000 A 
ATOM     14  N   UNL     1       5.325   4.805  15.526  0.00  0.00    +0.000 N 
ATOM     15  H   UNL     1       4.422   4.684  15.969  0.00  0.00    +0.000 HD
ENDBRANCH   9  10
BRANCH   1  16
ATOM     16  C   UNL     1       2.988   4.224  20.358  0.00  0.00    +0.000 C 
BRANCH  16  17
ATOM     17  C   UNL     1       1.519   4.325  20.777  0.00  0.00    +0.000 C 
BRANCH  17  19
ATOM     18  C   UNL     1       0.858   2.614  19.311  0.00  0.00    +0.000 C 
ATOM     19  O   UNL     1       0.893   3.047  20.666  0.00  0.00    +0.000 OA
ENDBRANCH  17  19
ENDBRANCH  16  17
ENDBRANCH   1  16
TORSDOF 4
ENDMDL
MODEL 7
REMARK VINA RESULT:      -6.9      2.905      5.866
REMARK  Name = 
REMARK  5 active torsions:
REMARK  status: ('A' for Active; 'I' for Inactive)
REMARK    1  A    between atoms: C_1  and  O_2
REMARK    2  A    between atoms: O_2  and  C_3
REMARK    3  A    between atoms: C_3  and  C_4
REMARK    4  A    between atoms: C_4  and  C_5
REMARK    5  A    between atoms: C_13  and  C_14
REMARK                            x       y       z     vdW  Elec       q    Type
REMARK                         _______ _______ _______ _____ _____    ______ ____
ROOT
ATOM      1  C   UNL     1       2.315   4.238  18.880  0.00  0.00    +0.000 A 
ATOM      2  C   UNL     1       2.539   2.959  18.339  0.00  0.00    +0.000 A 
ATOM      3  C   UNL     1       3.458   2.754  17.299  0.00  0.00    +0.000 A 
ATOM      4  C   UNL     1       4.172   3.824  16.767  0.00  0.00    +0.000 A 
ATOM      5  C   UNL     1       3.922   5.091  17.268  0.00  0.00    +0.000 A 
ATOM      6  C   UNL     1       2.988   5.306  18.295  0.00  0.00    +0.000 A 
ATOM      7  C   UNL     1       2.934   6.766  18.645  0.00  0.00    +0.000 C 
ATOM      8  C   UNL     1       3.602   7.406  17.416  0.00  0.00    +0.000 C 
ATOM      9  C   UNL     1       4.617   6.376  16.884  0.00  0.00    +0.000 C 
ENDROOT
BRANCH   9  10
ATOM     10  C   UNL     1       5.967   6.549  17.515  0.00  0.00    +0.000 A 
ATOM     11  N   UNL     1       6.515   5.758  18.418  0.00  0.00    +0.000 NA
ATOM     12  C   UNL     1       7.748   6.293  18.689  0.00  0.00    +0.000 A 
ATOM     13  C   UNL     1       7.964   7.423  17.937  0.00  0.00    +0.000 A 
ATOM     14  N   UNL     1       6.828   7.577  17.199  0.00  0.00    +0.000 N 
ATOM     15  H   UNL     1       6.635   8.317  16.534  0.00  0.00    +0.000 HD
ENDBRANCH   9  10
BRANCH   1  16
ATOM     16  C   UNL     1       1.414   4.401  20.079  0.00  0.00    +0.000 C 
BRANCH  16  17
ATOM     17  C   UNL     1       2.230   4.503  21.370  0.00  0.00    +0.000 C 
BRANCH  17  19
ATOM     18  C   UNL     1       1.308   2.391  21.823  0.00  0.00    +0.000 C 
ATOM     19  O   UNL     1       2.478   3.198  21.893  0.00  0.00    +0.000 OA
ENDBRANCH  17  19
ENDBRANCH  16  17
ENDBRANCH   1  16
TORSDOF 4
ENDMDL
MODEL 8
REMARK VINA RESULT:      -6.9      3.106      5.664
REMARK  Name = 
REMARK  5 active torsions:
REMARK  status: ('A' for Active; 'I' for Inactive)
REMARK    1  A    between atoms: C_1  and  O_2
REMARK    2  A    between atoms: O_2  and  C_3
REMARK    3  A    between atoms: C_3  and  C_4
REMARK    4  A    between atoms: C_4  and  C_5
REMARK    5  A    between atoms: C_13  and  C_14
REMARK                            x       y       z     vdW  Elec       q    Type
REMARK                         _______ _______ _______ _____ _____    ______ ____
ROOT
ATOM      1  C   UNL     1       3.234   5.482  19.433  0.00  0.00    +0.000 A 
ATOM      2  C   UNL     1       2.303   6.452  19.022  0.00  0.00    +0.000 A 
ATOM      3  C   UNL     1       2.616   7.395  18.031  0.00  0.00    +0.000 A 
ATOM      4  C   UNL     1       3.871   7.397  17.430  0.00  0.00    +0.000 A 
ATOM      5  C   UNL     1       4.806   6.470  17.863  0.00  0.00    +0.000 A 
ATOM      6  C   UNL     1       4.505   5.537  18.870  0.00  0.00    +0.000 A 
ATOM      7  C   UNL     1       5.693   4.654  19.125  0.00  0.00    +0.000 C 
ATOM      8  C   UNL     1       6.828   5.465  18.480  0.00  0.00    +0.000 C 
ATOM      9  C   UNL     1       6.196   6.254  17.316  0.00  0.00    +0.000 C 
ENDROOT
BRANCH   9  10
ATOM     10  C   UNL     1       6.232   5.476  16.034  0.00  0.00    +0.000 A 
ATOM     11  N   UNL     1       5.259   4.729  15.546  0.00  0.00    +0.000 NA
ATOM     12  C   UNL     1       5.728   4.229  14.359  0.00  0.00    +0.000 A 
ATOM     13  C   UNL     1       7.002   4.680  14.109  0.00  0.00    +0.000 A 
ATOM     14  N   UNL     1       7.312   5.468  15.179  0.00  0.00    +0.000 N 
ATOM     15  H   UNL     1       8.182   5.962  15.333  0.00  0.00    +0.000 HD
ENDBRANCH   9  10
BRANCH   1  16
ATOM     16  C   UNL     1       2.821   4.409  20.410  0.00  0.00    +0.000 C 
BRANCH  16  17
ATOM     17  C   UNL     1       2.070   3.279  19.699  0.00  0.00    +0.000 C 
BRANCH  17  19
ATOM     18  C   UNL     1       3.097   2.005  18.014  0.00  0.00    +0.000 C 
ATOM     19  O   UNL     1       2.965   2.202  19.417  0.00  0.00    +0.000 OA
ENDBRANCH  17  19
ENDBRANCH  16  17
ENDBRANCH   1  16
TORSDOF 4
ENDMDL
MODEL 9
REMARK VINA RESULT:      -6.8      3.096      5.706
REMARK  Name = 
REMARK  5 active torsions:
REMARK  status: ('A' for Active; 'I' for Inactive)
REMARK    1  A    between atoms: C_1  and  O_2
REMARK    2  A    between atoms: O_2  and  C_3
REMARK    3  A    between atoms: C_3  and  C_4
REMARK    4  A    between atoms: C_4  and  C_5
REMARK    5  A    between atoms: C_13  and  C_14
REMARK                            x       y       z     vdW  Elec       q    Type
REMARK                         _______ _______ _______ _____ _____    ______ ____
ROOT
ATOM      1  C   UNL     1       2.530   5.308  18.560  0.00  0.00    +0.000 A 
ATOM      2  C   UNL     1       2.054   6.596  18.255  0.00  0.00    +0.000 A 
ATOM      3  C   UNL     1       2.884   7.565  17.671  0.00  0.00    +0.000 A 
ATOM      4  C   UNL     1       4.214   7.274  17.383  0.00  0.00    +0.000 A 
ATOM      5  C   UNL     1       4.698   6.020  17.723  0.00  0.00    +0.000 A 
ATOM      6  C   UNL     1       3.877   5.053  18.327  0.00  0.00    +0.000 A 
ATOM      7  C   UNL     1       4.658   3.792  18.568  0.00  0.00    +0.000 C 
ATOM      8  C   UNL     1       6.106   4.296  18.447  0.00  0.00    +0.000 C 
ATOM      9  C   UNL     1       6.079   5.472  17.452  0.00  0.00    +0.000 C 
ENDROOT
BRANCH   9  10
ATOM     10  C   UNL     1       6.285   5.011  16.039  0.00  0.00    +0.000 A 
ATOM     11  N   UNL     1       5.528   4.154  15.380  0.00  0.00    +0.000 NA
ATOM     12  C   UNL     1       6.083   4.048  14.130  0.00  0.00    +0.000 A 
ATOM     13  C   UNL     1       7.188   4.856  14.017  0.00  0.00    +0.000 A 
ATOM     14  N   UNL     1       7.308   5.460  15.234  0.00  0.00    +0.000 N 
ATOM     15  H   UNL     1       8.024   6.120  15.513  0.00  0.00    +0.000 HD
ENDBRANCH   9  10
BRANCH   1  16
ATOM     16  C   UNL     1       1.577   4.256  19.071  0.00  0.00    +0.000 C 
BRANCH  16  17
ATOM     17  C   UNL     1       1.235   4.494  20.544  0.00  0.00    +0.000 C 
BRANCH  17  19
ATOM     18  C   UNL     1       2.418   2.750  21.581  0.00  0.00    +0.000 C 
ATOM     19  O   UNL     1       2.353   4.156  21.365  0.00  0.00    +0.000 OA
ENDBRANCH  17  19
ENDBRANCH  16  17
ENDBRANCH   1  16
TORSDOF 4
ENDMDL
