MODEL 1
REMARK VINA RESULT:      -8.2      0.000      0.000
REMARK  Name = 
REMARK  3 active torsions:
REMARK  status: ('A' for Active; 'I' for Inactive)
REMARK    1  A    between atoms: C_1  and  C_2
REMARK    2  A    between atoms: N_20  and  C_21
REMARK    3  A    between atoms: C_21  and  C_22
REMARK                            x       y       z     vdW  Elec       q    Type
REMARK                         _______ _______ _______ _____ _____    ______ ____
ROOT
ATOM      1  C   UNL     1       4.269  14.269  20.865  0.00  0.00    +0.000 C 
ATOM      2  C   UNL     1       2.859  13.708  20.991  0.00  0.00    +0.000 C 
ATOM      3  N   UNL     1       1.937  14.601  21.652  0.00  0.00    +0.000 N 
ATOM      4  C   UNL     1       0.616  14.142  21.684  0.00  0.00    +0.000 A 
ATOM      5  N   UNL     1      -0.073  14.652  22.712  0.00  0.00    +0.000 NA
ATOM      6  C   UNL     1      -1.366  14.336  22.771  0.00  0.00    +0.000 A 
ATOM      7  N   UNL     1      -2.032  13.572  21.898  0.00  0.00    +0.000 NA
ATOM      8  C   UNL     1      -1.385  13.036  20.831  0.00  0.00    +0.000 A 
ATOM      9  N   UNL     1      -2.291  12.404  19.968  0.00  0.00    +0.000 N 
ATOM     10  C   UNL     1      -3.744  12.299  20.214  0.00  0.00    +0.000 C 
ATOM     11  C   UNL     1      -4.523  12.329  18.855  0.00  0.00    +0.000 C 
ATOM     12  C   UNL     1      -3.978  11.401  17.790  0.00  0.00    +0.000 A 
ATOM     13  C   UNL     1      -4.621  11.130  16.577  0.00  0.00    +0.000 A 
ATOM     14  C   UNL     1      -3.963  10.420  15.552  0.00  0.00    +0.000 A 
ATOM     15  C   UNL     1      -2.667   9.948  15.720  0.00  0.00    +0.000 A 
ATOM     16  C   UNL     1      -2.035  10.181  16.928  0.00  0.00    +0.000 A 
ATOM     17  C   UNL     1      -2.689  10.918  17.945  0.00  0.00    +0.000 A 
ATOM     18  C   UNL     1      -1.848  11.385  19.078  0.00  0.00    +0.000 C 
ATOM     19  C   UNL     1       0.054  13.266  20.694  0.00  0.00    +0.000 A 
ATOM     20  N   UNL     1       1.064  12.781  19.706  0.00  0.00    +0.000 N 
ATOM     21  C   UNL     1       2.309  13.404  19.615  0.00  0.00    +0.000 C 
ATOM     22  O   UNL     1       2.929  13.570  18.567  0.00  0.00    +0.000 OA
ATOM     23  H   UNL     1       2.191  14.998  22.549  0.00  0.00    +0.000 HD
ENDROOT
BRANCH  20  24
ATOM     24  C   UNL     1       0.851  11.816  18.692  0.00  0.00    +0.000 C 
BRANCH  24  25
ATOM     25  C   UNL     1       1.118  10.343  18.853  0.00  0.00    +0.000 A 
ATOM     26  C   UNL     1       1.733   9.614  17.824  0.00  0.00    +0.000 A 
ATOM     27  C   UNL     1       2.222   8.336  18.081  0.00  0.00    +0.000 A 
ATOM     28  C   UNL     1       2.080   7.787  19.356  0.00  0.00    +0.000 A 
ATOM     29 BR   UNL     1       2.776   6.068  19.714  0.00  0.00    +0.000 Br
ATOM     30  C   UNL     1       1.458   8.498  20.378  0.00  0.00    +0.000 A 
ATOM     31  C   UNL     1       0.977   9.775  20.127  0.00  0.00    +0.000 A 
ENDBRANCH  24  25
ENDBRANCH  20  24
TORSDOF 2
ENDMDL
MODEL 2
REMARK VINA RESULT:      -8.0      3.387      6.235
REMARK  Name = 
REMARK  3 active torsions:
REMARK  status: ('A' for Active; 'I' for Inactive)
REMARK    1  A    between atoms: C_1  and  C_2
REMARK    2  A    between atoms: N_20  and  C_21
REMARK    3  A    between atoms: C_21  and  C_22
REMARK                            x       y       z     vdW  Elec       q    Type
REMARK                         _______ _______ _______ _____ _____    ______ ____
ROOT
ATOM      1  C   UNL     1       1.490   9.667  18.278  0.00  0.00    +0.000 C 
ATOM      2  C   UNL     1       0.161  10.406  18.200  0.00  0.00    +0.000 C 
ATOM      3  N   UNL     1      -0.738   9.878  17.201  0.00  0.00    +0.000 N 
ATOM      4  C   UNL     1      -2.000  10.481  17.188  0.00  0.00    +0.000 A 
ATOM      5  N   UNL     1      -2.589  10.399  15.989  0.00  0.00    +0.000 NA
ATOM      6  C   UNL     1      -3.832  10.872  15.907  0.00  0.00    +0.000 A 
ATOM      7  N   UNL     1      -4.540  11.405  16.909  0.00  0.00    +0.000 NA
ATOM      8  C   UNL     1      -3.995  11.505  18.149  0.00  0.00    +0.000 A 
ATOM      9  N   UNL     1      -4.951  11.945  19.076  0.00  0.00    +0.000 N 
ATOM     10  C   UNL     1      -6.345  12.296  18.735  0.00  0.00    +0.000 C 
ATOM     11  C   UNL     1      -7.296  11.944  19.930  0.00  0.00    +0.000 C 
ATOM     12  C   UNL     1      -6.819  12.426  21.284  0.00  0.00    +0.000 A 
ATOM     13  C   UNL     1      -7.590  12.387  22.451  0.00  0.00    +0.000 A 
ATOM     14  C   UNL     1      -7.016  12.663  23.708  0.00  0.00    +0.000 A 
ATOM     15  C   UNL     1      -5.673  13.002  23.828  0.00  0.00    +0.000 A 
ATOM     16  C   UNL     1      -4.910  13.078  22.677  0.00  0.00    +0.000 A 
ATOM     17  C   UNL     1      -5.485  12.774  21.419  0.00  0.00    +0.000 A 
ATOM     18  C   UNL     1      -4.545  12.580  20.284  0.00  0.00    +0.000 C 
ATOM     19  C   UNL     1      -2.612  11.071  18.346  0.00  0.00    +0.000 A 
ATOM     20  N   UNL     1      -1.703  11.103  19.531  0.00  0.00    +0.000 N 
ATOM     21  C   UNL     1      -0.537  10.336  19.540  0.00  0.00    +0.000 C 
ATOM     22  O   UNL     1      -0.076   9.782  20.535  0.00  0.00    +0.000 OA
ATOM     23  H   UNL     1      -0.403   9.748  16.254  0.00  0.00    +0.000 HD
ENDROOT
BRANCH  20  24
ATOM     24  C   UNL     1      -1.965  11.728  20.774  0.00  0.00    +0.000 C 
BRANCH  24  25
ATOM     25  C   UNL     1      -1.287  12.983  21.253  0.00  0.00    +0.000 A 
ATOM     26  C   UNL     1      -1.014  14.031  20.361  0.00  0.00    +0.000 A 
ATOM     27  C   UNL     1      -0.646  15.280  20.853  0.00  0.00    +0.000 A 
ATOM     28  C   UNL     1      -0.537  15.472  22.231  0.00  0.00    +0.000 A 
ATOM     29 BR   UNL     1      -0.073  17.176  22.901  0.00  0.00    +0.000 Br
ATOM     30  C   UNL     1      -0.792  14.434  23.123  0.00  0.00    +0.000 A 
ATOM     31  C   UNL     1      -1.166  13.190  22.634  0.00  0.00    +0.000 A 
ENDBRANCH  24  25
ENDBRANCH  20  24
TORSDOF 2
ENDMDL
MODEL 3
REMARK VINA RESULT:      -7.1      3.093      5.879
REMARK  Name = 
REMARK  3 active torsions:
REMARK  status: ('A' for Active; 'I' for Inactive)
REMARK    1  A    between atoms: C_1  and  C_2
REMARK    2  A    between atoms: N_20  and  C_21
REMARK    3  A    between atoms: C_21  and  C_22
REMARK                            x       y       z     vdW  Elec       q    Type
REMARK                         _______ _______ _______ _____ _____    ______ ____
ROOT
ATOM      1  C   UNL     1      -4.669  12.239  24.423  0.00  0.00    +0.000 C 
ATOM      2  C   UNL     1      -4.127  13.159  23.338  0.00  0.00    +0.000 C 
ATOM      3  N   UNL     1      -4.090  14.550  23.723  0.00  0.00    +0.000 N 
ATOM      4  C   UNL     1      -3.499  15.393  22.776  0.00  0.00    +0.000 A 
ATOM      5  N   UNL     1      -3.946  16.651  22.868  0.00  0.00    +0.000 NA
ATOM      6  C   UNL     1      -3.372  17.543  22.061  0.00  0.00    +0.000 A 
ATOM      7  N   UNL     1      -2.394  17.296  21.183  0.00  0.00    +0.000 NA
ATOM      8  C   UNL     1      -1.896  16.039  21.054  0.00  0.00    +0.000 A 
ATOM      9  N   UNL     1      -0.783  16.032  20.200  0.00  0.00    +0.000 N 
ATOM     10  C   UNL     1      -0.258  17.223  19.504  0.00  0.00    +0.000 C 
ATOM     11  C   UNL     1       1.298  17.116  19.352  0.00  0.00    +0.000 C 
ATOM     12  C   UNL     1       1.793  15.785  18.825  0.00  0.00    +0.000 A 
ATOM     13  C   UNL     1       3.115  15.534  18.439  0.00  0.00    +0.000 A 
ATOM     14  C   UNL     1       3.548  14.224  18.151  0.00  0.00    +0.000 A 
ATOM     15  C   UNL     1       2.675  13.145  18.220  0.00  0.00    +0.000 A 
ATOM     16  C   UNL     1       1.358  13.388  18.567  0.00  0.00    +0.000 A 
ATOM     17  C   UNL     1       0.934  14.701  18.881  0.00  0.00    +0.000 A 
ATOM     18  C   UNL     1      -0.395  14.836  19.533  0.00  0.00    +0.000 C 
ATOM     19  C   UNL     1      -2.490  14.964  21.849  0.00  0.00    +0.000 A 
ATOM     20  N   UNL     1      -2.239  13.492  21.903  0.00  0.00    +0.000 N 
ATOM     21  C   UNL     1      -2.719  12.739  22.975  0.00  0.00    +0.000 C 
ATOM     22  O   UNL     1      -2.129  11.784  23.474  0.00  0.00    +0.000 OA
ATOM     23  H   UNL     1      -4.927  14.980  24.100  0.00  0.00    +0.000 HD
ENDROOT
BRANCH  20  24
ATOM     24  C   UNL     1      -1.401  12.750  21.036  0.00  0.00    +0.000 C 
BRANCH  24  25
ATOM     25  C   UNL     1      -1.899  11.891  19.904  0.00  0.00    +0.000 A 
ATOM     26  C   UNL     1      -3.113  12.187  19.265  0.00  0.00    +0.000 A 
ATOM     27  C   UNL     1      -3.427  11.567  18.059  0.00  0.00    +0.000 A 
ATOM     28  C   UNL     1      -2.537  10.647  17.505  0.00  0.00    +0.000 A 
ATOM     29 BR   UNL     1      -2.946   9.834  15.850  0.00  0.00    +0.000 Br
ATOM     30  C   UNL     1      -1.337  10.337  18.139  0.00  0.00    +0.000 A 
ATOM     31  C   UNL     1      -1.018  10.959  19.338  0.00  0.00    +0.000 A 
ENDBRANCH  24  25
ENDBRANCH  20  24
TORSDOF 2
ENDMDL
MODEL 4
REMARK VINA RESULT:      -7.0      3.139      4.978
REMARK  Name = 
REMARK  3 active torsions:
REMARK  status: ('A' for Active; 'I' for Inactive)
REMARK    1  A    between atoms: C_1  and  C_2
REMARK    2  A    between atoms: N_20  and  C_21
REMARK    3  A    between atoms: C_21  and  C_22
REMARK                            x       y       z     vdW  Elec       q    Type
REMARK                         _______ _______ _______ _____ _____    ______ ____
ROOT
ATOM      1  C   UNL     1      -3.124  14.954  25.325  0.00  0.00    +0.000 C 
ATOM      2  C   UNL     1      -3.931  14.318  24.201  0.00  0.00    +0.000 C 
ATOM      3  N   UNL     1      -4.964  15.176  23.672  0.00  0.00    +0.000 N 
ATOM      4  C   UNL     1      -5.645  14.645  22.571  0.00  0.00    +0.000 A 
ATOM      5  N   UNL     1      -6.881  15.144  22.451  0.00  0.00    +0.000 NA
ATOM      6  C   UNL     1      -7.572  14.758  21.378  0.00  0.00    +0.000 A 
ATOM      7  N   UNL     1      -7.140  13.934  20.417  0.00  0.00    +0.000 NA
ATOM      8  C   UNL     1      -5.891  13.405  20.485  0.00  0.00    +0.000 A 
ATOM      9  N   UNL     1      -5.587  12.699  19.311  0.00  0.00    +0.000 N 
ATOM     10  C   UNL     1      -6.520  12.521  18.180  0.00  0.00    +0.000 C 
ATOM     11  C   UNL     1      -5.726  12.469  16.831  0.00  0.00    +0.000 C 
ATOM     12  C   UNL     1      -4.528  11.543  16.835  0.00  0.00    +0.000 A 
ATOM     13  C   UNL     1      -3.791  11.203  15.694  0.00  0.00    +0.000 A 
ATOM     14  C   UNL     1      -2.572  10.502  15.802  0.00  0.00    +0.000 A 
ATOM     15  C   UNL     1      -2.074  10.109  17.039  0.00  0.00    +0.000 A 
ATOM     16  C   UNL     1      -2.812  10.410  18.169  0.00  0.00    +0.000 A 
ATOM     17  C   UNL     1      -4.022  11.138  18.059  0.00  0.00    +0.000 A 
ATOM     18  C   UNL     1      -4.591  11.683  19.319  0.00  0.00    +0.000 C 
ATOM     19  C   UNL     1      -5.060  13.712  21.649  0.00  0.00    +0.000 A 
ATOM     20  N   UNL     1      -3.700  13.257  22.067  0.00  0.00    +0.000 N 
ATOM     21  C   UNL     1      -3.007  13.946  23.063  0.00  0.00    +0.000 C 
ATOM     22  O   UNL     1      -1.790  14.117  23.072  0.00  0.00    +0.000 OA
ATOM     23  H   UNL     1      -5.619  15.612  24.311  0.00  0.00    +0.000 HD
ENDROOT
BRANCH  20  24
ATOM     24  C   UNL     1      -2.921  12.253  21.441  0.00  0.00    +0.000 C 
BRANCH  24  25
ATOM     25  C   UNL     1      -1.570  12.490  20.821  0.00  0.00    +0.000 A 
ATOM     26  C   UNL     1      -0.500  11.624  21.091  0.00  0.00    +0.000 A 
ATOM     27  C   UNL     1       0.651  11.685  20.311  0.00  0.00    +0.000 A 
ATOM     28  C   UNL     1       0.735  12.618  19.278  0.00  0.00    +0.000 A 
ATOM     29 BR   UNL     1       2.282  12.675  18.196  0.00  0.00    +0.000 Br
ATOM     30  C   UNL     1      -0.317  13.491  19.012  0.00  0.00    +0.000 A 
ATOM     31  C   UNL     1      -1.468  13.427  19.784  0.00  0.00    +0.000 A 
ENDBRANCH  24  25
ENDBRANCH  20  24
TORSDOF 2
ENDMDL
MODEL 5
REMARK VINA RESULT:      -7.0      1.371      2.006
REMARK  Name = 
REMARK  3 active torsions:
REMARK  status: ('A' for Active; 'I' for Inactive)
REMARK    1  A    between atoms: C_1  and  C_2
REMARK    2  A    between atoms: N_20  and  C_21
REMARK    3  A    between atoms: C_21  and  C_22
REMARK                            x       y       z     vdW  Elec       q    Type
REMARK                         _______ _______ _______ _____ _____    ______ ____
ROOT
ATOM      1  C   UNL     1       1.758  15.314  22.216  0.00  0.00    +0.000 C 
ATOM      2  C   UNL     1       0.491  14.529  21.905  0.00  0.00    +0.000 C 
ATOM      3  N   UNL     1      -0.724  15.271  22.144  0.00  0.00    +0.000 N 
ATOM      4  C   UNL     1      -1.892  14.600  21.765  0.00  0.00    +0.000 A 
ATOM      5  N   UNL     1      -2.960  15.011  22.458  0.00  0.00    +0.000 NA
ATOM      6  C   UNL     1      -4.133  14.486  22.103  0.00  0.00    +0.000 A 
ATOM      7  N   UNL     1      -4.335  13.602  21.120  0.00  0.00    +0.000 NA
ATOM      8  C   UNL     1      -3.287  13.156  20.379  0.00  0.00    +0.000 A 
ATOM      9  N   UNL     1      -3.736  12.363  19.313  0.00  0.00    +0.000 N 
ATOM     10  C   UNL     1      -5.152  12.023  19.063  0.00  0.00    +0.000 C 
ATOM     11  C   UNL     1      -5.410  11.892  17.524  0.00  0.00    +0.000 C 
ATOM     12  C   UNL     1      -4.399  11.043  16.781  0.00  0.00    +0.000 A 
ATOM     13  C   UNL     1      -4.537  10.641  15.447  0.00  0.00    +0.000 A 
ATOM     14  C   UNL     1      -3.468  10.027  14.763  0.00  0.00    +0.000 A 
ATOM     15  C   UNL     1      -2.254   9.782  15.394  0.00  0.00    +0.000 A 
ATOM     16  C   UNL     1      -2.120  10.144  16.722  0.00  0.00    +0.000 A 
ATOM     17  C   UNL     1      -3.187  10.785  17.398  0.00  0.00    +0.000 A 
ATOM     18  C   UNL     1      -2.867  11.412  18.707  0.00  0.00    +0.000 C 
ATOM     19  C   UNL     1      -1.941  13.620  20.716  0.00  0.00    +0.000 A 
ATOM     20  N   UNL     1      -0.592  13.287  20.167  0.00  0.00    +0.000 N 
ATOM     21  C   UNL     1       0.501  14.106  20.452  0.00  0.00    +0.000 C 
ATOM     22  O   UNL     1       1.412  14.349  19.664  0.00  0.00    +0.000 OA
ATOM     23  H   UNL     1      -0.857  15.725  23.040  0.00  0.00    +0.000 HD
ENDROOT
BRANCH  20  24
ATOM     24  C   UNL     1      -0.296  12.277  19.220  0.00  0.00    +0.000 C 
BRANCH  24  25
ATOM     25  C   UNL     1       0.492  11.031  19.526  0.00  0.00    +0.000 A 
ATOM     26  C   UNL     1       0.311  10.353  20.741  0.00  0.00    +0.000 A 
ATOM     27  C   UNL     1       0.827   9.070  20.899  0.00  0.00    +0.000 A 
ATOM     28  C   UNL     1       1.534   8.478  19.852  0.00  0.00    +0.000 A 
ATOM     29 BR   UNL     1       2.204   6.724  20.054  0.00  0.00    +0.000 Br
ATOM     30  C   UNL     1       1.731   9.150  18.649  0.00  0.00    +0.000 A 
ATOM     31  C   UNL     1       1.210  10.425  18.486  0.00  0.00    +0.000 A 
ENDBRANCH  24  25
ENDBRANCH  20  24
TORSDOF 2
ENDMDL
MODEL 6
REMARK VINA RESULT:      -6.8      2.886      4.477
REMARK  Name = 
REMARK  3 active torsions:
REMARK  status: ('A' for Active; 'I' for Inactive)
REMARK    1  A    between atoms: C_1  and  C_2
REMARK    2  A    between atoms: N_20  and  C_21
REMARK    3  A    between atoms: C_21  and  C_22
REMARK                            x       y       z     vdW  Elec       q    Type
REMARK                         _______ _______ _______ _____ _____    ______ ____
ROOT
ATOM      1  C   UNL     1      -1.293  17.399  24.415  0.00  0.00    +0.000 C 
ATOM      2  C   UNL     1      -2.234  16.296  23.949  0.00  0.00    +0.000 C 
ATOM      3  N   UNL     1      -3.632  16.636  24.073  0.00  0.00    +0.000 N 
ATOM      4  C   UNL     1      -4.505  15.674  23.555  0.00  0.00    +0.000 A 
ATOM      5  N   UNL     1      -5.709  15.716  24.138  0.00  0.00    +0.000 NA
ATOM      6  C   UNL     1      -6.633  14.892  23.645  0.00  0.00    +0.000 A 
ATOM      7  N   UNL     1      -6.469  14.043  22.625  0.00  0.00    +0.000 NA
ATOM      8  C   UNL     1      -5.270  13.965  21.991  0.00  0.00    +0.000 A 
ATOM      9  N   UNL     1      -5.358  13.135  20.864  0.00  0.00    +0.000 N 
ATOM     10  C   UNL     1      -6.579  12.410  20.454  0.00  0.00    +0.000 C 
ATOM     11  C   UNL     1      -6.637  12.294  18.893  0.00  0.00    +0.000 C 
ATOM     12  C   UNL     1      -5.354  11.821  18.244  0.00  0.00    +0.000 A 
ATOM     13  C   UNL     1      -5.237  11.470  16.894  0.00  0.00    +0.000 A 
ATOM     14  C   UNL     1      -3.973  11.234  16.314  0.00  0.00    +0.000 A 
ATOM     15  C   UNL     1      -2.808  11.321  17.066  0.00  0.00    +0.000 A 
ATOM     16  C   UNL     1      -2.916  11.632  18.409  0.00  0.00    +0.000 A 
ATOM     17  C   UNL     1      -4.184  11.895  18.982  0.00  0.00    +0.000 A 
ATOM     18  C   UNL     1      -4.192  12.514  20.333  0.00  0.00    +0.000 C 
ATOM     19  C   UNL     1      -4.161  14.782  22.483  0.00  0.00    +0.000 A 
ATOM     20  N   UNL     1      -2.727  14.889  22.075  0.00  0.00    +0.000 N 
ATOM     21  C   UNL     1      -1.959  15.975  22.496  0.00  0.00    +0.000 C 
ATOM     22  O   UNL     1      -1.090  16.517  21.818  0.00  0.00    +0.000 OA
ATOM     23  H   UNL     1      -3.979  16.981  24.960  0.00  0.00    +0.000 HD
ENDROOT
BRANCH  20  24
ATOM     24  C   UNL     1      -2.056  14.064  21.141  0.00  0.00    +0.000 C 
BRANCH  24  25
ATOM     25  C   UNL     1      -1.148  12.923  21.516  0.00  0.00    +0.000 A 
ATOM     26  C   UNL     1      -1.462  12.088  22.599  0.00  0.00    +0.000 A 
ATOM     27  C   UNL     1      -0.778  10.888  22.767  0.00  0.00    +0.000 A 
ATOM     28  C   UNL     1       0.224  10.534  21.863  0.00  0.00    +0.000 A 
ATOM     29 BR   UNL     1       1.126   8.887  22.069  0.00  0.00    +0.000 Br
ATOM     30  C   UNL     1       0.551  11.362  20.794  0.00  0.00    +0.000 A 
ATOM     31  C   UNL     1      -0.134  12.556  20.620  0.00  0.00    +0.000 A 
ENDBRANCH  24  25
ENDBRANCH  20  24
TORSDOF 2
ENDMDL
MODEL 7
REMARK VINA RESULT:      -6.8      2.742      6.081
REMARK  Name = 
REMARK  3 active torsions:
REMARK  status: ('A' for Active; 'I' for Inactive)
REMARK    1  A    between atoms: C_1  and  C_2
REMARK    2  A    between atoms: N_20  and  C_21
REMARK    3  A    between atoms: C_21  and  C_22
REMARK                            x       y       z     vdW  Elec       q    Type
REMARK                         _______ _______ _______ _____ _____    ______ ____
ROOT
ATOM      1  C   UNL     1       1.481   9.037  17.704  0.00  0.00    +0.000 C 
ATOM      2  C   UNL     1       0.408  10.068  18.026  0.00  0.00    +0.000 C 
ATOM      3  N   UNL     1      -0.936   9.602  17.781  0.00  0.00    +0.000 N 
ATOM      4  C   UNL     1      -1.936  10.499  18.169  0.00  0.00    +0.000 A 
ATOM      5  N   UNL     1      -3.067  10.331  17.474  0.00  0.00    +0.000 NA
ATOM      6  C   UNL     1      -4.102  11.087  17.837  0.00  0.00    +0.000 A 
ATOM      7  N   UNL     1      -4.114  11.983  18.830  0.00  0.00    +0.000 NA
ATOM      8  C   UNL     1      -2.996  12.189  19.574  0.00  0.00    +0.000 A 
ATOM      9  N   UNL     1      -3.268  13.047  20.650  0.00  0.00    +0.000 N 
ATOM     10  C   UNL     1      -4.580  13.674  20.906  0.00  0.00    +0.000 C 
ATOM     11  C   UNL     1      -4.806  13.840  22.447  0.00  0.00    +0.000 C 
ATOM     12  C   UNL     1      -3.640  14.448  23.198  0.00  0.00    +0.000 A 
ATOM     13  C   UNL     1      -3.690  14.855  24.536  0.00  0.00    +0.000 A 
ATOM     14  C   UNL     1      -2.516  15.222  25.225  0.00  0.00    +0.000 A 
ATOM     15  C   UNL     1      -1.277  15.212  24.595  0.00  0.00    +0.000 A 
ATOM     16  C   UNL     1      -1.222  14.845  23.263  0.00  0.00    +0.000 A 
ATOM     17  C   UNL     1      -2.399  14.452  22.581  0.00  0.00    +0.000 A 
ATOM     18  C   UNL     1      -2.218  13.786  21.265  0.00  0.00    +0.000 C 
ATOM     19  C   UNL     1      -1.778  11.456  19.229  0.00  0.00    +0.000 A 
ATOM     20  N   UNL     1      -0.389  11.490  19.780  0.00  0.00    +0.000 N 
ATOM     21  C   UNL     1       0.506  10.462  19.483  0.00  0.00    +0.000 C 
ATOM     22  O   UNL     1       1.346  10.024  20.267  0.00  0.00    +0.000 OA
ATOM     23  H   UNL     1      -1.161   9.196  16.880  0.00  0.00    +0.000 HD
ENDROOT
BRANCH  20  24
ATOM     24  C   UNL     1       0.112  12.404  20.737  0.00  0.00    +0.000 C 
BRANCH  24  25
ATOM     25  C   UNL     1       1.085  13.511  20.427  0.00  0.00    +0.000 A 
ATOM     26  C   UNL     1       2.419  13.427  20.853  0.00  0.00    +0.000 A 
ATOM     27  C   UNL     1       3.366  14.305  20.334  0.00  0.00    +0.000 A 
ATOM     28  C   UNL     1       2.975  15.270  19.405  0.00  0.00    +0.000 A 
ATOM     29 BR   UNL     1       4.267  16.437  18.673  0.00  0.00    +0.000 Br
ATOM     30  C   UNL     1       1.651  15.369  18.988  0.00  0.00    +0.000 A 
ATOM     31  C   UNL     1       0.706  14.490  19.498  0.00  0.00    +0.000 A 
ENDBRANCH  24  25
ENDBRANCH  20  24
TORSDOF 2
ENDMDL
MODEL 8
REMARK VINA RESULT:      -6.7      2.958      5.935
REMARK  Name = 
REMARK  3 active torsions:
REMARK  status: ('A' for Active; 'I' for Inactive)
REMARK    1  A    between atoms: C_1  and  C_2
REMARK    2  A    between atoms: N_20  and  C_21
REMARK    3  A    between atoms: C_21  and  C_22
REMARK                            x       y       z     vdW  Elec       q    Type
REMARK                         _______ _______ _______ _____ _____    ______ ____
ROOT
ATOM      1  C   UNL     1       1.975   9.073  17.827  0.00  0.00    +0.000 C 
ATOM      2  C   UNL     1       0.733   9.951  17.882  0.00  0.00    +0.000 C 
ATOM      3  N   UNL     1      -0.437   9.337  17.299  0.00  0.00    +0.000 N 
ATOM      4  C   UNL     1      -1.609  10.088  17.434  0.00  0.00    +0.000 A 
ATOM      5  N   UNL     1      -2.500   9.816  16.473  0.00  0.00    +0.000 NA
ATOM      6  C   UNL     1      -3.681  10.424  16.573  0.00  0.00    +0.000 A 
ATOM      7  N   UNL     1      -4.055  11.266  17.543  0.00  0.00    +0.000 NA
ATOM      8  C   UNL     1      -3.194  11.571  18.548  0.00  0.00    +0.000 A 
ATOM      9  N   UNL     1      -3.833  12.340  19.532  0.00  0.00    +0.000 N 
ATOM     10  C   UNL     1      -5.237  12.792  19.457  0.00  0.00    +0.000 C 
ATOM     11  C   UNL     1      -5.859  12.858  20.894  0.00  0.00    +0.000 C 
ATOM     12  C   UNL     1      -5.004  13.567  21.923  0.00  0.00    +0.000 A 
ATOM     13  C   UNL     1      -5.437  13.904  23.210  0.00  0.00    +0.000 A 
ATOM     14  C   UNL     1      -4.530  14.378  24.179  0.00  0.00    +0.000 A 
ATOM     15  C   UNL     1      -3.183  14.548  23.882  0.00  0.00    +0.000 A 
ATOM     16  C   UNL     1      -2.750  14.251  22.602  0.00  0.00    +0.000 A 
ATOM     17  C   UNL     1      -3.660  13.750  21.640  0.00  0.00    +0.000 A 
ATOM     18  C   UNL     1      -3.073  13.172  20.402  0.00  0.00    +0.000 C 
ATOM     19  C   UNL     1      -1.844  11.007  18.512  0.00  0.00    +0.000 A 
ATOM     20  N   UNL     1      -0.653  11.185  19.397  0.00  0.00    +0.000 N 
ATOM     21  C   UNL     1       0.413  10.287  19.322  0.00  0.00    +0.000 C 
ATOM     22  O   UNL     1       1.080   9.918  20.286  0.00  0.00    +0.000 OA
ATOM     23  H   UNL     1      -0.377   8.948  16.365  0.00  0.00    +0.000 HD
ENDROOT
BRANCH  20  24
ATOM     24  C   UNL     1      -0.527  12.108  20.462  0.00  0.00    +0.000 C 
BRANCH  24  25
ATOM     25  C   UNL     1       0.310  13.358  20.408  0.00  0.00    +0.000 A 
ATOM     26  C   UNL     1       1.393  13.529  21.283  0.00  0.00    +0.000 A 
ATOM     27  C   UNL     1       2.317  14.543  21.047  0.00  0.00    +0.000 A 
ATOM     28  C   UNL     1       2.147  15.389  19.951  0.00  0.00    +0.000 A 
ATOM     29 BR   UNL     1       3.421  16.742  19.611  0.00  0.00    +0.000 Br
ATOM     30  C   UNL     1       1.067  15.236  19.087  0.00  0.00    +0.000 A 
ATOM     31  C   UNL     1       0.149  14.221  19.315  0.00  0.00    +0.000 A 
ENDBRANCH  24  25
ENDBRANCH  20  24
TORSDOF 2
ENDMDL
MODEL 9
REMARK VINA RESULT:      -6.7      2.625      4.159
REMARK  Name = 
REMARK  3 active torsions:
REMARK  status: ('A' for Active; 'I' for Inactive)
REMARK    1  A    between atoms: C_1  and  C_2
REMARK    2  A    between atoms: N_20  and  C_21
REMARK    3  A    between atoms: C_21  and  C_22
REMARK                            x       y       z     vdW  Elec       q    Type
REMARK                         _______ _______ _______ _____ _____    ______ ____
ROOT
ATOM      1  C   UNL     1      -1.495  15.974  24.920  0.00  0.00    +0.000 C 
ATOM      2  C   UNL     1      -2.364  14.953  24.198  0.00  0.00    +0.000 C 
ATOM      3  N   UNL     1      -3.777  15.240  24.272  0.00  0.00    +0.000 N 
ATOM      4  C   UNL     1      -4.580  14.369  23.528  0.00  0.00    +0.000 A 
ATOM      5  N   UNL     1      -5.824  14.285  24.014  0.00  0.00    +0.000 NA
ATOM      6  C   UNL     1      -6.683  13.544  23.316  0.00  0.00    +0.000 A 
ATOM      7  N   UNL     1      -6.418  12.891  22.179  0.00  0.00    +0.000 NA
ATOM      8  C   UNL     1      -5.175  12.949  21.635  0.00  0.00    +0.000 A 
ATOM      9  N   UNL     1      -5.155  12.329  20.377  0.00  0.00    +0.000 N 
ATOM     10  C   UNL     1      -6.319  11.666  19.755  0.00  0.00    +0.000 C 
ATOM     11  C   UNL     1      -6.260  11.826  18.197  0.00  0.00    +0.000 C 
ATOM     12  C   UNL     1      -4.918  11.498  17.576  0.00  0.00    +0.000 A 
ATOM     13  C   UNL     1      -4.692  11.393  16.199  0.00  0.00    +0.000 A 
ATOM     14  C   UNL     1      -3.384  11.287  15.686  0.00  0.00    +0.000 A 
ATOM     15  C   UNL     1      -2.279  11.260  16.529  0.00  0.00    +0.000 A 
ATOM     16  C   UNL     1      -2.494  11.328  17.894  0.00  0.00    +0.000 A 
ATOM     17  C   UNL     1      -3.808  11.462  18.404  0.00  0.00    +0.000 A 
ATOM     18  C   UNL     1      -3.934  11.834  19.837  0.00  0.00    +0.000 C 
ATOM     19  C   UNL     1      -4.131  13.687  22.347  0.00  0.00    +0.000 A 
ATOM     20  N   UNL     1      -2.676  13.891  22.075  0.00  0.00    +0.000 N 
ATOM     21  C   UNL     1      -1.975  14.899  22.737  0.00  0.00    +0.000 C 
ATOM     22  O   UNL     1      -1.076  15.568  22.233  0.00  0.00    +0.000 OA
ATOM     23  H   UNL     1      -4.199  15.417  25.176  0.00  0.00    +0.000 HD
ENDROOT
BRANCH  20  24
ATOM     24  C   UNL     1      -1.912  13.255  21.066  0.00  0.00    +0.000 C 
BRANCH  24  25
ATOM     25  C   UNL     1      -0.948  12.127  21.316  0.00  0.00    +0.000 A 
ATOM     26  C   UNL     1      -1.174  11.212  22.355  0.00  0.00    +0.000 A 
ATOM     27  C   UNL     1      -0.442  10.029  22.406  0.00  0.00    +0.000 A 
ATOM     28  C   UNL     1       0.521   9.773  21.429  0.00  0.00    +0.000 A 
ATOM     29 BR   UNL     1       1.488   8.151  21.477  0.00  0.00    +0.000 Br
ATOM     30  C   UNL     1       0.762  10.682  20.403  0.00  0.00    +0.000 A 
ATOM     31  C   UNL     1       0.028  11.858  20.346  0.00  0.00    +0.000 A 
ENDBRANCH  24  25
ENDBRANCH  20  24
TORSDOF 2
ENDMDL
