MODEL 1
REMARK VINA RESULT:      -8.4      0.000      0.000
REMARK  Name = 
REMARK  10 active torsions:
REMARK  status: ('A' for Active; 'I' for Inactive)
REMARK    1  A    between atoms: C_1  and  O_2
REMARK    2  A    between atoms: O_2  and  C_3
REMARK    3  A    between atoms: C_8  and  O_9
REMARK    4  A    between atoms: O_9  and  C_10
REMARK    5  A    between atoms: C_13  and  C_14
REMARK    6  A    between atoms: C_14  and  C_15
REMARK    7  A    between atoms: C_15  and  C_16
REMARK    8  A    between atoms: C_16  and  C_17
REMARK    9  A    between atoms: C_17  and  N_18
REMARK   10  A    between atoms: N_18  and  C_19
REMARK                            x       y       z     vdW  Elec       q    Type
REMARK                         _______ _______ _______ _____ _____    ______ ____
ROOT
ATOM      1  C   UNL     1       1.225   3.893  19.368  0.00  0.00    +0.000 C 
ENDROOT
BRANCH   1   2
ATOM      2  C   UNL     1       1.882   2.617  19.908  0.00  0.00    +0.000 C 
BRANCH   2  11
ATOM      3  C   UNL     1       5.647   4.935  16.258  0.00  0.00    +0.000 A 
ATOM      4  C   UNL     1       4.469   4.173  16.244  0.00  0.00    +0.000 A 
ATOM      5  C   UNL     1       4.126   3.454  17.372  0.00  0.00    +0.000 A 
ATOM      6  C   UNL     1       4.948   3.477  18.485  0.00  0.00    +0.000 A 
ATOM      7  C   UNL     1       6.124   4.201  18.538  0.00  0.00    +0.000 A 
ATOM      8  C   UNL     1       6.486   4.940  17.406  0.00  0.00    +0.000 A 
ATOM      9  C   UNL     1       4.339   2.655  19.521  0.00  0.00    +0.000 C 
ATOM     10  O   UNL     1       4.828   2.484  20.623  0.00  0.00    +0.000 OA
ATOM     11  C   UNL     1       3.013   2.105  19.019  0.00  0.00    +0.000 C 
ATOM     12  C   UNL     1       2.905   2.619  17.565  0.00  0.00    +0.000 C 
BRANCH   3  14
ATOM     13  C   UNL     1       6.652   4.913  14.110  0.00  0.00    +0.000 C 
ATOM     14  O   UNL     1       6.066   5.664  15.169  0.00  0.00    +0.000 OA
ENDBRANCH   3  14
BRANCH   8  15
ATOM     15  O   UNL     1       7.624   5.706  17.324  0.00  0.00    +0.000 OA
ATOM     16  C   UNL     1       7.740   6.792  18.236  0.00  0.00    +0.000 C 
ENDBRANCH   8  15
ENDBRANCH   2  11
ENDBRANCH   1   2
BRANCH   1  17
ATOM     17  C   UNL     1       1.409   5.098  20.295  0.00  0.00    +0.000 C 
BRANCH  17  18
ATOM     18  C   UNL     1       2.641   5.921  19.917  0.00  0.00    +0.000 C 
BRANCH  18  19
ATOM     19  N   UNL     1       2.517   7.290  20.401  0.00  0.00    +0.000 NA
ATOM     20  H   UNL     1       3.409   7.773  20.296  0.00  0.00    +0.000 HD
BRANCH  19  21
ATOM     21  C   UNL     1       1.483   8.056  19.675  0.00  0.00    +0.000 C 
ATOM     22  C   UNL     1       2.075   8.730  18.411  0.00  0.00    +0.000 C 
ATOM     23  C   UNL     1       1.288   9.951  17.957  0.00  0.00    +0.000 C 
ATOM     24  C   UNL     1       1.212  10.979  19.082  0.00  0.00    +0.000 C 
ATOM     25  C   UNL     1       0.718  10.360  20.358  0.00  0.00    +0.000 A 
ATOM     26  N   UNL     1       0.102  11.198  21.265  0.00  0.00    +0.000 N 
ATOM     27  C   UNL     1      -0.444  10.787  22.453  0.00  0.00    +0.000 A 
ATOM     28  O   UNL     1      -0.988  11.557  23.233  0.00  0.00    +0.000 OA
ATOM     29  C   UNL     1      -0.350   9.338  22.743  0.00  0.00    +0.000 A 
ATOM     30  C   UNL     1       0.252   8.526  21.863  0.00  0.00    +0.000 A 
ATOM     31  C   UNL     1       0.822   9.042  20.623  0.00  0.00    +0.000 A 
ATOM     32  H   UNL     1       0.024  12.188  21.071  0.00  0.00    +0.000 HD
ENDBRANCH  19  21
ENDBRANCH  18  19
ENDBRANCH  17  18
ENDBRANCH   1  17
TORSDOF 8
ENDMDL
MODEL 2
REMARK VINA RESULT:      -7.8      2.963      9.310
REMARK  Name = 
REMARK  10 active torsions:
REMARK  status: ('A' for Active; 'I' for Inactive)
REMARK    1  A    between atoms: C_1  and  O_2
REMARK    2  A    between atoms: O_2  and  C_3
REMARK    3  A    between atoms: C_8  and  O_9
REMARK    4  A    between atoms: O_9  and  C_10
REMARK    5  A    between atoms: C_13  and  C_14
REMARK    6  A    between atoms: C_14  and  C_15
REMARK    7  A    between atoms: C_15  and  C_16
REMARK    8  A    between atoms: C_16  and  C_17
REMARK    9  A    between atoms: C_17  and  N_18
REMARK   10  A    between atoms: N_18  and  C_19
REMARK                            x       y       z     vdW  Elec       q    Type
REMARK                         _______ _______ _______ _____ _____    ______ ____
ROOT
ATOM      1  C   UNL     1       2.206   7.739  19.287  0.00  0.00    +0.000 C 
ENDROOT
BRANCH   1   2
ATOM      2  C   UNL     1       2.334   8.608  18.031  0.00  0.00    +0.000 C 
BRANCH   2  11
ATOM      3  C   UNL     1      -0.243  12.142  21.738  0.00  0.00    +0.000 A 
ATOM      4  C   UNL     1      -0.513  10.981  20.999  0.00  0.00    +0.000 A 
ATOM      5  C   UNL     1       0.253  10.708  19.882  0.00  0.00    +0.000 A 
ATOM      6  C   UNL     1       1.254  11.583  19.497  0.00  0.00    +0.000 A 
ATOM      7  C   UNL     1       1.545  12.745  20.186  0.00  0.00    +0.000 A 
ATOM      8  C   UNL     1       0.784  13.035  21.325  0.00  0.00    +0.000 A 
ATOM      9  C   UNL     1       1.903  11.043  18.312  0.00  0.00    +0.000 C 
ATOM     10  O   UNL     1       2.831  11.588  17.740  0.00  0.00    +0.000 OA
ATOM     11  C   UNL     1       1.275   9.705  17.953  0.00  0.00    +0.000 C 
ATOM     12  C   UNL     1       0.145   9.516  18.992  0.00  0.00    +0.000 C 
BRANCH   3  14
ATOM     13  C   UNL     1      -2.021  11.600  23.211  0.00  0.00    +0.000 C 
ATOM     14  O   UNL     1      -0.970  12.492  22.852  0.00  0.00    +0.000 OA
ENDBRANCH   3  14
BRANCH   8  15
ATOM     15  O   UNL     1       0.968  14.152  22.104  0.00  0.00    +0.000 OA
ATOM     16  C   UNL     1       1.327  15.356  21.435  0.00  0.00    +0.000 C 
ENDBRANCH   8  15
ENDBRANCH   2  11
ENDBRANCH   1   2
BRANCH   1  17
ATOM     17  C   UNL     1       2.363   6.243  18.997  0.00  0.00    +0.000 C 
BRANCH  17  18
ATOM     18  C   UNL     1       3.420   5.982  17.923  0.00  0.00    +0.000 C 
BRANCH  18  19
ATOM     19  N   UNL     1       3.834   4.585  17.934  0.00  0.00    +0.000 NA
ATOM     20  H   UNL     1       3.556   4.139  17.059  0.00  0.00    +0.000 HD
BRANCH  19  21
ATOM     21  C   UNL     1       5.294   4.428  18.096  0.00  0.00    +0.000 C 
ATOM     22  C   UNL     1       5.825   5.315  19.250  0.00  0.00    +0.000 C 
ATOM     23  C   UNL     1       7.301   5.661  19.111  0.00  0.00    +0.000 C 
ATOM     24  C   UNL     1       7.556   6.364  17.781  0.00  0.00    +0.000 C 
ATOM     25  C   UNL     1       6.990   5.583  16.630  0.00  0.00    +0.000 A 
ATOM     26  N   UNL     1       7.572   5.777  15.394  0.00  0.00    +0.000 N 
ATOM     27  C   UNL     1       7.206   5.111  14.253  0.00  0.00    +0.000 A 
ATOM     28  O   UNL     1       7.747   5.304  13.173  0.00  0.00    +0.000 OA
ATOM     29  C   UNL     1       6.113   4.123  14.400  0.00  0.00    +0.000 A 
ATOM     30  C   UNL     1       5.546   3.940  15.601  0.00  0.00    +0.000 A 
ATOM     31  C   UNL     1       5.983   4.698  16.769  0.00  0.00    +0.000 A 
ATOM     32  H   UNL     1       8.326   6.442  15.285  0.00  0.00    +0.000 HD
ENDBRANCH  19  21
ENDBRANCH  18  19
ENDBRANCH  17  18
ENDBRANCH   1  17
TORSDOF 8
ENDMDL
MODEL 3
REMARK VINA RESULT:      -7.7      3.290      9.061
REMARK  Name = 
REMARK  10 active torsions:
REMARK  status: ('A' for Active; 'I' for Inactive)
REMARK    1  A    between atoms: C_1  and  O_2
REMARK    2  A    between atoms: O_2  and  C_3
REMARK    3  A    between atoms: C_8  and  O_9
REMARK    4  A    between atoms: O_9  and  C_10
REMARK    5  A    between atoms: C_13  and  C_14
REMARK    6  A    between atoms: C_14  and  C_15
REMARK    7  A    between atoms: C_15  and  C_16
REMARK    8  A    between atoms: C_16  and  C_17
REMARK    9  A    between atoms: C_17  and  N_18
REMARK   10  A    between atoms: N_18  and  C_19
REMARK                            x       y       z     vdW  Elec       q    Type
REMARK                         _______ _______ _______ _____ _____    ______ ____
ROOT
ATOM      1  C   UNL     1       0.757   8.195  20.961  0.00  0.00    +0.000 C 
ENDROOT
BRANCH   1   2
ATOM      2  C   UNL     1       0.779   9.680  21.338  0.00  0.00    +0.000 C 
BRANCH   2  11
ATOM      3  C   UNL     1      -2.880  10.403  16.984  0.00  0.00    +0.000 A 
ATOM      4  C   UNL     1      -1.606   9.873  17.238  0.00  0.00    +0.000 A 
ATOM      5  C   UNL     1      -0.915  10.303  18.353  0.00  0.00    +0.000 A 
ATOM      6  C   UNL     1      -1.471  11.256  19.189  0.00  0.00    +0.000 A 
ATOM      7  C   UNL     1      -2.715  11.815  18.970  0.00  0.00    +0.000 A 
ATOM      8  C   UNL     1      -3.434  11.388  17.847  0.00  0.00    +0.000 A 
ATOM      9  C   UNL     1      -0.542  11.505  20.282  0.00  0.00    +0.000 C 
ATOM     10  O   UNL     1      -0.756  12.294  21.185  0.00  0.00    +0.000 OA
ATOM     11  C   UNL     1       0.675  10.607  20.129  0.00  0.00    +0.000 C 
ATOM     12  C   UNL     1       0.426   9.836  18.811  0.00  0.00    +0.000 C 
BRANCH   3  14
ATOM     13  C   UNL     1      -2.946  10.089  14.634  0.00  0.00    +0.000 C 
ATOM     14  O   UNL     1      -3.624  10.039  15.886  0.00  0.00    +0.000 OA
ENDBRANCH   3  14
BRANCH   8  15
ATOM     15  O   UNL     1      -4.681  11.857  17.513  0.00  0.00    +0.000 OA
ATOM     16  C   UNL     1      -5.457  12.434  18.557  0.00  0.00    +0.000 C 
ENDBRANCH   8  15
ENDBRANCH   2  11
ENDBRANCH   1   2
BRANCH   1  17
ATOM     17  C   UNL     1       2.122   7.677  20.497  0.00  0.00    +0.000 C 
BRANCH  17  18
ATOM     18  C   UNL     1       2.007   6.320  19.801  0.00  0.00    +0.000 C 
BRANCH  18  19
ATOM     19  N   UNL     1       2.147   6.466  18.357  0.00  0.00    +0.000 NA
ATOM     20  H   UNL     1       2.854   7.173  18.153  0.00  0.00    +0.000 HD
BRANCH  19  21
ATOM     21  C   UNL     1       2.541   5.206  17.696  0.00  0.00    +0.000 C 
ATOM     22  C   UNL     1       1.697   4.015  18.218  0.00  0.00    +0.000 C 
ATOM     23  C   UNL     1       2.390   2.670  18.053  0.00  0.00    +0.000 C 
ATOM     24  C   UNL     1       3.738   2.679  18.767  0.00  0.00    +0.000 C 
ATOM     25  C   UNL     1       4.570   3.860  18.356  0.00  0.00    +0.000 A 
ATOM     26  N   UNL     1       5.938   3.736  18.474  0.00  0.00    +0.000 N 
ATOM     27  C   UNL     1       6.838   4.700  18.101  0.00  0.00    +0.000 A 
ATOM     28  O   UNL     1       8.048   4.555  18.214  0.00  0.00    +0.000 OA
ATOM     29  C   UNL     1       6.262   5.941  17.534  0.00  0.00    +0.000 A 
ATOM     30  C   UNL     1       4.932   6.062  17.426  0.00  0.00    +0.000 A 
ATOM     31  C   UNL     1       4.037   4.994  17.858  0.00  0.00    +0.000 A 
ATOM     32  H   UNL     1       6.342   2.888  18.849  0.00  0.00    +0.000 HD
ENDBRANCH  19  21
ENDBRANCH  18  19
ENDBRANCH  17  18
ENDBRANCH   1  17
TORSDOF 8
ENDMDL
MODEL 4
REMARK VINA RESULT:      -7.6      2.632      8.494
REMARK  Name = 
REMARK  10 active torsions:
REMARK  status: ('A' for Active; 'I' for Inactive)
REMARK    1  A    between atoms: C_1  and  O_2
REMARK    2  A    between atoms: O_2  and  C_3
REMARK    3  A    between atoms: C_8  and  O_9
REMARK    4  A    between atoms: O_9  and  C_10
REMARK    5  A    between atoms: C_13  and  C_14
REMARK    6  A    between atoms: C_14  and  C_15
REMARK    7  A    between atoms: C_15  and  C_16
REMARK    8  A    between atoms: C_16  and  C_17
REMARK    9  A    between atoms: C_17  and  N_18
REMARK   10  A    between atoms: N_18  and  C_19
REMARK                            x       y       z     vdW  Elec       q    Type
REMARK                         _______ _______ _______ _____ _____    ______ ____
ROOT
ATOM      1  C   UNL     1       1.983   4.775  18.992  0.00  0.00    +0.000 C 
ENDROOT
BRANCH   1   2
ATOM      2  C   UNL     1       1.990   6.002  18.073  0.00  0.00    +0.000 C 
BRANCH   2  11
ATOM      3  C   UNL     1       0.029  11.208  19.460  0.00  0.00    +0.000 A 
ATOM      4  C   UNL     1       0.863  10.593  18.515  0.00  0.00    +0.000 A 
ATOM      5  C   UNL     1       1.414   9.362  18.813  0.00  0.00    +0.000 A 
ATOM      6  C   UNL     1       1.156   8.763  20.033  0.00  0.00    +0.000 A 
ATOM      7  C   UNL     1       0.353   9.339  20.999  0.00  0.00    +0.000 A 
ATOM      8  C   UNL     1      -0.220  10.584  20.714  0.00  0.00    +0.000 A 
ATOM      9  C   UNL     1       1.843   7.481  20.069  0.00  0.00    +0.000 C 
ATOM     10  O   UNL     1       1.800   6.716  21.016  0.00  0.00    +0.000 OA
ATOM     11  C   UNL     1       2.557   7.250  18.746  0.00  0.00    +0.000 C 
ATOM     12  C   UNL     1       2.292   8.537  17.932  0.00  0.00    +0.000 C 
BRANCH   3  14
ATOM     13  C   UNL     1       0.359  13.500  18.948  0.00  0.00    +0.000 C 
ATOM     14  O   UNL     1      -0.544  12.440  19.246  0.00  0.00    +0.000 OA
ENDBRANCH   3  14
BRANCH   8  15
ATOM     15  O   UNL     1      -1.040  11.266  21.580  0.00  0.00    +0.000 OA
ATOM     16  C   UNL     1      -1.004  10.876  22.948  0.00  0.00    +0.000 C 
ENDBRANCH   8  15
ENDBRANCH   2  11
ENDBRANCH   1   2
BRANCH   1  17
ATOM     17  C   UNL     1       1.684   3.472  18.244  0.00  0.00    +0.000 C 
BRANCH  17  18
ATOM     18  C   UNL     1       2.958   2.829  17.694  0.00  0.00    +0.000 C 
BRANCH  18  19
ATOM     19  N   UNL     1       3.730   3.792  16.920  0.00  0.00    +0.000 NA
ATOM     20  H   UNL     1       3.371   4.732  17.089  0.00  0.00    +0.000 HD
BRANCH  19  21
ATOM     21  C   UNL     1       5.167   3.772  17.263  0.00  0.00    +0.000 C 
ATOM     22  C   UNL     1       5.437   4.551  18.575  0.00  0.00    +0.000 C 
ATOM     23  C   UNL     1       6.865   5.068  18.683  0.00  0.00    +0.000 C 
ATOM     24  C   UNL     1       7.195   5.964  17.493  0.00  0.00    +0.000 C 
ATOM     25  C   UNL     1       6.877   5.285  16.191  0.00  0.00    +0.000 A 
ATOM     26  N   UNL     1       7.579   5.701  15.079  0.00  0.00    +0.000 N 
ATOM     27  C   UNL     1       7.443   5.156  13.828  0.00  0.00    +0.000 A 
ATOM     28  O   UNL     1       8.086   5.545  12.863  0.00  0.00    +0.000 OA
ATOM     29  C   UNL     1       6.470   4.046  13.707  0.00  0.00    +0.000 A 
ATOM     30  C   UNL     1       5.786   3.646  14.788  0.00  0.00    +0.000 A 
ATOM     31  C   UNL     1       5.977   4.287  16.085  0.00  0.00    +0.000 A 
ATOM     32  H   UNL     1       8.253   6.451  15.154  0.00  0.00    +0.000 HD
ENDBRANCH  19  21
ENDBRANCH  18  19
ENDBRANCH  17  18
ENDBRANCH   1  17
TORSDOF 8
ENDMDL
MODEL 5
REMARK VINA RESULT:      -7.5      5.160      8.360
REMARK  Name = 
REMARK  10 active torsions:
REMARK  status: ('A' for Active; 'I' for Inactive)
REMARK    1  A    between atoms: C_1  and  O_2
REMARK    2  A    between atoms: O_2  and  C_3
REMARK    3  A    between atoms: C_8  and  O_9
REMARK    4  A    between atoms: O_9  and  C_10
REMARK    5  A    between atoms: C_13  and  C_14
REMARK    6  A    between atoms: C_14  and  C_15
REMARK    7  A    between atoms: C_15  and  C_16
REMARK    8  A    between atoms: C_16  and  C_17
REMARK    9  A    between atoms: C_17  and  N_18
REMARK   10  A    between atoms: N_18  and  C_19
REMARK                            x       y       z     vdW  Elec       q    Type
REMARK                         _______ _______ _______ _____ _____    ______ ____
ROOT
ATOM      1  C   UNL     1       7.469   6.717  18.200  0.00  0.00    +0.000 C 
ENDROOT
BRANCH   1   2
ATOM      2  C   UNL     1       7.223   5.739  17.046  0.00  0.00    +0.000 C 
BRANCH   2  11
ATOM      3  C   UNL     1       2.286   7.112  19.617  0.00  0.00    +0.000 A 
ATOM      4  C   UNL     1       3.231   6.076  19.594  0.00  0.00    +0.000 A 
ATOM      5  C   UNL     1       4.056   5.950  18.494  0.00  0.00    +0.000 A 
ATOM      6  C   UNL     1       3.931   6.826  17.429  0.00  0.00    +0.000 A 
ATOM      7  C   UNL     1       3.005   7.851  17.402  0.00  0.00    +0.000 A 
ATOM      8  C   UNL     1       2.163   7.998  18.511  0.00  0.00    +0.000 A 
ATOM      9  C   UNL     1       4.928   6.475  16.428  0.00  0.00    +0.000 C 
ATOM     10  O   UNL     1       5.068   7.071  15.375  0.00  0.00    +0.000 OA
ATOM     11  C   UNL     1       5.763   5.307  16.929  0.00  0.00    +0.000 C 
ATOM     12  C   UNL     1       5.140   4.943  18.297  0.00  0.00    +0.000 C 
BRANCH   3  14
ATOM     13  C   UNL     1       1.713   8.384  21.535  0.00  0.00    +0.000 C 
ATOM     14  O   UNL     1       1.417   7.294  20.667  0.00  0.00    +0.000 OA
ENDBRANCH   3  14
BRANCH   8  15
ATOM     15  O   UNL     1       1.203   8.975  18.618  0.00  0.00    +0.000 OA
ATOM     16  C   UNL     1       1.603  10.310  18.333  0.00  0.00    +0.000 C 
ENDBRANCH   8  15
ENDBRANCH   2  11
ENDBRANCH   1   2
BRANCH   1  17
ATOM     17  C   UNL     1       7.865   8.117  17.722  0.00  0.00    +0.000 C 
BRANCH  17  18
ATOM     18  C   UNL     1       8.797   8.814  18.714  0.00  0.00    +0.000 C 
BRANCH  18  19
ATOM     19  N   UNL     1       8.929  10.229  18.394  0.00  0.00    +0.000 NA
ATOM     20  H   UNL     1       8.014  10.679  18.450  0.00  0.00    +0.000 HD
BRANCH  19  21
ATOM     21  C   UNL     1       9.852  10.933  19.307  0.00  0.00    +0.000 C 
ATOM     22  C   UNL     1       9.214  11.122  20.707  0.00  0.00    +0.000 C 
ATOM     23  C   UNL     1       9.806  12.289  21.485  0.00  0.00    +0.000 C 
ATOM     24  C   UNL     1       9.659  13.582  20.689  0.00  0.00    +0.000 C 
ATOM     25  C   UNL     1      10.192  13.432  19.293  0.00  0.00    +0.000 A 
ATOM     26  N   UNL     1      10.618  14.579  18.657  0.00  0.00    +0.000 N 
ATOM     27  C   UNL     1      11.171  14.610  17.402  0.00  0.00    +0.000 A 
ATOM     28  O   UNL     1      11.543  15.646  16.868  0.00  0.00    +0.000 OA
ATOM     29  C   UNL     1      11.306  13.302  16.721  0.00  0.00    +0.000 A 
ATOM     30  C   UNL     1      10.888  12.189  17.340  0.00  0.00    +0.000 A 
ATOM     31  C   UNL     1      10.296  12.240  18.672  0.00  0.00    +0.000 A 
ATOM     32  H   UNL     1      10.539  15.476  19.117  0.00  0.00    +0.000 HD
ENDBRANCH  19  21
ENDBRANCH  18  19
ENDBRANCH  17  18
ENDBRANCH   1  17
TORSDOF 8
ENDMDL
MODEL 6
REMARK VINA RESULT:      -7.5      2.671     10.146
REMARK  Name = 
REMARK  10 active torsions:
REMARK  status: ('A' for Active; 'I' for Inactive)
REMARK    1  A    between atoms: C_1  and  O_2
REMARK    2  A    between atoms: O_2  and  C_3
REMARK    3  A    between atoms: C_8  and  O_9
REMARK    4  A    between atoms: O_9  and  C_10
REMARK    5  A    between atoms: C_13  and  C_14
REMARK    6  A    between atoms: C_14  and  C_15
REMARK    7  A    between atoms: C_15  and  C_16
REMARK    8  A    between atoms: C_16  and  C_17
REMARK    9  A    between atoms: C_17  and  N_18
REMARK   10  A    between atoms: N_18  and  C_19
REMARK                            x       y       z     vdW  Elec       q    Type
REMARK                         _______ _______ _______ _____ _____    ______ ____
ROOT
ATOM      1  C   UNL     1       1.621   8.091  20.696  0.00  0.00    +0.000 C 
ENDROOT
BRANCH   1   2
ATOM      2  C   UNL     1       0.269   8.807  20.805  0.00  0.00    +0.000 C 
BRANCH   2  11
ATOM      3  C   UNL     1      -3.316  13.201  21.642  0.00  0.00    +0.000 A 
ATOM      4  C   UNL     1      -2.379  12.746  20.703  0.00  0.00    +0.000 A 
ATOM      5  C   UNL     1      -1.411  11.849  21.109  0.00  0.00    +0.000 A 
ATOM      6  C   UNL     1      -1.363  11.427  22.427  0.00  0.00    +0.000 A 
ATOM      7  C   UNL     1      -2.257  11.861  23.388  0.00  0.00    +0.000 A 
ATOM      8  C   UNL     1      -3.250  12.766  22.994  0.00  0.00    +0.000 A 
ATOM      9  C   UNL     1      -0.267  10.481  22.566  0.00  0.00    +0.000 C 
ATOM     10  O   UNL     1       0.023   9.930  23.614  0.00  0.00    +0.000 OA
ATOM     11  C   UNL     1       0.399  10.272  21.215  0.00  0.00    +0.000 C 
ATOM     12  C   UNL     1      -0.355  11.225  20.259  0.00  0.00    +0.000 C 
BRANCH   3  14
ATOM     13  C   UNL     1      -3.847  15.376  20.858  0.00  0.00    +0.000 C 
ATOM     14  O   UNL     1      -4.300  14.107  21.321  0.00  0.00    +0.000 OA
ENDBRANCH   3  14
BRANCH   8  15
ATOM     15  O   UNL     1      -4.202  13.274  23.844  0.00  0.00    +0.000 OA
ATOM     16  C   UNL     1      -4.580  12.463  24.951  0.00  0.00    +0.000 C 
ENDBRANCH   8  15
ENDBRANCH   2  11
ENDBRANCH   1   2
BRANCH   1  17
ATOM     17  C   UNL     1       1.519   6.582  20.938  0.00  0.00    +0.000 C 
BRANCH  17  18
ATOM     18  C   UNL     1       2.498   5.800  20.061  0.00  0.00    +0.000 C 
BRANCH  18  19
ATOM     19  N   UNL     1       2.486   6.307  18.695  0.00  0.00    +0.000 NA
ATOM     20  H   UNL     1       3.281   6.931  18.556  0.00  0.00    +0.000 HD
BRANCH  19  21
ATOM     21  C   UNL     1       2.559   5.227  17.690  0.00  0.00    +0.000 C 
ATOM     22  C   UNL     1       1.881   3.935  18.210  0.00  0.00    +0.000 C 
ATOM     23  C   UNL     1       2.399   2.671  17.538  0.00  0.00    +0.000 C 
ATOM     24  C   UNL     1       3.908   2.554  17.726  0.00  0.00    +0.000 C 
ATOM     25  C   UNL     1       4.613   3.813  17.309  0.00  0.00    +0.000 A 
ATOM     26  N   UNL     1       5.930   3.695  16.916  0.00  0.00    +0.000 N 
ATOM     27  C   UNL     1       6.700   4.735  16.465  0.00  0.00    +0.000 A 
ATOM     28  O   UNL     1       7.865   4.594  16.119  0.00  0.00    +0.000 OA
ATOM     29  C   UNL     1       6.035   6.057  16.406  0.00  0.00    +0.000 A 
ATOM     30  C   UNL     1       4.757   6.171  16.793  0.00  0.00    +0.000 A 
ATOM     31  C   UNL     1       4.006   5.016  17.275  0.00  0.00    +0.000 A 
ATOM     32  H   UNL     1       6.390   2.795  16.942  0.00  0.00    +0.000 HD
ENDBRANCH  19  21
ENDBRANCH  18  19
ENDBRANCH  17  18
ENDBRANCH   1  17
TORSDOF 8
ENDMDL
MODEL 7
REMARK VINA RESULT:      -7.4      3.032      9.707
REMARK  Name = 
REMARK  10 active torsions:
REMARK  status: ('A' for Active; 'I' for Inactive)
REMARK    1  A    between atoms: C_1  and  O_2
REMARK    2  A    between atoms: O_2  and  C_3
REMARK    3  A    between atoms: C_8  and  O_9
REMARK    4  A    between atoms: O_9  and  C_10
REMARK    5  A    between atoms: C_13  and  C_14
REMARK    6  A    between atoms: C_14  and  C_15
REMARK    7  A    between atoms: C_15  and  C_16
REMARK    8  A    between atoms: C_16  and  C_17
REMARK    9  A    between atoms: C_17  and  N_18
REMARK   10  A    between atoms: N_18  and  C_19
REMARK                            x       y       z     vdW  Elec       q    Type
REMARK                         _______ _______ _______ _____ _____    ______ ____
ROOT
ATOM      1  C   UNL     1       0.299   8.658  21.360  0.00  0.00    +0.000 C 
ENDROOT
BRANCH   1   2
ATOM      2  C   UNL     1       1.105   9.870  21.842  0.00  0.00    +0.000 C 
BRANCH   2  11
ATOM      3  C   UNL     1      -3.346  11.906  18.859  0.00  0.00    +0.000 A 
ATOM      4  C   UNL     1      -2.073  11.359  18.645  0.00  0.00    +0.000 A 
ATOM      5  C   UNL     1      -1.145  11.409  19.668  0.00  0.00    +0.000 A 
ATOM      6  C   UNL     1      -1.472  12.009  20.871  0.00  0.00    +0.000 A 
ATOM      7  C   UNL     1      -2.709  12.573  21.120  0.00  0.00    +0.000 A 
ATOM      8  C   UNL     1      -3.664  12.527  20.098  0.00  0.00    +0.000 A 
ATOM      9  C   UNL     1      -0.325  11.904  21.762  0.00  0.00    +0.000 C 
ATOM     10  O   UNL     1      -0.311  12.336  22.900  0.00  0.00    +0.000 OA
ATOM     11  C   UNL     1       0.792  11.145  21.063  0.00  0.00    +0.000 C 
ATOM     12  C   UNL     1       0.240  10.856  19.648  0.00  0.00    +0.000 C 
BRANCH   3  14
ATOM     13  C   UNL     1      -5.096  10.721  17.782  0.00  0.00    +0.000 C 
ATOM     14  O   UNL     1      -4.319  11.910  17.886  0.00  0.00    +0.000 OA
ENDBRANCH   3  14
BRANCH   8  15
ATOM     15  O   UNL     1      -4.932  13.044  20.212  0.00  0.00    +0.000 OA
ATOM     16  C   UNL     1      -5.760  12.508  21.238  0.00  0.00    +0.000 C 
ENDBRANCH   8  15
ENDBRANCH   2  11
ENDBRANCH   1   2
BRANCH   1  17
ATOM     17  C   UNL     1       1.177   7.441  21.053  0.00  0.00    +0.000 C 
BRANCH  17  18
ATOM     18  C   UNL     1       2.077   7.681  19.841  0.00  0.00    +0.000 C 
BRANCH  18  19
ATOM     19  N   UNL     1       3.043   6.600  19.691  0.00  0.00    +0.000 NA
ATOM     20  H   UNL     1       2.961   5.957  20.480  0.00  0.00    +0.000 HD
BRANCH  19  21
ATOM     21  C   UNL     1       2.847   5.834  18.443  0.00  0.00    +0.000 C 
ATOM     22  C   UNL     1       1.893   4.634  18.669  0.00  0.00    +0.000 C 
ATOM     23  C   UNL     1       2.092   3.510  17.662  0.00  0.00    +0.000 C 
ATOM     24  C   UNL     1       3.536   3.017  17.700  0.00  0.00    +0.000 C 
ATOM     25  C   UNL     1       4.509   4.153  17.563  0.00  0.00    +0.000 A 
ATOM     26  N   UNL     1       5.755   3.854  17.055  0.00  0.00    +0.000 N 
ATOM     27  C   UNL     1       6.740   4.779  16.825  0.00  0.00    +0.000 A 
ATOM     28  O   UNL     1       7.835   4.480  16.368  0.00  0.00    +0.000 OA
ATOM     29  C   UNL     1       6.401   6.183  17.153  0.00  0.00    +0.000 A 
ATOM     30  C   UNL     1       5.191   6.470  17.651  0.00  0.00    +0.000 A 
ATOM     31  C   UNL     1       4.198   5.426  17.881  0.00  0.00    +0.000 A 
ATOM     32  H   UNL     1       5.993   2.900  16.818  0.00  0.00    +0.000 HD
ENDBRANCH  19  21
ENDBRANCH  18  19
ENDBRANCH  17  18
ENDBRANCH   1  17
TORSDOF 8
ENDMDL
MODEL 8
REMARK VINA RESULT:      -7.4      3.504      9.551
REMARK  Name = 
REMARK  10 active torsions:
REMARK  status: ('A' for Active; 'I' for Inactive)
REMARK    1  A    between atoms: C_1  and  O_2
REMARK    2  A    between atoms: O_2  and  C_3
REMARK    3  A    between atoms: C_8  and  O_9
REMARK    4  A    between atoms: O_9  and  C_10
REMARK    5  A    between atoms: C_13  and  C_14
REMARK    6  A    between atoms: C_14  and  C_15
REMARK    7  A    between atoms: C_15  and  C_16
REMARK    8  A    between atoms: C_16  and  C_17
REMARK    9  A    between atoms: C_17  and  N_18
REMARK   10  A    between atoms: N_18  and  C_19
REMARK                            x       y       z     vdW  Elec       q    Type
REMARK                         _______ _______ _______ _____ _____    ______ ____
ROOT
ATOM      1  C   UNL     1       0.133   9.518  20.681  0.00  0.00    +0.000 C 
ENDROOT
BRANCH   1   2
ATOM      2  C   UNL     1       0.628  10.923  21.046  0.00  0.00    +0.000 C 
BRANCH   2  11
ATOM      3  C   UNL     1      -3.399  11.221  16.977  0.00  0.00    +0.000 A 
ATOM      4  C   UNL     1      -2.003  11.222  17.105  0.00  0.00    +0.000 A 
ATOM      5  C   UNL     1      -1.445  11.577  18.318  0.00  0.00    +0.000 A 
ATOM      6  C   UNL     1      -2.259  11.941  19.376  0.00  0.00    +0.000 A 
ATOM      7  C   UNL     1      -3.638  11.968  19.290  0.00  0.00    +0.000 A 
ATOM      8  C   UNL     1      -4.223  11.606  18.070  0.00  0.00    +0.000 A 
ATOM      9  C   UNL     1      -1.414  12.244  20.522  0.00  0.00    +0.000 C 
ATOM     10  O   UNL     1      -1.845  12.591  21.607  0.00  0.00    +0.000 OA
ATOM     11  C   UNL     1       0.043  12.014  20.153  0.00  0.00    +0.000 C 
ATOM     12  C   UNL     1       0.007  11.605  18.662  0.00  0.00    +0.000 C 
BRANCH   3  14
ATOM     13  C   UNL     1      -3.243  10.183  14.850  0.00  0.00    +0.000 C 
ATOM     14  O   UNL     1      -4.030  10.896  15.798  0.00  0.00    +0.000 OA
ENDBRANCH   3  14
BRANCH   8  15
ATOM     15  O   UNL     1      -5.578  11.585  17.848  0.00  0.00    +0.000 OA
ATOM     16  C   UNL     1      -6.394  12.318  18.755  0.00  0.00    +0.000 C 
ENDBRANCH   8  15
ENDBRANCH   2  11
ENDBRANCH   1   2
BRANCH   1  17
ATOM     17  C   UNL     1       0.969   8.405  21.318  0.00  0.00    +0.000 C 
BRANCH  17  18
ATOM     18  C   UNL     1       1.695   7.566  20.265  0.00  0.00    +0.000 C 
BRANCH  18  19
ATOM     19  N   UNL     1       2.173   6.316  20.840  0.00  0.00    +0.000 NA
ATOM     20  H   UNL     1       1.590   6.062  21.639  0.00  0.00    +0.000 HD
BRANCH  19  21
ATOM     21  C   UNL     1       2.149   5.201  19.871  0.00  0.00    +0.000 C 
ATOM     22  C   UNL     1       1.458   3.952  20.476  0.00  0.00    +0.000 C 
ATOM     23  C   UNL     1       1.891   2.649  19.819  0.00  0.00    +0.000 C 
ATOM     24  C   UNL     1       3.405   2.483  19.923  0.00  0.00    +0.000 C 
ATOM     25  C   UNL     1       4.127   3.701  19.422  0.00  0.00    +0.000 A 
ATOM     26  N   UNL     1       5.413   3.522  18.957  0.00  0.00    +0.000 N 
ATOM     27  C   UNL     1       6.190   4.518  18.425  0.00  0.00    +0.000 A 
ATOM     28  O   UNL     1       7.327   4.324  18.017  0.00  0.00    +0.000 OA
ATOM     29  C   UNL     1       5.569   5.861  18.359  0.00  0.00    +0.000 A 
ATOM     30  C   UNL     1       4.320   6.034  18.815  0.00  0.00    +0.000 A 
ATOM     31  C   UNL     1       3.560   4.924  19.381  0.00  0.00    +0.000 A 
ATOM     32  H   UNL     1       5.842   2.607  18.988  0.00  0.00    +0.000 HD
ENDBRANCH  19  21
ENDBRANCH  18  19
ENDBRANCH  17  18
ENDBRANCH   1  17
TORSDOF 8
ENDMDL
MODEL 9
REMARK VINA RESULT:      -7.4      2.926      9.912
REMARK  Name = 
REMARK  10 active torsions:
REMARK  status: ('A' for Active; 'I' for Inactive)
REMARK    1  A    between atoms: C_1  and  O_2
REMARK    2  A    between atoms: O_2  and  C_3
REMARK    3  A    between atoms: C_8  and  O_9
REMARK    4  A    between atoms: O_9  and  C_10
REMARK    5  A    between atoms: C_13  and  C_14
REMARK    6  A    between atoms: C_14  and  C_15
REMARK    7  A    between atoms: C_15  and  C_16
REMARK    8  A    between atoms: C_16  and  C_17
REMARK    9  A    between atoms: C_17  and  N_18
REMARK   10  A    between atoms: N_18  and  C_19
REMARK                            x       y       z     vdW  Elec       q    Type
REMARK                         _______ _______ _______ _____ _____    ______ ____
ROOT
ATOM      1  C   UNL     1       1.668   8.516  17.991  0.00  0.00    +0.000 C 
ENDROOT
BRANCH   1   2
ATOM      2  C   UNL     1       1.284   8.957  19.408  0.00  0.00    +0.000 C 
BRANCH   2  11
ATOM      3  C   UNL     1      -3.121  12.517  20.303  0.00  0.00    +0.000 A 
ATOM      4  C   UNL     1      -2.279  12.092  19.264  0.00  0.00    +0.000 A 
ATOM      5  C   UNL     1      -1.053  11.541  19.582  0.00  0.00    +0.000 A 
ATOM      6  C   UNL     1      -0.664  11.432  20.906  0.00  0.00    +0.000 A 
ATOM      7  C   UNL     1      -1.454  11.851  21.959  0.00  0.00    +0.000 A 
ATOM      8  C   UNL     1      -2.703  12.407  21.658  0.00  0.00    +0.000 A 
ATOM      9  C   UNL     1       0.650  10.807  20.947  0.00  0.00    +0.000 C 
ATOM     10  O   UNL     1       1.255  10.571  21.978  0.00  0.00    +0.000 OA
ATOM     11  C   UNL     1       1.096  10.468  19.534  0.00  0.00    +0.000 C 
ATOM     12  C   UNL     1      -0.039  11.002  18.629  0.00  0.00    +0.000 C 
BRANCH   3  14
ATOM     13  C   UNL     1      -5.203  12.382  19.176  0.00  0.00    +0.000 C 
ATOM     14  O   UNL     1      -4.348  13.091  20.068  0.00  0.00    +0.000 OA
ENDBRANCH   3  14
BRANCH   8  15
ATOM     15  O   UNL     1      -3.588  12.859  22.606  0.00  0.00    +0.000 OA
ATOM     16  C   UNL     1      -3.278  14.092  23.245  0.00  0.00    +0.000 C 
ENDBRANCH   8  15
ENDBRANCH   2  11
ENDBRANCH   1   2
BRANCH   1  17
ATOM     17  C   UNL     1       3.001   7.764  17.941  0.00  0.00    +0.000 C 
BRANCH  17  18
ATOM     18  C   UNL     1       2.919   6.414  18.654  0.00  0.00    +0.000 C 
BRANCH  18  19
ATOM     19  N   UNL     1       3.287   5.330  17.752  0.00  0.00    +0.000 NA
ATOM     20  H   UNL     1       3.260   5.663  16.789  0.00  0.00    +0.000 HD
BRANCH  19  21
ATOM     21  C   UNL     1       4.639   4.801  18.026  0.00  0.00    +0.000 C 
ATOM     22  C   UNL     1       5.249   5.458  19.289  0.00  0.00    +0.000 C 
ATOM     23  C   UNL     1       6.771   5.427  19.307  0.00  0.00    +0.000 C 
ATOM     24  C   UNL     1       7.328   6.117  18.065  0.00  0.00    +0.000 C 
ATOM     25  C   UNL     1       6.710   5.571  16.809  0.00  0.00    +0.000 A 
ATOM     26  N   UNL     1       7.446   5.682  15.648  0.00  0.00    +0.000 N 
ATOM     27  C   UNL     1       7.047   5.196  14.430  0.00  0.00    +0.000 A 
ATOM     28  O   UNL     1       7.728   5.306  13.419  0.00  0.00    +0.000 OA
ATOM     29  C   UNL     1       5.735   4.509  14.402  0.00  0.00    +0.000 A 
ATOM     30  C   UNL     1       5.020   4.407  15.531  0.00  0.00    +0.000 A 
ATOM     31  C   UNL     1       5.507   4.963  16.789  0.00  0.00    +0.000 A 
ATOM     32  H   UNL     1       8.347   6.140  15.659  0.00  0.00    +0.000 HD
ENDBRANCH  19  21
ENDBRANCH  18  19
ENDBRANCH  17  18
ENDBRANCH   1  17
TORSDOF 8
ENDMDL
