MODEL 1
REMARK VINA RESULT:      -7.6      0.000      0.000
REMARK  Name = 
REMARK  5 active torsions:
REMARK  status: ('A' for Active; 'I' for Inactive)
REMARK    1  A    between atoms: C_1  and  C_2
REMARK    2  A    between atoms: C_3  and  C_4
REMARK    3  A    between atoms: C_4  and  C_6
REMARK    4  A    between atoms: N_11  and  C_12
REMARK    5  A    between atoms: N_21  and  C_22
REMARK                            x       y       z     vdW  Elec       q    Type
REMARK                         _______ _______ _______ _____ _____    ______ ____
ROOT
ATOM      1  C   UNL     1       5.917   7.206  17.334  0.00  0.00    +0.000 C 
ATOM      2  C   UNL     1       4.812   6.211  17.500  0.00  0.00    +0.000 A 
ATOM      3  C   UNL     1       3.461   6.351  17.827  0.00  0.00    +0.000 A 
ATOM      4  C   UNL     1       2.912   5.020  17.889  0.00  0.00    +0.000 A 
ATOM      5  C   UNL     1       1.632   4.503  18.200  0.00  0.00    +0.000 A 
ATOM      6  C   UNL     1       1.403   3.125  18.168  0.00  0.00    +0.000 A 
ATOM      7  C   UNL     1       2.424   2.250  17.825  0.00  0.00    +0.000 A 
ATOM      8  C   UNL     1       3.698   2.730  17.510  0.00  0.00    +0.000 A 
ATOM      9  C   UNL     1       3.922   4.119  17.551  0.00  0.00    +0.000 A 
ATOM     10  N   UNL     1       5.053   4.862  17.297  0.00  0.00    +0.000 N 
ATOM     11  C   UNL     1       6.324   4.317  16.861  0.00  0.00    +0.000 C 
ENDROOT
BRANCH   3  12
ATOM     12  C   UNL     1       2.698   7.588  18.055  0.00  0.00    +0.000 C 
ATOM     13  O   UNL     1       2.586   8.475  17.208  0.00  0.00    +0.000 OA
BRANCH  12  14
ATOM     14  C   UNL     1       2.057   7.877  19.405  0.00  0.00    +0.000 C 
ATOM     15  O   UNL     1       2.187   7.051  20.303  0.00  0.00    +0.000 OA
ATOM     16  N   UNL     1       1.408   9.106  19.550  0.00  0.00    +0.000 N 
ATOM     17  C   UNL     1       0.810   9.412  20.848  0.00  0.00    +0.000 C 
ATOM     18  C   UNL     1       0.712  10.927  21.094  0.00  0.00    +0.000 C 
ATOM     19  N   UNL     1       0.082  11.692  19.999  0.00  0.00    +0.000 NA
ATOM     20  C   UNL     1      -1.355  11.438  19.926  0.00  0.00    +0.000 C 
ATOM     21  C   UNL     1       0.762  11.377  18.726  0.00  0.00    +0.000 C 
ATOM     22  C   UNL     1       0.900   9.874  18.409  0.00  0.00    +0.000 C 
ENDBRANCH  12  14
ENDBRANCH   3  12
TORSDOF 2
ENDMDL
MODEL 2
REMARK VINA RESULT:      -7.6      0.620      2.761
REMARK  Name = 
REMARK  5 active torsions:
REMARK  status: ('A' for Active; 'I' for Inactive)
REMARK    1  A    between atoms: C_1  and  C_2
REMARK    2  A    between atoms: C_3  and  C_4
REMARK    3  A    between atoms: C_4  and  C_6
REMARK    4  A    between atoms: N_11  and  C_12
REMARK    5  A    between atoms: N_21  and  C_22
REMARK                            x       y       z     vdW  Elec       q    Type
REMARK                         _______ _______ _______ _____ _____    ______ ____
ROOT
ATOM      1  C   UNL     1       1.458   4.440  17.901  0.00  0.00    +0.000 C 
ATOM      2  C   UNL     1       2.855   4.963  17.785  0.00  0.00    +0.000 A 
ATOM      3  C   UNL     1       3.382   6.256  17.828  0.00  0.00    +0.000 A 
ATOM      4  C   UNL     1       4.800   6.130  17.605  0.00  0.00    +0.000 A 
ATOM      5  C   UNL     1       5.861   7.061  17.500  0.00  0.00    +0.000 A 
ATOM      6  C   UNL     1       7.168   6.617  17.280  0.00  0.00    +0.000 A 
ATOM      7  C   UNL     1       7.440   5.261  17.168  0.00  0.00    +0.000 A 
ATOM      8  C   UNL     1       6.415   4.317  17.270  0.00  0.00    +0.000 A 
ATOM      9  C   UNL     1       5.101   4.773  17.485  0.00  0.00    +0.000 A 
ATOM     10  N   UNL     1       3.915   4.087  17.622  0.00  0.00    +0.000 N 
ATOM     11  C   UNL     1       3.785   2.642  17.612  0.00  0.00    +0.000 C 
ENDROOT
BRANCH   3  12
ATOM     12  C   UNL     1       2.677   7.524  18.067  0.00  0.00    +0.000 C 
ATOM     13  O   UNL     1       2.636   8.437  17.240  0.00  0.00    +0.000 OA
BRANCH  12  14
ATOM     14  C   UNL     1       2.010   7.813  19.404  0.00  0.00    +0.000 C 
ATOM     15  O   UNL     1       2.095   6.972  20.294  0.00  0.00    +0.000 OA
ATOM     16  N   UNL     1       1.391   9.057  19.551  0.00  0.00    +0.000 N 
ATOM     17  C   UNL     1       0.770   9.362  20.837  0.00  0.00    +0.000 C 
ATOM     18  C   UNL     1       0.707  10.877  21.102  0.00  0.00    +0.000 C 
ATOM     19  N   UNL     1       0.126  11.673  20.003  0.00  0.00    +0.000 NA
ATOM     20  C   UNL     1      -1.316  11.460  19.890  0.00  0.00    +0.000 C 
ATOM     21  C   UNL     1       0.828  11.356  18.743  0.00  0.00    +0.000 C 
ATOM     22  C   UNL     1       0.933   9.854  18.408  0.00  0.00    +0.000 C 
ENDBRANCH  12  14
ENDBRANCH   3  12
TORSDOF 2
ENDMDL
MODEL 3
REMARK VINA RESULT:      -7.5      1.035      1.851
REMARK  Name = 
REMARK  5 active torsions:
REMARK  status: ('A' for Active; 'I' for Inactive)
REMARK    1  A    between atoms: C_1  and  C_2
REMARK    2  A    between atoms: C_3  and  C_4
REMARK    3  A    between atoms: C_4  and  C_6
REMARK    4  A    between atoms: N_11  and  C_12
REMARK    5  A    between atoms: N_21  and  C_22
REMARK                            x       y       z     vdW  Elec       q    Type
REMARK                         _______ _______ _______ _____ _____    ______ ____
ROOT
ATOM      1  C   UNL     1       4.961   6.909  17.236  0.00  0.00    +0.000 C 
ATOM      2  C   UNL     1       3.946   5.933  17.741  0.00  0.00    +0.000 A 
ATOM      3  C   UNL     1       2.881   6.063  18.635  0.00  0.00    +0.000 A 
ATOM      4  C   UNL     1       2.292   4.754  18.766  0.00  0.00    +0.000 A 
ATOM      5  C   UNL     1       1.223   4.234  19.535  0.00  0.00    +0.000 A 
ATOM      6  C   UNL     1       0.877   2.884  19.436  0.00  0.00    +0.000 A 
ATOM      7  C   UNL     1       1.571   2.041  18.580  0.00  0.00    +0.000 A 
ATOM      8  C   UNL     1       2.629   2.525  17.805  0.00  0.00    +0.000 A 
ATOM      9  C   UNL     1       2.975   3.885  17.916  0.00  0.00    +0.000 A 
ATOM     10  N   UNL     1       3.953   4.624  17.290  0.00  0.00    +0.000 N 
ATOM     11  C   UNL     1       4.863   4.114  16.282  0.00  0.00    +0.000 C 
ENDROOT
BRANCH   3  12
ATOM     12  C   UNL     1       2.404   7.273  19.322  0.00  0.00    +0.000 C 
ATOM     13  O   UNL     1       2.362   7.377  20.549  0.00  0.00    +0.000 OA
BRANCH  12  14
ATOM     14  C   UNL     1       1.856   8.457  18.538  0.00  0.00    +0.000 C 
ATOM     15  O   UNL     1       2.151   8.559  17.352  0.00  0.00    +0.000 OA
ATOM     16  N   UNL     1       0.994   9.324  19.215  0.00  0.00    +0.000 N 
ATOM     17  C   UNL     1       0.437  10.450  18.470  0.00  0.00    +0.000 C 
ATOM     18  C   UNL     1      -0.906  10.920  19.056  0.00  0.00    +0.000 C 
ATOM     19  N   UNL     1      -0.891  11.171  20.511  0.00  0.00    +0.000 NA
ATOM     20  C   UNL     1      -0.130  12.375  20.841  0.00  0.00    +0.000 C 
ATOM     21  C   UNL     1      -0.365   9.980  21.209  0.00  0.00    +0.000 C 
ATOM     22  C   UNL     1       0.980   9.447  20.676  0.00  0.00    +0.000 C 
ENDBRANCH  12  14
ENDBRANCH   3  12
TORSDOF 2
ENDMDL
MODEL 4
REMARK VINA RESULT:      -7.4      4.206      6.793
REMARK  Name = 
REMARK  5 active torsions:
REMARK  status: ('A' for Active; 'I' for Inactive)
REMARK    1  A    between atoms: C_1  and  C_2
REMARK    2  A    between atoms: C_3  and  C_4
REMARK    3  A    between atoms: C_4  and  C_6
REMARK    4  A    between atoms: N_11  and  C_12
REMARK    5  A    between atoms: N_21  and  C_22
REMARK                            x       y       z     vdW  Elec       q    Type
REMARK                         _______ _______ _______ _____ _____    ______ ____
ROOT
ATOM      1  C   UNL     1       1.340   9.319  17.697  0.00  0.00    +0.000 C 
ATOM      2  C   UNL     1       0.691   9.713  18.986  0.00  0.00    +0.000 A 
ATOM      3  C   UNL     1      -0.241  10.702  19.307  0.00  0.00    +0.000 A 
ATOM      4  C   UNL     1      -0.445  10.629  20.732  0.00  0.00    +0.000 A 
ATOM      5  C   UNL     1      -1.228  11.372  21.648  0.00  0.00    +0.000 A 
ATOM      6  C   UNL     1      -1.219  11.047  23.007  0.00  0.00    +0.000 A 
ATOM      7  C   UNL     1      -0.449   9.989  23.472  0.00  0.00    +0.000 A 
ATOM      8  C   UNL     1       0.332   9.235  22.592  0.00  0.00    +0.000 A 
ATOM      9  C   UNL     1       0.322   9.574  21.226  0.00  0.00    +0.000 A 
ATOM     10  N   UNL     1       0.980   9.021  20.150  0.00  0.00    +0.000 N 
ATOM     11  C   UNL     1       1.849   7.861  20.216  0.00  0.00    +0.000 C 
ENDROOT
BRANCH   3  12
ATOM     12  C   UNL     1      -0.922  11.645  18.406  0.00  0.00    +0.000 C 
ATOM     13  O   UNL     1      -0.563  12.815  18.263  0.00  0.00    +0.000 OA
BRANCH  12  14
ATOM     14  C   UNL     1      -2.176  11.239  17.646  0.00  0.00    +0.000 C 
ATOM     15  O   UNL     1      -2.046  10.650  16.577  0.00  0.00    +0.000 OA
ATOM     16  N   UNL     1      -3.404  11.512  18.253  0.00  0.00    +0.000 N 
ATOM     17  C   UNL     1      -4.618  11.105  17.549  0.00  0.00    +0.000 C 
ATOM     18  C   UNL     1      -5.791  10.864  18.516  0.00  0.00    +0.000 C 
ATOM     19  N   UNL     1      -6.044  11.966  19.466  0.00  0.00    +0.000 NA
ATOM     20  C   UNL     1      -6.613  13.133  18.795  0.00  0.00    +0.000 C 
ATOM     21  C   UNL     1      -4.793  12.296  20.179  0.00  0.00    +0.000 C 
ATOM     22  C   UNL     1      -3.569  12.551  19.275  0.00  0.00    +0.000 C 
ENDBRANCH  12  14
ENDBRANCH   3  12
TORSDOF 2
ENDMDL
MODEL 5
REMARK VINA RESULT:      -7.4      4.032      6.729
REMARK  Name = 
REMARK  5 active torsions:
REMARK  status: ('A' for Active; 'I' for Inactive)
REMARK    1  A    between atoms: C_1  and  C_2
REMARK    2  A    between atoms: C_3  and  C_4
REMARK    3  A    between atoms: C_4  and  C_6
REMARK    4  A    between atoms: N_11  and  C_12
REMARK    5  A    between atoms: N_21  and  C_22
REMARK                            x       y       z     vdW  Elec       q    Type
REMARK                         _______ _______ _______ _____ _____    ______ ____
ROOT
ATOM      1  C   UNL     1      -1.270  11.482  22.381  0.00  0.00    +0.000 C 
ATOM      2  C   UNL     1      -0.511  10.802  21.286  0.00  0.00    +0.000 A 
ATOM      3  C   UNL     1      -0.449  11.020  19.908  0.00  0.00    +0.000 A 
ATOM      4  C   UNL     1       0.420  10.006  19.369  0.00  0.00    +0.000 A 
ATOM      5  C   UNL     1       0.848   9.677  18.060  0.00  0.00    +0.000 A 
ATOM      6  C   UNL     1       1.725   8.609  17.854  0.00  0.00    +0.000 A 
ATOM      7  C   UNL     1       2.190   7.863  18.928  0.00  0.00    +0.000 A 
ATOM      8  C   UNL     1       1.789   8.165  20.232  0.00  0.00    +0.000 A 
ATOM      9  C   UNL     1       0.901   9.238  20.430  0.00  0.00    +0.000 A 
ATOM     10  N   UNL     1       0.344   9.753  21.580  0.00  0.00    +0.000 N 
ATOM     11  C   UNL     1       0.621   9.277  22.922  0.00  0.00    +0.000 C 
ENDROOT
BRANCH   3  12
ATOM     12  C   UNL     1      -1.108  12.071  19.117  0.00  0.00    +0.000 C 
ATOM     13  O   UNL     1      -0.731  13.243  19.109  0.00  0.00    +0.000 OA
BRANCH  12  14
ATOM     14  C   UNL     1      -2.363  11.774  18.308  0.00  0.00    +0.000 C 
ATOM     15  O   UNL     1      -2.235  11.341  17.168  0.00  0.00    +0.000 OA
ATOM     16  N   UNL     1      -3.591  11.960  18.949  0.00  0.00    +0.000 N 
ATOM     17  C   UNL     1      -4.805  11.654  18.197  0.00  0.00    +0.000 C 
ATOM     18  C   UNL     1      -5.977  11.280  19.122  0.00  0.00    +0.000 C 
ATOM     19  N   UNL     1      -6.230  12.238  20.217  0.00  0.00    +0.000 NA
ATOM     20  C   UNL     1      -6.799  13.488  19.716  0.00  0.00    +0.000 C 
ATOM     21  C   UNL     1      -4.978  12.467  20.967  0.00  0.00    +0.000 C 
ATOM     22  C   UNL     1      -3.755  12.845  20.107  0.00  0.00    +0.000 C 
ENDBRANCH  12  14
ENDBRANCH   3  12
TORSDOF 2
ENDMDL
MODEL 6
REMARK VINA RESULT:      -7.2      1.133      3.093
REMARK  Name = 
REMARK  5 active torsions:
REMARK  status: ('A' for Active; 'I' for Inactive)
REMARK    1  A    between atoms: C_1  and  C_2
REMARK    2  A    between atoms: C_3  and  C_4
REMARK    3  A    between atoms: C_4  and  C_6
REMARK    4  A    between atoms: N_11  and  C_12
REMARK    5  A    between atoms: N_21  and  C_22
REMARK                            x       y       z     vdW  Elec       q    Type
REMARK                         _______ _______ _______ _____ _____    ______ ____
ROOT
ATOM      1  C   UNL     1       1.092   4.076  19.491  0.00  0.00    +0.000 C 
ATOM      2  C   UNL     1       2.231   4.596  18.673  0.00  0.00    +0.000 A 
ATOM      3  C   UNL     1       2.798   5.866  18.549  0.00  0.00    +0.000 A 
ATOM      4  C   UNL     1       3.842   5.757  17.562  0.00  0.00    +0.000 A 
ATOM      5  C   UNL     1       4.741   6.683  16.982  0.00  0.00    +0.000 A 
ATOM      6  C   UNL     1       5.669   6.260  16.027  0.00  0.00    +0.000 A 
ATOM      7  C   UNL     1       5.723   4.928  15.641  0.00  0.00    +0.000 A 
ATOM      8  C   UNL     1       4.850   3.989  16.198  0.00  0.00    +0.000 A 
ATOM      9  C   UNL     1       3.915   4.425  17.155  0.00  0.00    +0.000 A 
ATOM     10  N   UNL     1       2.950   3.739  17.857  0.00  0.00    +0.000 N 
ATOM     11  C   UNL     1       2.719   2.309  17.770  0.00  0.00    +0.000 C 
ENDROOT
BRANCH   3  12
ATOM     12  C   UNL     1       2.447   7.099  19.271  0.00  0.00    +0.000 C 
ATOM     13  O   UNL     1       2.475   7.191  20.499  0.00  0.00    +0.000 OA
BRANCH  12  14
ATOM     14  C   UNL     1       1.948   8.330  18.527  0.00  0.00    +0.000 C 
ATOM     15  O   UNL     1       2.283   8.481  17.356  0.00  0.00    +0.000 OA
ATOM     16  N   UNL     1       1.083   9.183  19.217  0.00  0.00    +0.000 N 
ATOM     17  C   UNL     1       0.573  10.354  18.509  0.00  0.00    +0.000 C 
ATOM     18  C   UNL     1      -0.779  10.826  19.074  0.00  0.00    +0.000 C 
ATOM     19  N   UNL     1      -0.805  11.008  20.540  0.00  0.00    +0.000 NA
ATOM     20  C   UNL     1      -0.031  12.178  20.949  0.00  0.00    +0.000 C 
ATOM     21  C   UNL     1      -0.326   9.775  21.196  0.00  0.00    +0.000 C 
ATOM     22  C   UNL     1       1.025   9.238  20.681  0.00  0.00    +0.000 C 
ENDBRANCH  12  14
ENDBRANCH   3  12
TORSDOF 2
ENDMDL
MODEL 7
REMARK VINA RESULT:      -7.2      4.059      6.574
REMARK  Name = 
REMARK  5 active torsions:
REMARK  status: ('A' for Active; 'I' for Inactive)
REMARK    1  A    between atoms: C_1  and  C_2
REMARK    2  A    between atoms: C_3  and  C_4
REMARK    3  A    between atoms: C_4  and  C_6
REMARK    4  A    between atoms: N_11  and  C_12
REMARK    5  A    between atoms: N_21  and  C_22
REMARK                            x       y       z     vdW  Elec       q    Type
REMARK                         _______ _______ _______ _____ _____    ______ ____
ROOT
ATOM      1  C   UNL     1      -1.270  11.674  22.388  0.00  0.00    +0.000 C 
ATOM      2  C   UNL     1      -0.493  10.953  21.332  0.00  0.00    +0.000 A 
ATOM      3  C   UNL     1      -0.324  11.186  19.965  0.00  0.00    +0.000 A 
ATOM      4  C   UNL     1       0.500  10.115  19.464  0.00  0.00    +0.000 A 
ATOM      5  C   UNL     1       0.988   9.774  18.180  0.00  0.00    +0.000 A 
ATOM      6  C   UNL     1       1.792   8.644  18.010  0.00  0.00    +0.000 A 
ATOM      7  C   UNL     1       2.127   7.849  19.097  0.00  0.00    +0.000 A 
ATOM      8  C   UNL     1       1.663   8.162  20.378  0.00  0.00    +0.000 A 
ATOM      9  C   UNL     1       0.848   9.297  20.539  0.00  0.00    +0.000 A 
ATOM     10  N   UNL     1       0.257   9.837  21.660  0.00  0.00    +0.000 N 
ATOM     11  C   UNL     1       0.407   9.321  23.007  0.00  0.00    +0.000 C 
ENDROOT
BRANCH   3  12
ATOM     12  C   UNL     1      -0.847  12.296  19.154  0.00  0.00    +0.000 C 
ATOM     13  O   UNL     1      -1.546  12.127  18.154  0.00  0.00    +0.000 OA
BRANCH  12  14
ATOM     14  C   UNL     1      -0.482  13.740  19.470  0.00  0.00    +0.000 C 
ATOM     15  O   UNL     1      -1.324  14.452  20.006  0.00  0.00    +0.000 OA
ATOM     16  N   UNL     1       0.824  14.143  19.180  0.00  0.00    +0.000 N 
ATOM     17  C   UNL     1       1.201  15.517  19.501  0.00  0.00    +0.000 C 
ATOM     18  C   UNL     1       2.713  15.659  19.745  0.00  0.00    +0.000 C 
ATOM     19  N   UNL     1       3.566  15.084  18.686  0.00  0.00    +0.000 NA
ATOM     20  C   UNL     1       3.515  15.883  17.463  0.00  0.00    +0.000 C 
ATOM     21  C   UNL     1       3.169  13.682  18.443  0.00  0.00    +0.000 C 
ATOM     22  C   UNL     1       1.664  13.459  18.191  0.00  0.00    +0.000 C 
ENDBRANCH  12  14
ENDBRANCH   3  12
TORSDOF 2
ENDMDL
MODEL 8
REMARK VINA RESULT:      -6.9      5.154      7.829
REMARK  Name = 
REMARK  5 active torsions:
REMARK  status: ('A' for Active; 'I' for Inactive)
REMARK    1  A    between atoms: C_1  and  C_2
REMARK    2  A    between atoms: C_3  and  C_4
REMARK    3  A    between atoms: C_4  and  C_6
REMARK    4  A    between atoms: N_11  and  C_12
REMARK    5  A    between atoms: N_21  and  C_22
REMARK                            x       y       z     vdW  Elec       q    Type
REMARK                         _______ _______ _______ _____ _____    ______ ____
ROOT
ATOM      1  C   UNL     1       0.955  11.383  20.592  0.00  0.00    +0.000 C 
ATOM      2  C   UNL     1      -0.246  11.280  19.707  0.00  0.00    +0.000 A 
ATOM      3  C   UNL     1      -1.484  11.927  19.722  0.00  0.00    +0.000 A 
ATOM      4  C   UNL     1      -2.254  11.368  18.640  0.00  0.00    +0.000 A 
ATOM      5  C   UNL     1      -3.571  11.577  18.165  0.00  0.00    +0.000 A 
ATOM      6  C   UNL     1      -4.041  10.866  17.058  0.00  0.00    +0.000 A 
ATOM      7  C   UNL     1      -3.222   9.952  16.409  0.00  0.00    +0.000 A 
ATOM      8  C   UNL     1      -1.916   9.727  16.852  0.00  0.00    +0.000 A 
ATOM      9  C   UNL     1      -1.452  10.442  17.971  0.00  0.00    +0.000 A 
ATOM     10  N   UNL     1      -0.237  10.424  18.618  0.00  0.00    +0.000 N 
ATOM     11  C   UNL     1       0.908   9.631  18.213  0.00  0.00    +0.000 C 
ENDROOT
BRANCH   3  12
ATOM     12  C   UNL     1      -1.952  12.986  20.629  0.00  0.00    +0.000 C 
ATOM     13  O   UNL     1      -1.856  14.186  20.368  0.00  0.00    +0.000 OA
BRANCH  12  14
ATOM     14  C   UNL     1      -2.524  12.650  21.999  0.00  0.00    +0.000 C 
ATOM     15  O   UNL     1      -1.765  12.215  22.859  0.00  0.00    +0.000 OA
ATOM     16  N   UNL     1      -3.879  12.922  22.206  0.00  0.00    +0.000 N 
ATOM     17  C   UNL     1      -4.439  12.631  23.523  0.00  0.00    +0.000 C 
ATOM     18  C   UNL     1      -5.663  13.509  23.836  0.00  0.00    +0.000 C 
ATOM     19  N   UNL     1      -6.700  13.522  22.784  0.00  0.00    +0.000 NA
ATOM     20  C   UNL     1      -7.415  12.248  22.720  0.00  0.00    +0.000 C 
ATOM     21  C   UNL     1      -6.080  13.869  21.489  0.00  0.00    +0.000 C 
ATOM     22  C   UNL     1      -4.843  13.031  21.106  0.00  0.00    +0.000 C 
ENDBRANCH  12  14
ENDBRANCH   3  12
TORSDOF 2
ENDMDL
MODEL 9
REMARK VINA RESULT:      -6.9      4.148      6.795
REMARK  Name = 
REMARK  5 active torsions:
REMARK  status: ('A' for Active; 'I' for Inactive)
REMARK    1  A    between atoms: C_1  and  C_2
REMARK    2  A    between atoms: C_3  and  C_4
REMARK    3  A    between atoms: C_4  and  C_6
REMARK    4  A    between atoms: N_11  and  C_12
REMARK    5  A    between atoms: N_21  and  C_22
REMARK                            x       y       z     vdW  Elec       q    Type
REMARK                         _______ _______ _______ _____ _____    ______ ____
ROOT
ATOM      1  C   UNL     1       1.900   9.698  17.848  0.00  0.00    +0.000 C 
ATOM      2  C   UNL     1       1.131  10.023  19.090  0.00  0.00    +0.000 A 
ATOM      3  C   UNL     1       0.343  11.119  19.448  0.00  0.00    +0.000 A 
ATOM      4  C   UNL     1      -0.096  10.886  20.801  0.00  0.00    +0.000 A 
ATOM      5  C   UNL     1      -0.876  11.628  21.719  0.00  0.00    +0.000 A 
ATOM      6  C   UNL     1      -1.141  11.118  22.992  0.00  0.00    +0.000 A 
ATOM      7  C   UNL     1      -0.649   9.876  23.368  0.00  0.00    +0.000 A 
ATOM      8  C   UNL     1       0.122   9.117  22.483  0.00  0.00    +0.000 A 
ATOM      9  C   UNL     1       0.389   9.642  21.205  0.00  0.00    +0.000 A 
ATOM     10  N   UNL     1       1.107   9.129  20.147  0.00  0.00    +0.000 N 
ATOM     11  C   UNL     1       1.742   7.825  20.128  0.00  0.00    +0.000 C 
ENDROOT
BRANCH   3  12
ATOM     12  C   UNL     1      -0.012  12.295  18.639  0.00  0.00    +0.000 C 
ATOM     13  O   UNL     1      -1.063  12.379  18.001  0.00  0.00    +0.000 OA
BRANCH  12  14
ATOM     14  C   UNL     1       0.952  13.462  18.484  0.00  0.00    +0.000 C 
ATOM     15  O   UNL     1       2.021  13.265  17.915  0.00  0.00    +0.000 OA
ATOM     16  N   UNL     1       0.524  14.707  18.950  0.00  0.00    +0.000 N 
ATOM     17  C   UNL     1       1.425  15.845  18.784  0.00  0.00    +0.000 C 
ATOM     18  C   UNL     1       0.664  17.180  18.724  0.00  0.00    +0.000 C 
ATOM     19  N   UNL     1      -0.300  17.392  19.822  0.00  0.00    +0.000 NA
ATOM     20  C   UNL     1       0.380  17.641  21.092  0.00  0.00    +0.000 C 
ATOM     21  C   UNL     1      -1.212  16.233  19.905  0.00  0.00    +0.000 C 
ATOM     22  C   UNL     1      -0.521  14.856  19.968  0.00  0.00    +0.000 C 
ENDBRANCH  12  14
ENDBRANCH   3  12
TORSDOF 2
ENDMDL
