MODEL 1
REMARK VINA RESULT:      -9.6      0.000      0.000
REMARK  Name = 
REMARK  8 active torsions:
REMARK  status: ('A' for Active; 'I' for Inactive)
REMARK    1  A    between atoms: C_1  and  O_2
REMARK    2  A    between atoms: O_2  and  C_3
REMARK    3  A    between atoms: C_7  and  C_8
REMARK    4  A    between atoms: N_11  and  C_12
REMARK    5  A    between atoms: C_12  and  C_13
REMARK    6  A    between atoms: C_13  and  C_14
REMARK    7  A    between atoms: C_20  and  O_21
REMARK    8  A    between atoms: O_21  and  C_22
REMARK                            x       y       z     vdW  Elec       q    Type
REMARK                         _______ _______ _______ _____ _____    ______ ____
ROOT
ATOM      1  C   UNL     1       4.584   4.869  17.828  0.00  0.00    +0.000 A 
ATOM      2  N   UNL     1       3.895   5.998  17.969  0.00  0.00    +0.000 NA
ATOM      3  C   UNL     1       2.982   6.049  18.945  0.00  0.00    +0.000 A 
ATOM      4  N   UNL     1       2.374   7.305  19.182  0.00  0.00    +0.000 N 
ATOM      5  C   UNL     1       2.695   4.908  19.744  0.00  0.00    +0.000 A 
ATOM      6  C   UNL     1       1.617   4.736  20.657  0.00  0.00    +0.000 A 
ATOM      7  C   UNL     1       1.444   3.537  21.368  0.00  0.00    +0.000 A 
ATOM      8  C   UNL     1       2.371   2.513  21.232  0.00  0.00    +0.000 A 
ATOM      9  C   UNL     1       3.423   2.672  20.330  0.00  0.00    +0.000 A 
ATOM     10  C   UNL     1       3.555   3.819  19.560  0.00  0.00    +0.000 A 
ATOM     11  N   UNL     1       4.512   3.803  18.625  0.00  0.00    +0.000 NA
ATOM     12  H   UNL     1       2.696   7.599  20.103  0.00  0.00    +0.000 HD
ENDROOT
BRANCH   1  17
ATOM     13  C   UNL     1       5.804   4.172  14.292  0.00  0.00    +0.000 A 
ATOM     14  C   UNL     1       7.088   4.710  14.338  0.00  0.00    +0.000 A 
ATOM     15  C   UNL     1       7.582   5.255  15.521  0.00  0.00    +0.000 A 
ATOM     16  C   UNL     1       6.778   5.277  16.661  0.00  0.00    +0.000 A 
ATOM     17  C   UNL     1       5.465   4.766  16.640  0.00  0.00    +0.000 A 
ATOM     18  C   UNL     1       5.000   4.214  15.432  0.00  0.00    +0.000 A 
BRANCH  13  20
ATOM     19  C   UNL     1       6.473   3.443  12.146  0.00  0.00    +0.000 C 
ATOM     20  O   UNL     1       5.421   3.667  13.080  0.00  0.00    +0.000 OA
ENDBRANCH  13  20
ENDBRANCH   1  17
BRANCH   4  21
ATOM     21  C   UNL     1       2.640   8.361  18.137  0.00  0.00    +0.000 C 
BRANCH  21  22
ATOM     22  C   UNL     1       1.326   8.927  17.598  0.00  0.00    +0.000 C 
BRANCH  22  23
ATOM     23  C   UNL     1       0.457   9.946  18.327  0.00  0.00    +0.000 A 
ATOM     24  C   UNL     1       1.176  10.837  19.125  0.00  0.00    +0.000 A 
ATOM     25  N   UNL     1       0.330  11.177  20.123  0.00  0.00    +0.000 N 
ATOM     26  C   UNL     1      -0.906  11.301  19.560  0.00  0.00    +0.000 A 
ATOM     27  C   UNL     1      -1.947  12.100  20.021  0.00  0.00    +0.000 A 
ATOM     28  C   UNL     1      -3.103  12.101  19.276  0.00  0.00    +0.000 A 
ATOM     29  C   UNL     1      -3.259  11.272  18.165  0.00  0.00    +0.000 A 
ATOM     30  C   UNL     1      -2.205  10.405  17.743  0.00  0.00    +0.000 A 
ATOM     31  C   UNL     1      -0.929  10.464  18.424  0.00  0.00    +0.000 A 
ATOM     32  H   UNL     1       0.589  11.510  21.039  0.00  0.00    +0.000 HD
BRANCH  29  33
ATOM     33  O   UNL     1      -4.484  11.539  17.626  0.00  0.00    +0.000 OA
ATOM     34  C   UNL     1      -5.703  11.042  18.115  0.00  0.00    +0.000 C 
ENDBRANCH  29  33
ENDBRANCH  22  23
ENDBRANCH  21  22
ENDBRANCH   4  21
TORSDOF 6
ENDMDL
MODEL 2
REMARK VINA RESULT:      -9.3      0.860      1.034
REMARK  Name = 
REMARK  8 active torsions:
REMARK  status: ('A' for Active; 'I' for Inactive)
REMARK    1  A    between atoms: C_1  and  O_2
REMARK    2  A    between atoms: O_2  and  C_3
REMARK    3  A    between atoms: C_7  and  C_8
REMARK    4  A    between atoms: N_11  and  C_12
REMARK    5  A    between atoms: C_12  and  C_13
REMARK    6  A    between atoms: C_13  and  C_14
REMARK    7  A    between atoms: C_20  and  O_21
REMARK    8  A    between atoms: O_21  and  C_22
REMARK                            x       y       z     vdW  Elec       q    Type
REMARK                         _______ _______ _______ _____ _____    ______ ____
ROOT
ATOM      1  C   UNL     1       4.497   4.920  17.821  0.00  0.00    +0.000 A 
ATOM      2  N   UNL     1       3.676   5.967  17.861  0.00  0.00    +0.000 NA
ATOM      3  C   UNL     1       2.725   5.973  18.802  0.00  0.00    +0.000 A 
ATOM      4  N   UNL     1       1.966   7.160  18.930  0.00  0.00    +0.000 N 
ATOM      5  C   UNL     1       2.542   4.861  19.669  0.00  0.00    +0.000 A 
ATOM      6  C   UNL     1       1.456   4.623  20.558  0.00  0.00    +0.000 A 
ATOM      7  C   UNL     1       1.395   3.461  21.346  0.00  0.00    +0.000 A 
ATOM      8  C   UNL     1       2.440   2.549  21.311  0.00  0.00    +0.000 A 
ATOM      9  C   UNL     1       3.501   2.772  20.433  0.00  0.00    +0.000 A 
ATOM     10  C   UNL     1       3.529   3.872  19.590  0.00  0.00    +0.000 A 
ATOM     11  N   UNL     1       4.518   3.908  18.688  0.00  0.00    +0.000 NA
ATOM     12  H   UNL     1       2.215   7.551  19.839  0.00  0.00    +0.000 HD
ENDROOT
BRANCH   1  17
ATOM     13  C   UNL     1       5.934   4.126  14.389  0.00  0.00    +0.000 A 
ATOM     14  C   UNL     1       7.136   4.829  14.431  0.00  0.00    +0.000 A 
ATOM     15  C   UNL     1       7.510   5.520  15.581  0.00  0.00    +0.000 A 
ATOM     16  C   UNL     1       6.665   5.522  16.691  0.00  0.00    +0.000 A 
ATOM     17  C   UNL     1       5.430   4.844  16.672  0.00  0.00    +0.000 A 
ATOM     18  C   UNL     1       5.087   4.148  15.498  0.00  0.00    +0.000 A 
BRANCH  13  20
ATOM     19  C   UNL     1       6.604   3.711  12.161  0.00  0.00    +0.000 C 
ATOM     20  O   UNL     1       5.668   3.486  13.210  0.00  0.00    +0.000 OA
ENDBRANCH  13  20
ENDBRANCH   1  17
BRANCH   4  21
ATOM     21  C   UNL     1       2.149   8.169  17.823  0.00  0.00    +0.000 C 
BRANCH  21  22
ATOM     22  C   UNL     1       2.037   9.593  18.368  0.00  0.00    +0.000 C 
BRANCH  22  23
ATOM     23  C   UNL     1       0.724  10.329  18.610  0.00  0.00    +0.000 A 
ATOM     24  C   UNL     1       0.823  11.377  19.527  0.00  0.00    +0.000 A 
ATOM     25  N   UNL     1      -0.401  11.465  20.094  0.00  0.00    +0.000 N 
ATOM     26  C   UNL     1      -1.308  11.251  19.097  0.00  0.00    +0.000 A 
ATOM     27  C   UNL     1      -2.611  11.732  19.050  0.00  0.00    +0.000 A 
ATOM     28  C   UNL     1      -3.345  11.423  17.929  0.00  0.00    +0.000 A 
ATOM     29  C   UNL     1      -2.839  10.591  16.929  0.00  0.00    +0.000 A 
ATOM     30  C   UNL     1      -1.521  10.048  17.024  0.00  0.00    +0.000 A 
ATOM     31  C   UNL     1      -0.672  10.448  18.125  0.00  0.00    +0.000 A 
ATOM     32  H   UNL     1      -0.613  11.849  21.002  0.00  0.00    +0.000 HD
BRANCH  29  33
ATOM     33  O   UNL     1      -3.781  10.518  15.946  0.00  0.00    +0.000 OA
ATOM     34  C   UNL     1      -3.521  10.196  14.603  0.00  0.00    +0.000 C 
ENDBRANCH  29  33
ENDBRANCH  22  23
ENDBRANCH  21  22
ENDBRANCH   4  21
TORSDOF 6
ENDMDL
MODEL 3
REMARK VINA RESULT:      -9.1      2.323      3.142
REMARK  Name = 
REMARK  8 active torsions:
REMARK  status: ('A' for Active; 'I' for Inactive)
REMARK    1  A    between atoms: C_1  and  O_2
REMARK    2  A    between atoms: O_2  and  C_3
REMARK    3  A    between atoms: C_7  and  C_8
REMARK    4  A    between atoms: N_11  and  C_12
REMARK    5  A    between atoms: C_12  and  C_13
REMARK    6  A    between atoms: C_13  and  C_14
REMARK    7  A    between atoms: C_20  and  O_21
REMARK    8  A    between atoms: O_21  and  C_22
REMARK                            x       y       z     vdW  Elec       q    Type
REMARK                         _______ _______ _______ _____ _____    ______ ____
ROOT
ATOM      1  C   UNL     1       4.599   4.817  17.857  0.00  0.00    +0.000 A 
ATOM      2  N   UNL     1       3.887   5.933  17.992  0.00  0.00    +0.000 NA
ATOM      3  C   UNL     1       2.991   5.980  18.984  0.00  0.00    +0.000 A 
ATOM      4  N   UNL     1       2.359   7.225  19.211  0.00  0.00    +0.000 N 
ATOM      5  C   UNL     1       2.746   4.847  19.808  0.00  0.00    +0.000 A 
ATOM      6  C   UNL     1       1.690   4.666  20.745  0.00  0.00    +0.000 A 
ATOM      7  C   UNL     1       1.558   3.476  21.480  0.00  0.00    +0.000 A 
ATOM      8  C   UNL     1       2.506   2.472  21.344  0.00  0.00    +0.000 A 
ATOM      9  C   UNL     1       3.537   2.639  20.419  0.00  0.00    +0.000 A 
ATOM     10  C   UNL     1       3.628   3.775  19.627  0.00  0.00    +0.000 A 
ATOM     11  N   UNL     1       4.567   3.764  18.673  0.00  0.00    +0.000 NA
ATOM     12  H   UNL     1       2.691   7.543  20.121  0.00  0.00    +0.000 HD
ENDROOT
BRANCH   1  17
ATOM     13  C   UNL     1       5.736   4.211  14.277  0.00  0.00    +0.000 A 
ATOM     14  C   UNL     1       7.053   4.662  14.332  0.00  0.00    +0.000 A 
ATOM     15  C   UNL     1       7.593   5.116  15.532  0.00  0.00    +0.000 A 
ATOM     16  C   UNL     1       6.804   5.136  16.682  0.00  0.00    +0.000 A 
ATOM     17  C   UNL     1       5.460   4.713  16.655  0.00  0.00    +0.000 A 
ATOM     18  C   UNL     1       4.947   4.252  15.428  0.00  0.00    +0.000 A 
BRANCH  13  20
ATOM     19  C   UNL     1       6.319   3.270  12.189  0.00  0.00    +0.000 C 
ATOM     20  O   UNL     1       5.309   3.790  13.047  0.00  0.00    +0.000 OA
ENDBRANCH  13  20
ENDBRANCH   1  17
BRANCH   4  21
ATOM     21  C   UNL     1       2.580   8.268  18.143  0.00  0.00    +0.000 C 
BRANCH  21  22
ATOM     22  C   UNL     1       1.331   9.132  17.967  0.00  0.00    +0.000 C 
BRANCH  22  23
ATOM     23  C   UNL     1       1.104  10.478  18.645  0.00  0.00    +0.000 A 
ATOM     24  C   UNL     1       0.280  10.414  19.771  0.00  0.00    +0.000 A 
ATOM     25  N   UNL     1      -0.320  11.624  19.836  0.00  0.00    +0.000 N 
ATOM     26  C   UNL     1       0.622  12.546  19.487  0.00  0.00    +0.000 A 
ATOM     27  C   UNL     1       0.663  13.877  19.887  0.00  0.00    +0.000 A 
ATOM     28  C   UNL     1       1.729  14.625  19.443  0.00  0.00    +0.000 A 
ATOM     29  C   UNL     1       2.674  14.100  18.561  0.00  0.00    +0.000 A 
ATOM     30  C   UNL     1       2.582  12.750  18.104  0.00  0.00    +0.000 A 
ATOM     31  C   UNL     1       1.547  11.893  18.643  0.00  0.00    +0.000 A 
ATOM     32  H   UNL     1      -1.201  11.831  20.282  0.00  0.00    +0.000 HD
BRANCH  29  33
ATOM     33  O   UNL     1       3.614  15.066  18.351  0.00  0.00    +0.000 OA
ATOM     34  C   UNL     1       3.385  16.283  17.688  0.00  0.00    +0.000 C 
ENDBRANCH  29  33
ENDBRANCH  22  23
ENDBRANCH  21  22
ENDBRANCH   4  21
TORSDOF 6
ENDMDL
MODEL 4
REMARK VINA RESULT:      -9.0      5.603      9.120
REMARK  Name = 
REMARK  8 active torsions:
REMARK  status: ('A' for Active; 'I' for Inactive)
REMARK    1  A    between atoms: C_1  and  O_2
REMARK    2  A    between atoms: O_2  and  C_3
REMARK    3  A    between atoms: C_7  and  C_8
REMARK    4  A    between atoms: N_11  and  C_12
REMARK    5  A    between atoms: C_12  and  C_13
REMARK    6  A    between atoms: C_13  and  C_14
REMARK    7  A    between atoms: C_20  and  O_21
REMARK    8  A    between atoms: O_21  and  C_22
REMARK                            x       y       z     vdW  Elec       q    Type
REMARK                         _______ _______ _______ _____ _____    ______ ____
ROOT
ATOM      1  C   UNL     1       4.723   5.365  17.216  0.00  0.00    +0.000 A 
ATOM      2  N   UNL     1       5.786   6.148  17.386  0.00  0.00    +0.000 NA
ATOM      3  C   UNL     1       6.690   6.186  16.401  0.00  0.00    +0.000 A 
ATOM      4  N   UNL     1       7.728   7.139  16.528  0.00  0.00    +0.000 N 
ATOM      5  C   UNL     1       6.565   5.353  15.255  0.00  0.00    +0.000 A 
ATOM      6  C   UNL     1       7.538   5.117  14.243  0.00  0.00    +0.000 A 
ATOM      7  C   UNL     1       7.283   4.245  13.171  0.00  0.00    +0.000 A 
ATOM      8  C   UNL     1       6.038   3.643  13.052  0.00  0.00    +0.000 A 
ATOM      9  C   UNL     1       5.086   3.862  14.048  0.00  0.00    +0.000 A 
ATOM     10  C   UNL     1       5.357   4.653  15.154  0.00  0.00    +0.000 A 
ATOM     11  N   UNL     1       4.426   4.675  16.116  0.00  0.00    +0.000 NA
ATOM     12  H   UNL     1       7.574   7.817  15.782  0.00  0.00    +0.000 HD
ENDROOT
BRANCH   1  17
ATOM     13  C   UNL     1       2.906   3.817  20.179  0.00  0.00    +0.000 A 
ATOM     14  C   UNL     1       2.226   4.922  20.686  0.00  0.00    +0.000 A 
ATOM     15  C   UNL     1       2.312   6.157  20.048  0.00  0.00    +0.000 A 
ATOM     16  C   UNL     1       3.099   6.290  18.903  0.00  0.00    +0.000 A 
ATOM     17  C   UNL     1       3.820   5.200  18.381  0.00  0.00    +0.000 A 
ATOM     18  C   UNL     1       3.705   3.964  19.044  0.00  0.00    +0.000 A 
BRANCH  13  20
ATOM     19  C   UNL     1       1.641   2.619  21.775  0.00  0.00    +0.000 C 
ATOM     20  O   UNL     1       2.753   2.656  20.887  0.00  0.00    +0.000 OA
ENDBRANCH  13  20
ENDBRANCH   1  17
BRANCH   4  21
ATOM     21  C   UNL     1       7.831   7.809  17.876  0.00  0.00    +0.000 C 
BRANCH  21  22
ATOM     22  C   UNL     1       7.833   9.330  17.724  0.00  0.00    +0.000 C 
BRANCH  22  23
ATOM     23  C   UNL     1       8.775  10.275  18.460  0.00  0.00    +0.000 A 
ATOM     24  C   UNL     1       9.293   9.750  19.645  0.00  0.00    +0.000 A 
ATOM     25  N   UNL     1       9.518  10.823  20.436  0.00  0.00    +0.000 N 
ATOM     26  C   UNL     1       9.999  11.810  19.627  0.00  0.00    +0.000 A 
ATOM     27  C   UNL     1      10.831  12.857  20.007  0.00  0.00    +0.000 A 
ATOM     28  C   UNL     1      11.227  13.725  19.016  0.00  0.00    +0.000 A 
ATOM     29  C   UNL     1      10.746  13.614  17.711  0.00  0.00    +0.000 A 
ATOM     30  C   UNL     1       9.837  12.572  17.350  0.00  0.00    +0.000 A 
ATOM     31  C   UNL     1       9.493  11.567  18.332  0.00  0.00    +0.000 A 
ATOM     32  H   UNL     1       9.558  10.825  21.444  0.00  0.00    +0.000 HD
BRANCH  29  33
ATOM     33  O   UNL     1      11.356  14.583  16.970  0.00  0.00    +0.000 OA
ATOM     34  C   UNL     1      12.331  15.472  17.452  0.00  0.00    +0.000 C 
ENDBRANCH  29  33
ENDBRANCH  22  23
ENDBRANCH  21  22
ENDBRANCH   4  21
TORSDOF 6
ENDMDL
MODEL 5
REMARK VINA RESULT:      -9.0      1.368      1.908
REMARK  Name = 
REMARK  8 active torsions:
REMARK  status: ('A' for Active; 'I' for Inactive)
REMARK    1  A    between atoms: C_1  and  O_2
REMARK    2  A    between atoms: O_2  and  C_3
REMARK    3  A    between atoms: C_7  and  C_8
REMARK    4  A    between atoms: N_11  and  C_12
REMARK    5  A    between atoms: C_12  and  C_13
REMARK    6  A    between atoms: C_13  and  C_14
REMARK    7  A    between atoms: C_20  and  O_21
REMARK    8  A    between atoms: O_21  and  C_22
REMARK                            x       y       z     vdW  Elec       q    Type
REMARK                         _______ _______ _______ _____ _____    ______ ____
ROOT
ATOM      1  C   UNL     1       4.470   4.862  17.810  0.00  0.00    +0.000 A 
ATOM      2  N   UNL     1       3.699   5.944  17.890  0.00  0.00    +0.000 NA
ATOM      3  C   UNL     1       2.775   5.976  18.856  0.00  0.00    +0.000 A 
ATOM      4  N   UNL     1       2.074   7.193  19.026  0.00  0.00    +0.000 N 
ATOM      5  C   UNL     1       2.565   4.857  19.710  0.00  0.00    +0.000 A 
ATOM      6  C   UNL     1       1.493   4.652  20.624  0.00  0.00    +0.000 A 
ATOM      7  C   UNL     1       1.402   3.480  21.394  0.00  0.00    +0.000 A 
ATOM      8  C   UNL     1       2.403   2.522  21.315  0.00  0.00    +0.000 A 
ATOM      9  C   UNL     1       3.448   2.713  20.412  0.00  0.00    +0.000 A 
ATOM     10  C   UNL     1       3.504   3.827  19.586  0.00  0.00    +0.000 A 
ATOM     11  N   UNL     1       4.469   3.835  18.659  0.00  0.00    +0.000 NA
ATOM     12  H   UNL     1       2.365   7.555  19.934  0.00  0.00    +0.000 HD
ENDROOT
BRANCH   1  17
ATOM     13  C   UNL     1       5.726   4.239  14.273  0.00  0.00    +0.000 A 
ATOM     14  C   UNL     1       7.029   4.726  14.359  0.00  0.00    +0.000 A 
ATOM     15  C   UNL     1       7.521   5.210  15.568  0.00  0.00    +0.000 A 
ATOM     16  C   UNL     1       6.698   5.225  16.694  0.00  0.00    +0.000 A 
ATOM     17  C   UNL     1       5.368   4.766  16.634  0.00  0.00    +0.000 A 
ATOM     18  C   UNL     1       4.904   4.273  15.400  0.00  0.00    +0.000 A 
BRANCH  13  20
ATOM     19  C   UNL     1       6.403   3.348  12.192  0.00  0.00    +0.000 C 
ATOM     20  O   UNL     1       5.346   3.789  13.038  0.00  0.00    +0.000 OA
ENDBRANCH  13  20
ENDBRANCH   1  17
BRANCH   4  21
ATOM     21  C   UNL     1       2.272   8.212  17.931  0.00  0.00    +0.000 C 
BRANCH  21  22
ATOM     22  C   UNL     1       1.924   9.614  18.431  0.00  0.00    +0.000 C 
BRANCH  22  23
ATOM     23  C   UNL     1       0.509  10.174  18.529  0.00  0.00    +0.000 A 
ATOM     24  C   UNL     1      -0.384   9.622  17.609  0.00  0.00    +0.000 A 
ATOM     25  N   UNL     1      -1.294  10.594  17.376  0.00  0.00    +0.000 N 
ATOM     26  C   UNL     1      -1.529  11.203  18.574  0.00  0.00    +0.000 A 
ATOM     27  C   UNL     1      -2.695  11.859  18.951  0.00  0.00    +0.000 A 
ATOM     28  C   UNL     1      -2.732  12.374  20.226  0.00  0.00    +0.000 A 
ATOM     29  C   UNL     1      -1.620  12.321  21.069  0.00  0.00    +0.000 A 
ATOM     30  C   UNL     1      -0.405  11.702  20.642  0.00  0.00    +0.000 A 
ATOM     31  C   UNL     1      -0.365  11.041  19.356  0.00  0.00    +0.000 A 
ATOM     32  H   UNL     1      -1.864  10.694  16.550  0.00  0.00    +0.000 HD
BRANCH  29  33
ATOM     33  O   UNL     1      -1.989  12.869  22.262  0.00  0.00    +0.000 OA
ATOM     34  C   UNL     1      -2.721  12.207  23.262  0.00  0.00    +0.000 C 
ENDBRANCH  29  33
ENDBRANCH  22  23
ENDBRANCH  21  22
ENDBRANCH   4  21
TORSDOF 6
ENDMDL
MODEL 6
REMARK VINA RESULT:      -9.0      0.881      1.285
REMARK  Name = 
REMARK  8 active torsions:
REMARK  status: ('A' for Active; 'I' for Inactive)
REMARK    1  A    between atoms: C_1  and  O_2
REMARK    2  A    between atoms: O_2  and  C_3
REMARK    3  A    between atoms: C_7  and  C_8
REMARK    4  A    between atoms: N_11  and  C_12
REMARK    5  A    between atoms: C_12  and  C_13
REMARK    6  A    between atoms: C_13  and  C_14
REMARK    7  A    between atoms: C_20  and  O_21
REMARK    8  A    between atoms: O_21  and  C_22
REMARK                            x       y       z     vdW  Elec       q    Type
REMARK                         _______ _______ _______ _____ _____    ______ ____
ROOT
ATOM      1  C   UNL     1       4.501   4.796  17.420  0.00  0.00    +0.000 A 
ATOM      2  N   UNL     1       3.886   5.953  17.653  0.00  0.00    +0.000 NA
ATOM      3  C   UNL     1       3.162   6.055  18.773  0.00  0.00    +0.000 A 
ATOM      4  N   UNL     1       2.648   7.336  19.084  0.00  0.00    +0.000 N 
ATOM      5  C   UNL     1       2.982   4.939  19.636  0.00  0.00    +0.000 A 
ATOM      6  C   UNL     1       2.077   4.823  20.729  0.00  0.00    +0.000 A 
ATOM      7  C   UNL     1       1.991   3.643  21.487  0.00  0.00    +0.000 A 
ATOM      8  C   UNL     1       2.845   2.584  21.214  0.00  0.00    +0.000 A 
ATOM      9  C   UNL     1       3.725   2.688  20.138  0.00  0.00    +0.000 A 
ATOM     10  C   UNL     1       3.758   3.815  19.330  0.00  0.00    +0.000 A 
ATOM     11  N   UNL     1       4.535   3.748  18.241  0.00  0.00    +0.000 NA
ATOM     12  H   UNL     1       3.137   7.633  19.927  0.00  0.00    +0.000 HD
ENDROOT
BRANCH   1  17
ATOM     13  C   UNL     1       7.019   5.102  14.585  0.00  0.00    +0.000 A 
ATOM     14  C   UNL     1       6.480   4.223  13.648  0.00  0.00    +0.000 A 
ATOM     15  C   UNL     1       5.279   3.567  13.906  0.00  0.00    +0.000 A 
ATOM     16  C   UNL     1       4.623   3.779  15.119  0.00  0.00    +0.000 A 
ATOM     17  C   UNL     1       5.155   4.640  16.099  0.00  0.00    +0.000 A 
ATOM     18  C   UNL     1       6.365   5.294  15.803  0.00  0.00    +0.000 A 
BRANCH  13  20
ATOM     19  C   UNL     1       8.452   5.771  12.828  0.00  0.00    +0.000 C 
ATOM     20  O   UNL     1       8.203   5.689  14.228  0.00  0.00    +0.000 OA
ENDBRANCH  13  20
ENDBRANCH   1  17
BRANCH   4  21
ATOM     21  C   UNL     1       2.761   8.363  17.984  0.00  0.00    +0.000 C 
BRANCH  21  22
ATOM     22  C   UNL     1       1.375   8.769  17.483  0.00  0.00    +0.000 C 
BRANCH  22  23
ATOM     23  C   UNL     1       0.475   9.797  18.158  0.00  0.00    +0.000 A 
ATOM     24  C   UNL     1       1.161  10.715  18.956  0.00  0.00    +0.000 A 
ATOM     25  N   UNL     1       0.281  11.071  19.918  0.00  0.00    +0.000 N 
ATOM     26  C   UNL     1      -0.938  11.169  19.314  0.00  0.00    +0.000 A 
ATOM     27  C   UNL     1      -1.999  11.970  19.722  0.00  0.00    +0.000 A 
ATOM     28  C   UNL     1      -3.132  11.942  18.942  0.00  0.00    +0.000 A 
ATOM     29  C   UNL     1      -3.245  11.085  17.847  0.00  0.00    +0.000 A 
ATOM     30  C   UNL     1      -2.171  10.217  17.480  0.00  0.00    +0.000 A 
ATOM     31  C   UNL     1      -0.918  10.304  18.199  0.00  0.00    +0.000 A 
ATOM     32  H   UNL     1       0.508  11.429  20.834  0.00  0.00    +0.000 HD
BRANCH  29  33
ATOM     33  O   UNL     1      -4.455  11.327  17.265  0.00  0.00    +0.000 OA
ATOM     34  C   UNL     1      -5.697  11.218  17.913  0.00  0.00    +0.000 C 
ENDBRANCH  29  33
ENDBRANCH  22  23
ENDBRANCH  21  22
ENDBRANCH   4  21
TORSDOF 6
ENDMDL
MODEL 7
REMARK VINA RESULT:      -8.9      1.902      2.808
REMARK  Name = 
REMARK  8 active torsions:
REMARK  status: ('A' for Active; 'I' for Inactive)
REMARK    1  A    between atoms: C_1  and  O_2
REMARK    2  A    between atoms: O_2  and  C_3
REMARK    3  A    between atoms: C_7  and  C_8
REMARK    4  A    between atoms: N_11  and  C_12
REMARK    5  A    between atoms: C_12  and  C_13
REMARK    6  A    between atoms: C_13  and  C_14
REMARK    7  A    between atoms: C_20  and  O_21
REMARK    8  A    between atoms: O_21  and  C_22
REMARK                            x       y       z     vdW  Elec       q    Type
REMARK                         _______ _______ _______ _____ _____    ______ ____
ROOT
ATOM      1  C   UNL     1       4.551   4.857  17.929  0.00  0.00    +0.000 A 
ATOM      2  N   UNL     1       3.839   5.971  18.084  0.00  0.00    +0.000 NA
ATOM      3  C   UNL     1       2.940   5.999  19.074  0.00  0.00    +0.000 A 
ATOM      4  N   UNL     1       2.309   7.240  19.323  0.00  0.00    +0.000 N 
ATOM      5  C   UNL     1       2.691   4.849  19.874  0.00  0.00    +0.000 A 
ATOM      6  C   UNL     1       1.631   4.651  20.803  0.00  0.00    +0.000 A 
ATOM      7  C   UNL     1       1.495   3.447  21.513  0.00  0.00    +0.000 A 
ATOM      8  C   UNL     1       2.443   2.444  21.360  0.00  0.00    +0.000 A 
ATOM      9  C   UNL     1       3.477   2.629  20.442  0.00  0.00    +0.000 A 
ATOM     10  C   UNL     1       3.572   3.780  19.674  0.00  0.00    +0.000 A 
ATOM     11  N   UNL     1       4.515   3.788  18.724  0.00  0.00    +0.000 NA
ATOM     12  H   UNL     1       2.638   7.539  20.241  0.00  0.00    +0.000 HD
ENDROOT
BRANCH   1  17
ATOM     13  C   UNL     1       5.713   4.264  14.355  0.00  0.00    +0.000 A 
ATOM     14  C   UNL     1       7.012   4.767  14.407  0.00  0.00    +0.000 A 
ATOM     15  C   UNL     1       7.533   5.253  15.603  0.00  0.00    +0.000 A 
ATOM     16  C   UNL     1       6.742   5.252  16.752  0.00  0.00    +0.000 A 
ATOM     17  C   UNL     1       5.416   4.776  16.728  0.00  0.00    +0.000 A 
ATOM     18  C   UNL     1       4.923   4.284  15.506  0.00  0.00    +0.000 A 
BRANCH  13  20
ATOM     19  C   UNL     1       6.340   3.372  12.259  0.00  0.00    +0.000 C 
ATOM     20  O   UNL     1       5.304   3.815  13.129  0.00  0.00    +0.000 OA
ENDBRANCH  13  20
ENDBRANCH   1  17
BRANCH   4  21
ATOM     21  C   UNL     1       2.535   8.304  18.278  0.00  0.00    +0.000 C 
BRANCH  21  22
ATOM     22  C   UNL     1       1.202   8.814  17.732  0.00  0.00    +0.000 C 
BRANCH  22  23
ATOM     23  C   UNL     1       0.504  10.089  18.196  0.00  0.00    +0.000 A 
ATOM     24  C   UNL     1      -0.867  10.111  17.934  0.00  0.00    +0.000 A 
ATOM     25  N   UNL     1      -1.174  11.419  17.781  0.00  0.00    +0.000 N 
ATOM     26  C   UNL     1      -0.444  12.102  18.710  0.00  0.00    +0.000 A 
ATOM     27  C   UNL     1      -0.775  13.323  19.285  0.00  0.00    +0.000 A 
ATOM     28  C   UNL     1       0.092  13.818  20.231  0.00  0.00    +0.000 A 
ATOM     29  C   UNL     1       1.291  13.172  20.534  0.00  0.00    +0.000 A 
ATOM     30  C   UNL     1       1.651  11.951  19.885  0.00  0.00    +0.000 A 
ATOM     31  C   UNL     1       0.711  11.333  18.975  0.00  0.00    +0.000 A 
ATOM     32  H   UNL     1      -1.955  11.793  17.264  0.00  0.00    +0.000 HD
BRANCH  29  33
ATOM     33  O   UNL     1       1.895  13.881  21.530  0.00  0.00    +0.000 OA
ATOM     34  C   UNL     1       3.204  14.388  21.478  0.00  0.00    +0.000 C 
ENDBRANCH  29  33
ENDBRANCH  22  23
ENDBRANCH  21  22
ENDBRANCH   4  21
TORSDOF 6
ENDMDL
MODEL 8
REMARK VINA RESULT:      -8.9      1.794      2.461
REMARK  Name = 
REMARK  8 active torsions:
REMARK  status: ('A' for Active; 'I' for Inactive)
REMARK    1  A    between atoms: C_1  and  O_2
REMARK    2  A    between atoms: O_2  and  C_3
REMARK    3  A    between atoms: C_7  and  C_8
REMARK    4  A    between atoms: N_11  and  C_12
REMARK    5  A    between atoms: C_12  and  C_13
REMARK    6  A    between atoms: C_13  and  C_14
REMARK    7  A    between atoms: C_20  and  O_21
REMARK    8  A    between atoms: O_21  and  C_22
REMARK                            x       y       z     vdW  Elec       q    Type
REMARK                         _______ _______ _______ _____ _____    ______ ____
ROOT
ATOM      1  C   UNL     1       4.532   4.875  17.692  0.00  0.00    +0.000 A 
ATOM      2  N   UNL     1       3.846   6.007  17.828  0.00  0.00    +0.000 NA
ATOM      3  C   UNL     1       2.948   6.073  18.817  0.00  0.00    +0.000 A 
ATOM      4  N   UNL     1       2.345   7.332  19.046  0.00  0.00    +0.000 N 
ATOM      5  C   UNL     1       2.674   4.943  19.637  0.00  0.00    +0.000 A 
ATOM      6  C   UNL     1       1.610   4.786  20.570  0.00  0.00    +0.000 A 
ATOM      7  C   UNL     1       1.448   3.597  21.301  0.00  0.00    +0.000 A 
ATOM      8  C   UNL     1       2.372   2.571  21.165  0.00  0.00    +0.000 A 
ATOM      9  C   UNL     1       3.410   2.716  20.244  0.00  0.00    +0.000 A 
ATOM     10  C   UNL     1       3.530   3.851  19.456  0.00  0.00    +0.000 A 
ATOM     11  N   UNL     1       4.473   3.821  18.506  0.00  0.00    +0.000 NA
ATOM     12  H   UNL     1       2.681   7.639  19.958  0.00  0.00    +0.000 HD
ENDROOT
BRANCH   1  17
ATOM     13  C   UNL     1       5.668   4.249  14.116  0.00  0.00    +0.000 A 
ATOM     14  C   UNL     1       6.994   4.672  14.175  0.00  0.00    +0.000 A 
ATOM     15  C   UNL     1       7.540   5.113  15.378  0.00  0.00    +0.000 A 
ATOM     16  C   UNL     1       6.747   5.149  16.525  0.00  0.00    +0.000 A 
ATOM     17  C   UNL     1       5.395   4.755  16.493  0.00  0.00    +0.000 A 
ATOM     18  C   UNL     1       4.876   4.305  15.264  0.00  0.00    +0.000 A 
BRANCH  13  20
ATOM     19  C   UNL     1       6.173   3.085  12.122  0.00  0.00    +0.000 C 
ATOM     20  O   UNL     1       5.236   3.839  12.884  0.00  0.00    +0.000 OA
ENDBRANCH  13  20
ENDBRANCH   1  17
BRANCH   4  21
ATOM     21  C   UNL     1       2.595   8.372  17.981  0.00  0.00    +0.000 C 
BRANCH  21  22
ATOM     22  C   UNL     1       1.273   8.941  17.465  0.00  0.00    +0.000 C 
BRANCH  22  23
ATOM     23  C   UNL     1       0.330   9.822  18.277  0.00  0.00    +0.000 A 
ATOM     24  C   UNL     1      -0.760  10.306  17.550  0.00  0.00    +0.000 A 
ATOM     25  N   UNL     1      -1.075  11.484  18.133  0.00  0.00    +0.000 N 
ATOM     26  C   UNL     1      -0.922  11.307  19.477  0.00  0.00    +0.000 A 
ATOM     27  C   UNL     1      -1.589  11.999  20.482  0.00  0.00    +0.000 A 
ATOM     28  C   UNL     1      -1.307  11.634  21.778  0.00  0.00    +0.000 A 
ATOM     29  C   UNL     1      -0.332  10.680  22.073  0.00  0.00    +0.000 A 
ATOM     30  C   UNL     1       0.394  10.025  21.032  0.00  0.00    +0.000 A 
ATOM     31  C   UNL     1       0.041  10.290  19.654  0.00  0.00    +0.000 A 
ATOM     32  H   UNL     1      -1.557  12.256  17.698  0.00  0.00    +0.000 HD
BRANCH  29  33
ATOM     33  O   UNL     1      -0.324  10.513  23.427  0.00  0.00    +0.000 OA
ATOM     34  C   UNL     1       0.261   9.429  24.102  0.00  0.00    +0.000 C 
ENDBRANCH  29  33
ENDBRANCH  22  23
ENDBRANCH  21  22
ENDBRANCH   4  21
TORSDOF 6
ENDMDL
MODEL 9
REMARK VINA RESULT:      -8.6      1.715      2.047
REMARK  Name = 
REMARK  8 active torsions:
REMARK  status: ('A' for Active; 'I' for Inactive)
REMARK    1  A    between atoms: C_1  and  O_2
REMARK    2  A    between atoms: O_2  and  C_3
REMARK    3  A    between atoms: C_7  and  C_8
REMARK    4  A    between atoms: N_11  and  C_12
REMARK    5  A    between atoms: C_12  and  C_13
REMARK    6  A    between atoms: C_13  and  C_14
REMARK    7  A    between atoms: C_20  and  O_21
REMARK    8  A    between atoms: O_21  and  C_22
REMARK                            x       y       z     vdW  Elec       q    Type
REMARK                         _______ _______ _______ _____ _____    ______ ____
ROOT
ATOM      1  C   UNL     1       4.463   4.773  17.969  0.00  0.00    +0.000 A 
ATOM      2  N   UNL     1       3.657   5.827  18.068  0.00  0.00    +0.000 NA
ATOM      3  C   UNL     1       2.734   5.812  19.036  0.00  0.00    +0.000 A 
ATOM      4  N   UNL     1       1.994   7.003  19.227  0.00  0.00    +0.000 N 
ATOM      5  C   UNL     1       2.561   4.673  19.870  0.00  0.00    +0.000 A 
ATOM      6  C   UNL     1       1.498   4.417  20.782  0.00  0.00    +0.000 A 
ATOM      7  C   UNL     1       1.446   3.230  21.531  0.00  0.00    +0.000 A 
ATOM      8  C   UNL     1       2.478   2.307  21.435  0.00  0.00    +0.000 A 
ATOM      9  C   UNL     1       3.516   2.548  20.535  0.00  0.00    +0.000 A 
ATOM     10  C   UNL     1       3.534   3.676  19.729  0.00  0.00    +0.000 A 
ATOM     11  N   UNL     1       4.497   3.732  18.801  0.00  0.00    +0.000 NA
ATOM     12  H   UNL     1       2.273   7.359  20.140  0.00  0.00    +0.000 HD
ENDROOT
BRANCH   1  17
ATOM     13  C   UNL     1       5.739   4.239  14.425  0.00  0.00    +0.000 A 
ATOM     14  C   UNL     1       7.020   4.779  14.515  0.00  0.00    +0.000 A 
ATOM     15  C   UNL     1       7.494   5.271  15.728  0.00  0.00    +0.000 A 
ATOM     16  C   UNL     1       6.673   5.240  16.855  0.00  0.00    +0.000 A 
ATOM     17  C   UNL     1       5.363   4.726  16.792  0.00  0.00    +0.000 A 
ATOM     18  C   UNL     1       4.917   4.228  15.554  0.00  0.00    +0.000 A 
BRANCH  13  20
ATOM     19  C   UNL     1       6.450   3.498  12.297  0.00  0.00    +0.000 C 
ATOM     20  O   UNL     1       5.376   3.787  13.185  0.00  0.00    +0.000 OA
ENDBRANCH  13  20
ENDBRANCH   1  17
BRANCH   4  21
ATOM     21  C   UNL     1       2.157   8.047  18.149  0.00  0.00    +0.000 C 
BRANCH  21  22
ATOM     22  C   UNL     1       1.501   9.362  18.570  0.00  0.00    +0.000 C 
BRANCH  22  23
ATOM     23  C   UNL     1       0.923   9.640  19.953  0.00  0.00    +0.000 A 
ATOM     24  C   UNL     1       1.661   9.083  20.999  0.00  0.00    +0.000 A 
ATOM     25  N   UNL     1       0.760   8.845  21.978  0.00  0.00    +0.000 N 
ATOM     26  C   UNL     1      -0.105   9.899  21.976  0.00  0.00    +0.000 A 
ATOM     27  C   UNL     1      -0.838  10.367  23.060  0.00  0.00    +0.000 A 
ATOM     28  C   UNL     1      -1.628  11.472  22.844  0.00  0.00    +0.000 A 
ATOM     29  C   UNL     1      -1.758  12.042  21.577  0.00  0.00    +0.000 A 
ATOM     30  C   UNL     1      -1.050  11.508  20.456  0.00  0.00    +0.000 A 
ATOM     31  C   UNL     1      -0.115  10.424  20.665  0.00  0.00    +0.000 A 
ATOM     32  H   UNL     1       0.845   8.162  22.716  0.00  0.00    +0.000 HD
BRANCH  29  33
ATOM     33  O   UNL     1      -2.564  13.135  21.703  0.00  0.00    +0.000 OA
ATOM     34  C   UNL     1      -3.943  13.091  21.971  0.00  0.00    +0.000 C 
ENDBRANCH  29  33
ENDBRANCH  22  23
ENDBRANCH  21  22
ENDBRANCH   4  21
TORSDOF 6
ENDMDL
