MODEL 1
REMARK VINA RESULT:      -9.2      0.000      0.000
REMARK  Name = 
REMARK  7 active torsions:
REMARK  status: ('A' for Active; 'I' for Inactive)
REMARK    1  A    between atoms: C_1  and  C_2
REMARK    2  A    between atoms: C_2  and  N_3
REMARK    3  A    between atoms: C_7  and  C_8
REMARK    4  A    between atoms: C_15  and  C_16
REMARK    5  A    between atoms: C_21  and  O_22
REMARK    6  A    between atoms: O_22  and  C_23
REMARK    7  A    between atoms: C_23  and  C_24
REMARK                            x       y       z     vdW  Elec       q    Type
REMARK                         _______ _______ _______ _____ _____    ______ ____
ROOT
ATOM      1  C   UNL     1       4.724   4.256  18.189  0.00  0.00    +0.000 A 
ATOM      2  C   UNL     1       4.679   3.005  18.855  0.00  0.00    +0.000 A 
ATOM      3  N   UNL     1       3.805   2.958  19.854  0.00  0.00    +0.000 NA
ATOM      4  N   UNL     1       3.239   4.184  19.838  0.00  0.00    +0.000 N 
ATOM      5  C   UNL     1       2.186   4.522  20.702  0.00  0.00    +0.000 A 
ATOM      6  O   UNL     1       1.709   3.723  21.500  0.00  0.00    +0.000 OA
ATOM      7  C   UNL     1       1.720   5.915  20.579  0.00  0.00    +0.000 A 
ATOM      8  C   UNL     1       2.344   6.744  19.724  0.00  0.00    +0.000 A 
ATOM      9  N   UNL     1       3.372   6.331  18.884  0.00  0.00    +0.000 N 
ATOM     10  C   UNL     1       3.817   5.035  18.896  0.00  0.00    +0.000 A 
ATOM     11  H   UNL     1       3.782   7.047  18.288  0.00  0.00    +0.000 HD
ENDROOT
BRANCH   8  12
ATOM     12  C   UNL     1       1.894   8.148  19.735  0.00  0.00    +0.000 A 
ATOM     13  C   UNL     1       1.671   8.831  18.533  0.00  0.00    +0.000 A 
ATOM     14  C   UNL     1       1.090  10.102  18.545  0.00  0.00    +0.000 A 
ATOM     15  C   UNL     1       0.721  10.695  19.754  0.00  0.00    +0.000 A 
ATOM     16 CL   UNL     1      -0.034  12.249  19.704  0.00  0.00    +0.000 Cl
ATOM     17  C   UNL     1       0.927  10.022  20.969  0.00  0.00    +0.000 A 
ATOM     18  C   UNL     1       1.526   8.756  20.952  0.00  0.00    +0.000 A 
BRANCH  17  19
ATOM     19  O   UNL     1       0.539  10.675  22.110  0.00  0.00    +0.000 OA
BRANCH  19  20
ATOM     20  C   UNL     1      -0.712  10.298  22.698  0.00  0.00    +0.000 C 
BRANCH  20  21
ATOM     21  C   UNL     1      -1.620  11.512  22.899  0.00  0.00    +0.000 C 
ATOM     22  F   UNL     1      -2.599  11.302  23.803  0.00  0.00    +0.000 F 
ATOM     23  F   UNL     1      -0.900  12.580  23.324  0.00  0.00    +0.000 F 
ATOM     24  F   UNL     1      -2.211  11.870  21.735  0.00  0.00    +0.000 F 
ENDBRANCH  20  21
ENDBRANCH  19  20
ENDBRANCH  17  19
ENDBRANCH   8  12
BRANCH   1  29
ATOM     25  N   UNL     1       6.654   5.440  16.910  0.00  0.00    +0.000 N 
ATOM     26  N   UNL     1       7.198   5.492  15.675  0.00  0.00    +0.000 NA
ATOM     27  C   UNL     1       6.449   4.660  14.956  0.00  0.00    +0.000 A 
ATOM     28  C   UNL     1       5.417   4.079  15.713  0.00  0.00    +0.000 A 
ATOM     29  C   UNL     1       5.557   4.591  16.986  0.00  0.00    +0.000 A 
BRANCH  25  31
ATOM     30  C   UNL     1       7.651   7.665  17.624  0.00  0.00    +0.000 C 
ATOM     31  C   UNL     1       7.262   6.232  17.971  0.00  0.00    +0.000 C 
ENDBRANCH  25  31
ENDBRANCH   1  29
TORSDOF 6
ENDMDL
MODEL 2
REMARK VINA RESULT:      -9.1      1.123      1.287
REMARK  Name = 
REMARK  7 active torsions:
REMARK  status: ('A' for Active; 'I' for Inactive)
REMARK    1  A    between atoms: C_1  and  C_2
REMARK    2  A    between atoms: C_2  and  N_3
REMARK    3  A    between atoms: C_7  and  C_8
REMARK    4  A    between atoms: C_15  and  C_16
REMARK    5  A    between atoms: C_21  and  O_22
REMARK    6  A    between atoms: O_22  and  C_23
REMARK    7  A    between atoms: C_23  and  C_24
REMARK                            x       y       z     vdW  Elec       q    Type
REMARK                         _______ _______ _______ _____ _____    ______ ____
ROOT
ATOM      1  C   UNL     1       4.949   4.318  18.021  0.00  0.00    +0.000 A 
ATOM      2  C   UNL     1       4.948   3.147  18.818  0.00  0.00    +0.000 A 
ATOM      3  N   UNL     1       4.085   3.182  19.827  0.00  0.00    +0.000 NA
ATOM      4  N   UNL     1       3.483   4.382  19.687  0.00  0.00    +0.000 N 
ATOM      5  C   UNL     1       2.428   4.781  20.523  0.00  0.00    +0.000 A 
ATOM      6  O   UNL     1       1.983   4.060  21.408  0.00  0.00    +0.000 OA
ATOM      7  C   UNL     1       1.920   6.139  20.257  0.00  0.00    +0.000 A 
ATOM      8  C   UNL     1       2.511   6.888  19.310  0.00  0.00    +0.000 A 
ATOM      9  N   UNL     1       3.542   6.417  18.505  0.00  0.00    +0.000 N 
ATOM     10  C   UNL     1       4.026   5.143  18.652  0.00  0.00    +0.000 A 
ATOM     11  H   UNL     1       3.925   7.075  17.831  0.00  0.00    +0.000 HD
ENDROOT
BRANCH   8  12
ATOM     12  C   UNL     1       2.019   8.272  19.175  0.00  0.00    +0.000 A 
ATOM     13  C   UNL     1       2.366   9.043  18.058  0.00  0.00    +0.000 A 
ATOM     14  C   UNL     1       1.768  10.289  17.852  0.00  0.00    +0.000 A 
ATOM     15  C   UNL     1       0.817  10.770  18.755  0.00  0.00    +0.000 A 
ATOM     16 CL   UNL     1       0.080  12.299  18.425  0.00  0.00    +0.000 Cl
ATOM     17  C   UNL     1       0.448  10.008  19.874  0.00  0.00    +0.000 A 
ATOM     18  C   UNL     1       1.062   8.767  20.085  0.00  0.00    +0.000 A 
BRANCH  17  19
ATOM     19  O   UNL     1      -0.491  10.553  20.711  0.00  0.00    +0.000 OA
BRANCH  19  20
ATOM     20  C   UNL     1      -0.083  10.872  22.047  0.00  0.00    +0.000 C 
BRANCH  20  21
ATOM     21  C   UNL     1      -0.625   9.853  23.051  0.00  0.00    +0.000 C 
ATOM     22  F   UNL     1      -1.012   8.694  22.480  0.00  0.00    +0.000 F 
ATOM     23  F   UNL     1       0.317   9.551  23.979  0.00  0.00    +0.000 F 
ATOM     24  F   UNL     1      -1.692  10.355  23.718  0.00  0.00    +0.000 F 
ENDBRANCH  20  21
ENDBRANCH  19  20
ENDBRANCH  17  19
ENDBRANCH   8  12
BRANCH   1  29
ATOM     25  N   UNL     1       6.690   5.548  16.531  0.00  0.00    +0.000 N 
ATOM     26  N   UNL     1       7.270   5.442  15.315  0.00  0.00    +0.000 NA
ATOM     27  C   UNL     1       6.713   4.358  14.784  0.00  0.00    +0.000 A 
ATOM     28  C   UNL     1       5.769   3.766  15.641  0.00  0.00    +0.000 A 
ATOM     29  C   UNL     1       5.760   4.546  16.779  0.00  0.00    +0.000 A 
BRANCH  25  31
ATOM     30  C   UNL     1       7.846   6.256  18.679  0.00  0.00    +0.000 C 
ATOM     31  C   UNL     1       7.101   6.638  17.405  0.00  0.00    +0.000 C 
ENDBRANCH  25  31
ENDBRANCH   1  29
TORSDOF 6
ENDMDL
MODEL 3
REMARK VINA RESULT:      -8.5      0.763      1.035
REMARK  Name = 
REMARK  7 active torsions:
REMARK  status: ('A' for Active; 'I' for Inactive)
REMARK    1  A    between atoms: C_1  and  C_2
REMARK    2  A    between atoms: C_2  and  N_3
REMARK    3  A    between atoms: C_7  and  C_8
REMARK    4  A    between atoms: C_15  and  C_16
REMARK    5  A    between atoms: C_21  and  O_22
REMARK    6  A    between atoms: O_22  and  C_23
REMARK    7  A    between atoms: C_23  and  C_24
REMARK                            x       y       z     vdW  Elec       q    Type
REMARK                         _______ _______ _______ _____ _____    ______ ____
ROOT
ATOM      1  C   UNL     1       4.811   4.444  18.012  0.00  0.00    +0.000 A 
ATOM      2  C   UNL     1       4.804   3.269  18.806  0.00  0.00    +0.000 A 
ATOM      3  N   UNL     1       3.957   3.314  19.828  0.00  0.00    +0.000 NA
ATOM      4  N   UNL     1       3.370   4.523  19.700  0.00  0.00    +0.000 N 
ATOM      5  C   UNL     1       2.333   4.934  20.552  0.00  0.00    +0.000 A 
ATOM      6  O   UNL     1       1.891   4.216  21.442  0.00  0.00    +0.000 OA
ATOM      7  C   UNL     1       1.840   6.300  20.297  0.00  0.00    +0.000 A 
ATOM      8  C   UNL     1       2.427   7.043  19.344  0.00  0.00    +0.000 A 
ATOM      9  N   UNL     1       3.441   6.560  18.523  0.00  0.00    +0.000 N 
ATOM     10  C   UNL     1       3.908   5.279  18.659  0.00  0.00    +0.000 A 
ATOM     11  H   UNL     1       3.822   7.215  17.845  0.00  0.00    +0.000 HD
ENDROOT
BRANCH   8  12
ATOM     12  C   UNL     1       1.953   8.435  19.220  0.00  0.00    +0.000 A 
ATOM     13  C   UNL     1       2.357   9.228  18.139  0.00  0.00    +0.000 A 
ATOM     14  C   UNL     1       1.780  10.485  17.937  0.00  0.00    +0.000 A 
ATOM     15  C   UNL     1       0.792  10.952  18.806  0.00  0.00    +0.000 A 
ATOM     16 CL   UNL     1       0.083  12.495  18.480  0.00  0.00    +0.000 Cl
ATOM     17  C   UNL     1       0.366  10.167  19.889  0.00  0.00    +0.000 A 
ATOM     18  C   UNL     1       0.961   8.916  20.097  0.00  0.00    +0.000 A 
BRANCH  17  19
ATOM     19  O   UNL     1      -0.605  10.701  20.695  0.00  0.00    +0.000 OA
BRANCH  19  20
ATOM     20  C   UNL     1      -0.205  11.190  21.982  0.00  0.00    +0.000 C 
BRANCH  20  21
ATOM     21  C   UNL     1      -1.417  11.579  22.830  0.00  0.00    +0.000 C 
ATOM     22  F   UNL     1      -1.212  12.684  23.577  0.00  0.00    +0.000 F 
ATOM     23  F   UNL     1      -2.493  11.818  22.042  0.00  0.00    +0.000 F 
ATOM     24  F   UNL     1      -1.757  10.575  23.674  0.00  0.00    +0.000 F 
ENDBRANCH  20  21
ENDBRANCH  19  20
ENDBRANCH  17  19
ENDBRANCH   8  12
BRANCH   1  29
ATOM     25  N   UNL     1       6.532   5.664  16.493  0.00  0.00    +0.000 N 
ATOM     26  N   UNL     1       7.097   5.552  15.271  0.00  0.00    +0.000 NA
ATOM     27  C   UNL     1       6.535   4.463  14.754  0.00  0.00    +0.000 A 
ATOM     28  C   UNL     1       5.603   3.876  15.627  0.00  0.00    +0.000 A 
ATOM     29  C   UNL     1       5.606   4.663  16.759  0.00  0.00    +0.000 A 
BRANCH  25  31
ATOM     30  C   UNL     1       7.776   6.395  18.584  0.00  0.00    +0.000 C 
ATOM     31  C   UNL     1       6.952   6.762  17.354  0.00  0.00    +0.000 C 
ENDBRANCH  25  31
ENDBRANCH   1  29
TORSDOF 6
ENDMDL
MODEL 4
REMARK VINA RESULT:      -8.4      1.343      1.462
REMARK  Name = 
REMARK  7 active torsions:
REMARK  status: ('A' for Active; 'I' for Inactive)
REMARK    1  A    between atoms: C_1  and  C_2
REMARK    2  A    between atoms: C_2  and  N_3
REMARK    3  A    between atoms: C_7  and  C_8
REMARK    4  A    between atoms: C_15  and  C_16
REMARK    5  A    between atoms: C_21  and  O_22
REMARK    6  A    between atoms: O_22  and  C_23
REMARK    7  A    between atoms: C_23  and  C_24
REMARK                            x       y       z     vdW  Elec       q    Type
REMARK                         _______ _______ _______ _____ _____    ______ ____
ROOT
ATOM      1  C   UNL     1       4.621   3.953  17.103  0.00  0.00    +0.000 A 
ATOM      2  C   UNL     1       4.344   2.645  17.573  0.00  0.00    +0.000 A 
ATOM      3  N   UNL     1       3.354   2.589  18.456  0.00  0.00    +0.000 NA
ATOM      4  N   UNL     1       2.947   3.872  18.559  0.00  0.00    +0.000 N 
ATOM      5  C   UNL     1       1.843   4.236  19.346  0.00  0.00    +0.000 A 
ATOM      6  O   UNL     1       1.179   3.413  19.966  0.00  0.00    +0.000 OA
ATOM      7  C   UNL     1       1.568   5.684  19.377  0.00  0.00    +0.000 A 
ATOM      8  C   UNL     1       2.388   6.523  18.722  0.00  0.00    +0.000 A 
ATOM      9  N   UNL     1       3.455   6.086  17.944  0.00  0.00    +0.000 N 
ATOM     10  C   UNL     1       3.735   4.751  17.815  0.00  0.00    +0.000 A 
ATOM     11  H   UNL     1       4.018   6.810  17.504  0.00  0.00    +0.000 HD
ENDROOT
BRANCH   8  12
ATOM     12  C   UNL     1       2.114   7.963  18.888  0.00  0.00    +0.000 A 
ATOM     13  C   UNL     1       1.898   8.778  17.770  0.00  0.00    +0.000 A 
ATOM     14  C   UNL     1       1.478  10.100  17.935  0.00  0.00    +0.000 A 
ATOM     15  C   UNL     1       1.262  10.614  19.215  0.00  0.00    +0.000 A 
ATOM     16 CL   UNL     1       0.699  12.243  19.356  0.00  0.00    +0.000 Cl
ATOM     17  C   UNL     1       1.461   9.810  20.349  0.00  0.00    +0.000 A 
ATOM     18  C   UNL     1       1.900   8.490  20.178  0.00  0.00    +0.000 A 
BRANCH  17  19
ATOM     19  O   UNL     1       1.230  10.391  21.568  0.00  0.00    +0.000 OA
BRANCH  19  20
ATOM     20  C   UNL     1      -0.130  10.681  21.917  0.00  0.00    +0.000 C 
BRANCH  20  21
ATOM     21  C   UNL     1      -0.660   9.689  22.954  0.00  0.00    +0.000 C 
ATOM     22  F   UNL     1      -1.009   8.499  22.423  0.00  0.00    +0.000 F 
ATOM     23  F   UNL     1       0.275   9.449  23.906  0.00  0.00    +0.000 F 
ATOM     24  F   UNL     1      -1.750  10.188  23.584  0.00  0.00    +0.000 F 
ENDBRANCH  20  21
ENDBRANCH  19  20
ENDBRANCH  17  19
ENDBRANCH   8  12
BRANCH   1  29
ATOM     25  N   UNL     1       6.875   4.917  16.233  0.00  0.00    +0.000 N 
ATOM     26  N   UNL     1       7.550   5.085  15.075  0.00  0.00    +0.000 NA
ATOM     27  C   UNL     1       6.736   4.585  14.150  0.00  0.00    +0.000 A 
ATOM     28  C   UNL     1       5.534   4.107  14.698  0.00  0.00    +0.000 A 
ATOM     29  C   UNL     1       5.630   4.324  16.056  0.00  0.00    +0.000 A 
BRANCH  25  31
ATOM     30  C   UNL     1       7.373   6.816  17.846  0.00  0.00    +0.000 C 
ATOM     31  C   UNL     1       7.507   5.343  17.475  0.00  0.00    +0.000 C 
ENDBRANCH  25  31
ENDBRANCH   1  29
TORSDOF 6
ENDMDL
MODEL 5
REMARK VINA RESULT:      -8.3      2.301      3.160
REMARK  Name = 
REMARK  7 active torsions:
REMARK  status: ('A' for Active; 'I' for Inactive)
REMARK    1  A    between atoms: C_1  and  C_2
REMARK    2  A    between atoms: C_2  and  N_3
REMARK    3  A    between atoms: C_7  and  C_8
REMARK    4  A    between atoms: C_15  and  C_16
REMARK    5  A    between atoms: C_21  and  O_22
REMARK    6  A    between atoms: O_22  and  C_23
REMARK    7  A    between atoms: C_23  and  C_24
REMARK                            x       y       z     vdW  Elec       q    Type
REMARK                         _______ _______ _______ _____ _____    ______ ____
ROOT
ATOM      1  C   UNL     1       4.878   4.710  18.856  0.00  0.00    +0.000 A 
ATOM      2  C   UNL     1       4.820   3.332  19.181  0.00  0.00    +0.000 A 
ATOM      3  N   UNL     1       3.768   2.995  19.917  0.00  0.00    +0.000 NA
ATOM      4  N   UNL     1       3.098   4.159  20.064  0.00  0.00    +0.000 N 
ATOM      5  C   UNL     1       1.861   4.221  20.723  0.00  0.00    +0.000 A 
ATOM      6  O   UNL     1       1.311   3.226  21.181  0.00  0.00    +0.000 OA
ATOM      7  C   UNL     1       1.295   5.578  20.829  0.00  0.00    +0.000 A 
ATOM      8  C   UNL     1       1.997   6.622  20.357  0.00  0.00    +0.000 A 
ATOM      9  N   UNL     1       3.212   6.481  19.697  0.00  0.00    +0.000 N 
ATOM     10  C   UNL     1       3.771   5.245  19.503  0.00  0.00    +0.000 A 
ATOM     11  H   UNL     1       3.664   7.341  19.394  0.00  0.00    +0.000 HD
ENDROOT
BRANCH   8  12
ATOM     12  C   UNL     1       1.417   7.957  20.597  0.00  0.00    +0.000 A 
ATOM     13  C   UNL     1       1.534   8.566  21.852  0.00  0.00    +0.000 A 
ATOM     14  C   UNL     1       1.131   9.892  22.029  0.00  0.00    +0.000 A 
ATOM     15  C   UNL     1       0.617  10.620  20.954  0.00  0.00    +0.000 A 
ATOM     16 CL   UNL     1       0.176  12.270  21.222  0.00  0.00    +0.000 Cl
ATOM     17  C   UNL     1       0.501  10.030  19.685  0.00  0.00    +0.000 A 
ATOM     18  C   UNL     1       0.891   8.695  19.517  0.00  0.00    +0.000 A 
BRANCH  17  19
ATOM     19  O   UNL     1      -0.016  10.812  18.685  0.00  0.00    +0.000 OA
BRANCH  19  20
ATOM     20  C   UNL     1      -1.442  10.863  18.552  0.00  0.00    +0.000 C 
BRANCH  20  21
ATOM     21  C   UNL     1      -1.906  10.162  17.275  0.00  0.00    +0.000 C 
ATOM     22  F   UNL     1      -2.144  11.014  16.256  0.00  0.00    +0.000 F 
ATOM     23  F   UNL     1      -0.973   9.275  16.851  0.00  0.00    +0.000 F 
ATOM     24  F   UNL     1      -3.046   9.465  17.495  0.00  0.00    +0.000 F 
ENDBRANCH  20  21
ENDBRANCH  19  20
ENDBRANCH  17  19
ENDBRANCH   8  12
BRANCH   1  29
ATOM     25  N   UNL     1       6.119   5.201  16.624  0.00  0.00    +0.000 N 
ATOM     26  N   UNL     1       7.109   5.983  16.140  0.00  0.00    +0.000 NA
ATOM     27  C   UNL     1       7.524   6.671  17.200  0.00  0.00    +0.000 A 
ATOM     28  C   UNL     1       6.820   6.332  18.368  0.00  0.00    +0.000 A 
ATOM     29  C   UNL     1       5.905   5.374  17.986  0.00  0.00    +0.000 A 
BRANCH  25  31
ATOM     30  C   UNL     1       6.054   4.104  14.334  0.00  0.00    +0.000 C 
ATOM     31  C   UNL     1       5.415   4.321  15.700  0.00  0.00    +0.000 C 
ENDBRANCH  25  31
ENDBRANCH   1  29
TORSDOF 6
ENDMDL
MODEL 6
REMARK VINA RESULT:      -8.3      0.761      1.562
REMARK  Name = 
REMARK  7 active torsions:
REMARK  status: ('A' for Active; 'I' for Inactive)
REMARK    1  A    between atoms: C_1  and  C_2
REMARK    2  A    between atoms: C_2  and  N_3
REMARK    3  A    between atoms: C_7  and  C_8
REMARK    4  A    between atoms: C_15  and  C_16
REMARK    5  A    between atoms: C_21  and  O_22
REMARK    6  A    between atoms: O_22  and  C_23
REMARK    7  A    between atoms: C_23  and  C_24
REMARK                            x       y       z     vdW  Elec       q    Type
REMARK                         _______ _______ _______ _____ _____    ______ ____
ROOT
ATOM      1  C   UNL     1       4.817   4.187  19.068  0.00  0.00    +0.000 A 
ATOM      2  C   UNL     1       4.516   2.881  19.527  0.00  0.00    +0.000 A 
ATOM      3  N   UNL     1       3.363   2.792  20.180  0.00  0.00    +0.000 NA
ATOM      4  N   UNL     1       2.874   4.050  20.133  0.00  0.00    +0.000 N 
ATOM      5  C   UNL     1       1.608   4.370  20.649  0.00  0.00    +0.000 A 
ATOM      6  O   UNL     1       0.871   3.528  21.148  0.00  0.00    +0.000 OA
ATOM      7  C   UNL     1       1.255   5.798  20.553  0.00  0.00    +0.000 A 
ATOM      8  C   UNL     1       2.151   6.665  20.051  0.00  0.00    +0.000 A 
ATOM      9  N   UNL     1       3.383   6.270  19.540  0.00  0.00    +0.000 N 
ATOM     10  C   UNL     1       3.756   4.951  19.537  0.00  0.00    +0.000 A 
ATOM     11  H   UNL     1       3.988   7.013  19.199  0.00  0.00    +0.000 HD
ENDROOT
BRANCH   8  12
ATOM     12  C   UNL     1       1.769   8.089  20.088  0.00  0.00    +0.000 A 
ATOM     13  C   UNL     1       1.678   8.830  18.903  0.00  0.00    +0.000 A 
ATOM     14  C   UNL     1       1.160  10.127  18.925  0.00  0.00    +0.000 A 
ATOM     15  C   UNL     1       0.722  10.689  20.126  0.00  0.00    +0.000 A 
ATOM     16 CL   UNL     1       0.049  12.281  20.084  0.00  0.00    +0.000 Cl
ATOM     17  C   UNL     1       0.794   9.958  21.323  0.00  0.00    +0.000 A 
ATOM     18  C   UNL     1       1.332   8.665  21.298  0.00  0.00    +0.000 A 
BRANCH  17  19
ATOM     19  O   UNL     1       0.346  10.584  22.457  0.00  0.00    +0.000 OA
BRANCH  19  20
ATOM     20  C   UNL     1      -0.998  10.317  22.874  0.00  0.00    +0.000 C 
BRANCH  20  21
ATOM     21  C   UNL     1      -1.814  11.606  22.977  0.00  0.00    +0.000 C 
ATOM     22  F   UNL     1      -2.828  11.527  23.864  0.00  0.00    +0.000 F 
ATOM     23  F   UNL     1      -1.025  12.641  23.357  0.00  0.00    +0.000 F 
ATOM     24  F   UNL     1      -2.349  11.935  21.777  0.00  0.00    +0.000 F 
ENDBRANCH  20  21
ENDBRANCH  19  20
ENDBRANCH  17  19
ENDBRANCH   8  12
BRANCH   1  29
ATOM     25  N   UNL     1       6.200   4.428  16.879  0.00  0.00    +0.000 N 
ATOM     26  N   UNL     1       7.378   4.931  16.449  0.00  0.00    +0.000 NA
ATOM     27  C   UNL     1       7.939   5.425  17.548  0.00  0.00    +0.000 A 
ATOM     28  C   UNL     1       7.140   5.236  18.689  0.00  0.00    +0.000 A 
ATOM     29  C   UNL     1       6.008   4.586  18.246  0.00  0.00    +0.000 A 
BRANCH  25  31
ATOM     30  C   UNL     1       5.546   4.171  14.438  0.00  0.00    +0.000 C 
ATOM     31  C   UNL     1       5.306   3.821  15.902  0.00  0.00    +0.000 C 
ENDBRANCH  25  31
ENDBRANCH   1  29
TORSDOF 6
ENDMDL
MODEL 7
REMARK VINA RESULT:      -8.2      1.678      2.725
REMARK  Name = 
REMARK  7 active torsions:
REMARK  status: ('A' for Active; 'I' for Inactive)
REMARK    1  A    between atoms: C_1  and  C_2
REMARK    2  A    between atoms: C_2  and  N_3
REMARK    3  A    between atoms: C_7  and  C_8
REMARK    4  A    between atoms: C_15  and  C_16
REMARK    5  A    between atoms: C_21  and  O_22
REMARK    6  A    between atoms: O_22  and  C_23
REMARK    7  A    between atoms: C_23  and  C_24
REMARK                            x       y       z     vdW  Elec       q    Type
REMARK                         _______ _______ _______ _____ _____    ______ ____
ROOT
ATOM      1  C   UNL     1       4.914   4.652  18.870  0.00  0.00    +0.000 A 
ATOM      2  C   UNL     1       4.852   3.279  19.214  0.00  0.00    +0.000 A 
ATOM      3  N   UNL     1       3.795   2.954  19.949  0.00  0.00    +0.000 NA
ATOM      4  N   UNL     1       3.127   4.121  20.076  0.00  0.00    +0.000 N 
ATOM      5  C   UNL     1       1.886   4.195  20.728  0.00  0.00    +0.000 A 
ATOM      6  O   UNL     1       1.332   3.207  21.197  0.00  0.00    +0.000 OA
ATOM      7  C   UNL     1       1.322   5.554  20.813  0.00  0.00    +0.000 A 
ATOM      8  C   UNL     1       2.029   6.590  20.330  0.00  0.00    +0.000 A 
ATOM      9  N   UNL     1       3.248   6.438  19.678  0.00  0.00    +0.000 N 
ATOM     10  C   UNL     1       3.805   5.198  19.505  0.00  0.00    +0.000 A 
ATOM     11  H   UNL     1       3.702   7.293  19.366  0.00  0.00    +0.000 HD
ENDROOT
BRANCH   8  12
ATOM     12  C   UNL     1       1.451   7.929  20.548  0.00  0.00    +0.000 A 
ATOM     13  C   UNL     1       1.385   8.473  21.838  0.00  0.00    +0.000 A 
ATOM     14  C   UNL     1       0.991   9.801  22.021  0.00  0.00    +0.000 A 
ATOM     15  C   UNL     1       0.668  10.596  20.919  0.00  0.00    +0.000 A 
ATOM     16 CL   UNL     1       0.229  12.244  21.204  0.00  0.00    +0.000 Cl
ATOM     17  C   UNL     1       0.738  10.073  19.618  0.00  0.00    +0.000 A 
ATOM     18  C   UNL     1       1.117   8.736  19.442  0.00  0.00    +0.000 A 
BRANCH  17  19
ATOM     19  O   UNL     1       0.401  10.919  18.593  0.00  0.00    +0.000 OA
BRANCH  19  20
ATOM     20  C   UNL     1      -0.852  10.698  17.935  0.00  0.00    +0.000 C 
BRANCH  20  21
ATOM     21  C   UNL     1      -1.851  11.810  18.253  0.00  0.00    +0.000 C 
ATOM     22  F   UNL     1      -2.439  11.670  19.460  0.00  0.00    +0.000 F 
ATOM     23  F   UNL     1      -1.239  13.019  18.241  0.00  0.00    +0.000 F 
ATOM     24  F   UNL     1      -2.836  11.854  17.325  0.00  0.00    +0.000 F 
ENDBRANCH  20  21
ENDBRANCH  19  20
ENDBRANCH  17  19
ENDBRANCH   8  12
BRANCH   1  29
ATOM     25  N   UNL     1       6.260   5.011  16.675  0.00  0.00    +0.000 N 
ATOM     26  N   UNL     1       7.223   5.814  16.170  0.00  0.00    +0.000 NA
ATOM     27  C   UNL     1       7.520   6.633  17.175  0.00  0.00    +0.000 A 
ATOM     28  C   UNL     1       6.766   6.360  18.329  0.00  0.00    +0.000 A 
ATOM     29  C   UNL     1       5.946   5.302  17.996  0.00  0.00    +0.000 A 
BRANCH  25  31
ATOM     30  C   UNL     1       6.034   4.066  14.327  0.00  0.00    +0.000 C 
ATOM     31  C   UNL     1       5.681   3.992  15.809  0.00  0.00    +0.000 C 
ENDBRANCH  25  31
ENDBRANCH   1  29
TORSDOF 6
ENDMDL
MODEL 8
REMARK VINA RESULT:      -8.2      2.193      3.257
REMARK  Name = 
REMARK  7 active torsions:
REMARK  status: ('A' for Active; 'I' for Inactive)
REMARK    1  A    between atoms: C_1  and  C_2
REMARK    2  A    between atoms: C_2  and  N_3
REMARK    3  A    between atoms: C_7  and  C_8
REMARK    4  A    between atoms: C_15  and  C_16
REMARK    5  A    between atoms: C_21  and  O_22
REMARK    6  A    between atoms: O_22  and  C_23
REMARK    7  A    between atoms: C_23  and  C_24
REMARK                            x       y       z     vdW  Elec       q    Type
REMARK                         _______ _______ _______ _____ _____    ______ ____
ROOT
ATOM      1  C   UNL     1       4.906   4.764  18.831  0.00  0.00    +0.000 A 
ATOM      2  C   UNL     1       4.832   3.388  19.164  0.00  0.00    +0.000 A 
ATOM      3  N   UNL     1       3.762   3.065  19.881  0.00  0.00    +0.000 NA
ATOM      4  N   UNL     1       3.098   4.234  20.005  0.00  0.00    +0.000 N 
ATOM      5  C   UNL     1       1.847   4.309  20.638  0.00  0.00    +0.000 A 
ATOM      6  O   UNL     1       1.281   3.322  21.092  0.00  0.00    +0.000 OA
ATOM      7  C   UNL     1       1.289   5.671  20.723  0.00  0.00    +0.000 A 
ATOM      8  C   UNL     1       2.008   6.706  20.258  0.00  0.00    +0.000 A 
ATOM      9  N   UNL     1       3.236   6.552  19.624  0.00  0.00    +0.000 N 
ATOM     10  C   UNL     1       3.790   5.311  19.452  0.00  0.00    +0.000 A 
ATOM     11  H   UNL     1       3.699   7.407  19.325  0.00  0.00    +0.000 HD
ENDROOT
BRANCH   8  12
ATOM     12  C   UNL     1       1.433   8.047  20.476  0.00  0.00    +0.000 A 
ATOM     13  C   UNL     1       1.064   8.461  21.762  0.00  0.00    +0.000 A 
ATOM     14  C   UNL     1       0.676   9.784  21.990  0.00  0.00    +0.000 A 
ATOM     15  C   UNL     1       0.660  10.702  20.938  0.00  0.00    +0.000 A 
ATOM     16 CL   UNL     1       0.213  12.335  21.289  0.00  0.00    +0.000 Cl
ATOM     17  C   UNL     1       1.037  10.310  19.644  0.00  0.00    +0.000 A 
ATOM     18  C   UNL     1       1.408   8.978  19.418  0.00  0.00    +0.000 A 
BRANCH  17  19
ATOM     19  O   UNL     1       0.991  11.272  18.669  0.00  0.00    +0.000 OA
BRANCH  19  20
ATOM     20  C   UNL     1       2.229  11.875  18.273  0.00  0.00    +0.000 C 
BRANCH  20  21
ATOM     21  C   UNL     1       2.207  13.388  18.495  0.00  0.00    +0.000 C 
ATOM     22  F   UNL     1       2.876  14.076  17.547  0.00  0.00    +0.000 F 
ATOM     23  F   UNL     1       0.932  13.849  18.505  0.00  0.00    +0.000 F 
ATOM     24  F   UNL     1       2.754  13.707  19.692  0.00  0.00    +0.000 F 
ENDBRANCH  20  21
ENDBRANCH  19  20
ENDBRANCH  17  19
ENDBRANCH   8  12
BRANCH   1  29
ATOM     25  N   UNL     1       6.356   5.066  16.693  0.00  0.00    +0.000 N 
ATOM     26  N   UNL     1       7.307   5.887  16.196  0.00  0.00    +0.000 NA
ATOM     27  C   UNL     1       7.510   6.773  17.166  0.00  0.00    +0.000 A 
ATOM     28  C   UNL     1       6.706   6.527  18.292  0.00  0.00    +0.000 A 
ATOM     29  C   UNL     1       5.955   5.414  17.978  0.00  0.00    +0.000 A 
BRANCH  25  31
ATOM     30  C   UNL     1       5.581   4.303  14.398  0.00  0.00    +0.000 C 
ATOM     31  C   UNL     1       5.873   3.975  15.858  0.00  0.00    +0.000 C 
ENDBRANCH  25  31
ENDBRANCH   1  29
TORSDOF 6
ENDMDL
MODEL 9
REMARK VINA RESULT:      -8.2      2.189      2.950
REMARK  Name = 
REMARK  7 active torsions:
REMARK  status: ('A' for Active; 'I' for Inactive)
REMARK    1  A    between atoms: C_1  and  C_2
REMARK    2  A    between atoms: C_2  and  N_3
REMARK    3  A    between atoms: C_7  and  C_8
REMARK    4  A    between atoms: C_15  and  C_16
REMARK    5  A    between atoms: C_21  and  O_22
REMARK    6  A    between atoms: O_22  and  C_23
REMARK    7  A    between atoms: C_23  and  C_24
REMARK                            x       y       z     vdW  Elec       q    Type
REMARK                         _______ _______ _______ _____ _____    ______ ____
ROOT
ATOM      1  C   UNL     1       4.721   4.364  18.388  0.00  0.00    +0.000 A 
ATOM      2  C   UNL     1       4.861   3.082  18.978  0.00  0.00    +0.000 A 
ATOM      3  N   UNL     1       4.046   2.870  20.005  0.00  0.00    +0.000 NA
ATOM      4  N   UNL     1       3.334   4.015  20.087  0.00  0.00    +0.000 N 
ATOM      5  C   UNL     1       2.288   4.169  21.010  0.00  0.00    +0.000 A 
ATOM      6  O   UNL     1       1.951   3.274  21.776  0.00  0.00    +0.000 OA
ATOM      7  C   UNL     1       1.650   5.498  20.991  0.00  0.00    +0.000 A 
ATOM      8  C   UNL     1       2.127   6.444  20.164  0.00  0.00    +0.000 A 
ATOM      9  N   UNL     1       3.158   6.211  19.261  0.00  0.00    +0.000 N 
ATOM     10  C   UNL     1       3.759   4.983  19.176  0.00  0.00    +0.000 A 
ATOM     11  H   UNL     1       3.449   7.005  18.694  0.00  0.00    +0.000 HD
ENDROOT
BRANCH   8  12
ATOM     12  C   UNL     1       1.509   7.779  20.279  0.00  0.00    +0.000 A 
ATOM     13  C   UNL     1       0.999   8.222  21.505  0.00  0.00    +0.000 A 
ATOM     14  C   UNL     1       0.566   9.543  21.649  0.00  0.00    +0.000 A 
ATOM     15  C   UNL     1       0.646  10.430  20.574  0.00  0.00    +0.000 A 
ATOM     16 CL   UNL     1       0.136  12.063  20.824  0.00  0.00    +0.000 Cl
ATOM     17  C   UNL     1       1.164  10.008  19.339  0.00  0.00    +0.000 A 
ATOM     18  C   UNL     1       1.581   8.678  19.195  0.00  0.00    +0.000 A 
BRANCH  17  19
ATOM     19  O   UNL     1       1.205  10.939  18.335  0.00  0.00    +0.000 OA
BRANCH  19  20
ATOM     20  C   UNL     1       2.474  11.532  18.031  0.00  0.00    +0.000 C 
BRANCH  20  21
ATOM     21  C   UNL     1       2.506  13.010  18.425  0.00  0.00    +0.000 C 
ATOM     22  F   UNL     1       3.393  13.733  17.710  0.00  0.00    +0.000 F 
ATOM     23  F   UNL     1       1.287  13.576  18.249  0.00  0.00    +0.000 F 
ATOM     24  F   UNL     1       2.825  13.153  19.733  0.00  0.00    +0.000 F 
ENDBRANCH  20  21
ENDBRANCH  19  20
ENDBRANCH  17  19
ENDBRANCH   8  12
BRANCH   1  29
ATOM     25  N   UNL     1       6.638   5.585  17.125  0.00  0.00    +0.000 N 
ATOM     26  N   UNL     1       7.039   5.853  15.863  0.00  0.00    +0.000 NA
ATOM     27  C   UNL     1       6.105   5.293  15.100  0.00  0.00    +0.000 A 
ATOM     28  C   UNL     1       5.096   4.675  15.858  0.00  0.00    +0.000 A 
ATOM     29  C   UNL     1       5.449   4.867  17.177  0.00  0.00    +0.000 A 
BRANCH  25  31
ATOM     30  C   UNL     1       7.952   7.489  18.174  0.00  0.00    +0.000 C 
ATOM     31  C   UNL     1       7.467   6.045  18.231  0.00  0.00    +0.000 C 
ENDBRANCH  25  31
ENDBRANCH   1  29
TORSDOF 6
ENDMDL
