MODEL 1
REMARK VINA RESULT:      -8.2      0.000      0.000
REMARK  Name = 
REMARK  7 active torsions:
REMARK  status: ('A' for Active; 'I' for Inactive)
REMARK    1  A    between atoms: C_1  and  C_2
REMARK    2  A    between atoms: C_5  and  C_6
REMARK    3  A    between atoms: C_7  and  C_8
REMARK    4  A    between atoms: C_8  and  S_9
REMARK    5  A    between atoms: S_9  and  C_10
REMARK    6  A    between atoms: C_13  and  C_14
REMARK    7  A    between atoms: N_23  and  C_24
REMARK                            x       y       z     vdW  Elec       q    Type
REMARK                         _______ _______ _______ _____ _____    ______ ____
ROOT
ATOM      1  C   UNL     1       3.132   7.672  17.765  0.00  0.00    +0.000 A 
ATOM      2  N   UNL     1       2.804   8.851  17.288  0.00  0.00    +0.000 NA
ATOM      3  N   UNL     1       1.915   9.438  18.171  0.00  0.00    +0.000 NA
ATOM      4  C   UNL     1       1.775   8.635  19.214  0.00  0.00    +0.000 A 
ATOM      5  N   UNL     1       2.437   7.439  18.947  0.00  0.00    +0.000 N 
ENDROOT
BRANCH   4   6
ATOM      6  C   UNL     1       1.038   9.018  20.478  0.00  0.00    +0.000 A 
ATOM      7  C   UNL     1       1.261   8.423  21.703  0.00  0.00    +0.000 A 
ATOM      8  N   UNL     1       0.507   9.078  22.644  0.00  0.00    +0.000 N 
ATOM      9  C   UNL     1      -0.228  10.080  22.055  0.00  0.00    +0.000 A 
ATOM     10  C   UNL     1      -1.106  11.014  22.630  0.00  0.00    +0.000 A 
ATOM     11  C   UNL     1      -1.733  11.933  21.782  0.00  0.00    +0.000 A 
ATOM     12  C   UNL     1      -1.529  11.887  20.409  0.00  0.00    +0.000 A 
ATOM     13  C   UNL     1      -0.683  10.922  19.852  0.00  0.00    +0.000 A 
ATOM     14  C   UNL     1       0.035  10.030  20.683  0.00  0.00    +0.000 A 
ATOM     15  H   UNL     1       0.499   8.872  23.634  0.00  0.00    +0.000 HD
ENDBRANCH   4   6
BRANCH   5  16
ATOM     16  C   UNL     1       2.302   6.206  19.648  0.00  0.00    +0.000 A 
ATOM     17  C   UNL     1       3.442   5.546  20.139  0.00  0.00    +0.000 A 
ATOM     18  C   UNL     1       3.311   4.314  20.787  0.00  0.00    +0.000 A 
ATOM     19  C   UNL     1       2.048   3.759  20.979  0.00  0.00    +0.000 A 
ATOM     20 CL   UNL     1       1.887   2.247  21.779  0.00  0.00    +0.000 Cl
ATOM     21  C   UNL     1       0.912   4.416  20.513  0.00  0.00    +0.000 A 
ATOM     22  C   UNL     1       1.040   5.626  19.834  0.00  0.00    +0.000 A 
ENDBRANCH   5  16
BRANCH   1  23
ATOM     23  S   UNL     1       4.087   6.450  16.991  0.00  0.00    +0.000 S 
BRANCH  23  24
ATOM     24  C   UNL     1       5.798   7.013  16.901  0.00  0.00    +0.000 C 
BRANCH  24  31
ATOM     25  C   UNL     1       7.550   5.796  19.393  0.00  0.00    +0.000 C 
ATOM     26  C   UNL     1       7.439   5.278  18.008  0.00  0.00    +0.000 A 
ATOM     27  N   UNL     1       8.152   4.203  17.653  0.00  0.00    +0.000 NA
ATOM     28  O   UNL     1       7.877   3.994  16.322  0.00  0.00    +0.000 OA
ATOM     29  C   UNL     1       7.002   4.936  15.879  0.00  0.00    +0.000 A 
ATOM     30  C   UNL     1       6.655   4.839  14.448  0.00  0.00    +0.000 C 
ATOM     31  C   UNL     1       6.673   5.791  16.916  0.00  0.00    +0.000 A 
ENDBRANCH  24  31
ENDBRANCH  23  24
ENDBRANCH   1  23
TORSDOF 5
ENDMDL
MODEL 2
REMARK VINA RESULT:      -7.7      0.804      1.644
REMARK  Name = 
REMARK  7 active torsions:
REMARK  status: ('A' for Active; 'I' for Inactive)
REMARK    1  A    between atoms: C_1  and  C_2
REMARK    2  A    between atoms: C_5  and  C_6
REMARK    3  A    between atoms: C_7  and  C_8
REMARK    4  A    between atoms: C_8  and  S_9
REMARK    5  A    between atoms: S_9  and  C_10
REMARK    6  A    between atoms: C_13  and  C_14
REMARK    7  A    between atoms: N_23  and  C_24
REMARK                            x       y       z     vdW  Elec       q    Type
REMARK                         _______ _______ _______ _____ _____    ______ ____
ROOT
ATOM      1  C   UNL     1       3.106   7.728  17.808  0.00  0.00    +0.000 A 
ATOM      2  N   UNL     1       2.827   8.927  17.351  0.00  0.00    +0.000 NA
ATOM      3  N   UNL     1       1.850   9.479  18.163  0.00  0.00    +0.000 NA
ATOM      4  C   UNL     1       1.605   8.632  19.150  0.00  0.00    +0.000 A 
ATOM      5  N   UNL     1       2.292   7.447  18.902  0.00  0.00    +0.000 N 
ENDROOT
BRANCH   4   6
ATOM      6  C   UNL     1       0.741   8.963  20.347  0.00  0.00    +0.000 A 
ATOM      7  C   UNL     1       0.262   8.016  21.228  0.00  0.00    +0.000 A 
ATOM      8  N   UNL     1      -0.389   8.666  22.247  0.00  0.00    +0.000 N 
ATOM      9  C   UNL     1      -0.368  10.025  22.038  0.00  0.00    +0.000 A 
ATOM     10  C   UNL     1      -0.879  11.069  22.827  0.00  0.00    +0.000 A 
ATOM     11  C   UNL     1      -0.718  12.379  22.366  0.00  0.00    +0.000 A 
ATOM     12  C   UNL     1      -0.116  12.632  21.140  0.00  0.00    +0.000 A 
ATOM     13  C   UNL     1       0.350  11.576  20.350  0.00  0.00    +0.000 A 
ATOM     14  C   UNL     1       0.283  10.243  20.820  0.00  0.00    +0.000 A 
ATOM     15  H   UNL     1      -0.813   8.219  23.049  0.00  0.00    +0.000 HD
ENDBRANCH   4   6
BRANCH   5  16
ATOM     16  C   UNL     1       2.088   6.185  19.532  0.00  0.00    +0.000 A 
ATOM     17  C   UNL     1       2.578   5.958  20.829  0.00  0.00    +0.000 A 
ATOM     18  C   UNL     1       2.416   4.705  21.427  0.00  0.00    +0.000 A 
ATOM     19  C   UNL     1       1.735   3.694  20.752  0.00  0.00    +0.000 A 
ATOM     20 CL   UNL     1       1.533   2.155  21.489  0.00  0.00    +0.000 Cl
ATOM     21  C   UNL     1       1.231   3.917  19.475  0.00  0.00    +0.000 A 
ATOM     22  C   UNL     1       1.422   5.152  18.858  0.00  0.00    +0.000 A 
ENDBRANCH   5  16
BRANCH   1  23
ATOM     23  S   UNL     1       4.137   6.538  17.085  0.00  0.00    +0.000 S 
BRANCH  23  24
ATOM     24  C   UNL     1       5.826   7.165  17.056  0.00  0.00    +0.000 C 
BRANCH  24  31
ATOM     25  C   UNL     1       6.313   5.037  14.609  0.00  0.00    +0.000 C 
ATOM     26  C   UNL     1       6.940   5.051  15.952  0.00  0.00    +0.000 A 
ATOM     27  N   UNL     1       7.792   4.075  16.287  0.00  0.00    +0.000 NA
ATOM     28  O   UNL     1       8.166   4.333  17.585  0.00  0.00    +0.000 OA
ATOM     29  C   UNL     1       7.546   5.459  18.027  0.00  0.00    +0.000 A 
ATOM     30  C   UNL     1       7.840   5.822  19.427  0.00  0.00    +0.000 C 
ATOM     31  C   UNL     1       6.745   5.977  17.024  0.00  0.00    +0.000 A 
ENDBRANCH  24  31
ENDBRANCH  23  24
ENDBRANCH   1  23
TORSDOF 5
ENDMDL
MODEL 3
REMARK VINA RESULT:      -7.7      1.577      2.568
REMARK  Name = 
REMARK  7 active torsions:
REMARK  status: ('A' for Active; 'I' for Inactive)
REMARK    1  A    between atoms: C_1  and  C_2
REMARK    2  A    between atoms: C_5  and  C_6
REMARK    3  A    between atoms: C_7  and  C_8
REMARK    4  A    between atoms: C_8  and  S_9
REMARK    5  A    between atoms: S_9  and  C_10
REMARK    6  A    between atoms: C_13  and  C_14
REMARK    7  A    between atoms: N_23  and  C_24
REMARK                            x       y       z     vdW  Elec       q    Type
REMARK                         _______ _______ _______ _____ _____    ______ ____
ROOT
ATOM      1  C   UNL     1       4.028   5.997  17.921  0.00  0.00    +0.000 A 
ATOM      2  N   UNL     1       4.052   7.081  17.179  0.00  0.00    +0.000 NA
ATOM      3  N   UNL     1       3.099   7.957  17.669  0.00  0.00    +0.000 NA
ATOM      4  C   UNL     1       2.560   7.420  18.752  0.00  0.00    +0.000 A 
ATOM      5  N   UNL     1       3.032   6.118  18.886  0.00  0.00    +0.000 N 
ENDROOT
BRANCH   4   6
ATOM      6  C   UNL     1       1.620   8.160  19.679  0.00  0.00    +0.000 A 
ATOM      7  C   UNL     1       1.529   7.910  21.033  0.00  0.00    +0.000 A 
ATOM      8  N   UNL     1       0.666   8.824  21.583  0.00  0.00    +0.000 N 
ATOM      9  C   UNL     1       0.167   9.657  20.608  0.00  0.00    +0.000 A 
ATOM     10  C   UNL     1      -0.717  10.744  20.713  0.00  0.00    +0.000 A 
ATOM     11  C   UNL     1      -1.065  11.422  19.541  0.00  0.00    +0.000 A 
ATOM     12  C   UNL     1      -0.590  10.998  18.307  0.00  0.00    +0.000 A 
ATOM     13  C   UNL     1       0.256   9.888  18.219  0.00  0.00    +0.000 A 
ATOM     14  C   UNL     1       0.699   9.227  19.389  0.00  0.00    +0.000 A 
ATOM     15  H   UNL     1       0.435   8.895  22.565  0.00  0.00    +0.000 HD
ENDBRANCH   4   6
BRANCH   5  16
ATOM     16  C   UNL     1       2.502   5.091  19.721  0.00  0.00    +0.000 A 
ATOM     17  C   UNL     1       1.358   4.380  19.322  0.00  0.00    +0.000 A 
ATOM     18  C   UNL     1       0.814   3.405  20.163  0.00  0.00    +0.000 A 
ATOM     19  C   UNL     1       1.428   3.112  21.379  0.00  0.00    +0.000 A 
ATOM     20 CL   UNL     1       0.761   1.910  22.411  0.00  0.00    +0.000 Cl
ATOM     21  C   UNL     1       2.573   3.798  21.772  0.00  0.00    +0.000 A 
ATOM     22  C   UNL     1       3.099   4.797  20.955  0.00  0.00    +0.000 A 
ENDBRANCH   5  16
BRANCH   1  23
ATOM     23  S   UNL     1       4.898   4.522  17.661  0.00  0.00    +0.000 S 
BRANCH  23  24
ATOM     24  C   UNL     1       4.761   4.059  15.924  0.00  0.00    +0.000 C 
BRANCH  24  31
ATOM     25  C   UNL     1       5.660   3.640  12.798  0.00  0.00    +0.000 C 
ATOM     26  C   UNL     1       6.334   4.441  13.848  0.00  0.00    +0.000 A 
ATOM     27  N   UNL     1       7.482   5.064  13.560  0.00  0.00    +0.000 NA
ATOM     28  O   UNL     1       7.879   5.676  14.725  0.00  0.00    +0.000 OA
ATOM     29  C   UNL     1       6.974   5.425  15.708  0.00  0.00    +0.000 A 
ATOM     30  C   UNL     1       7.309   6.001  17.024  0.00  0.00    +0.000 C 
ATOM     31  C   UNL     1       5.949   4.640  15.210  0.00  0.00    +0.000 A 
ENDBRANCH  24  31
ENDBRANCH  23  24
ENDBRANCH   1  23
TORSDOF 5
ENDMDL
MODEL 4
REMARK VINA RESULT:      -7.7      5.044      9.957
REMARK  Name = 
REMARK  7 active torsions:
REMARK  status: ('A' for Active; 'I' for Inactive)
REMARK    1  A    between atoms: C_1  and  C_2
REMARK    2  A    between atoms: C_5  and  C_6
REMARK    3  A    between atoms: C_7  and  C_8
REMARK    4  A    between atoms: C_8  and  S_9
REMARK    5  A    between atoms: S_9  and  C_10
REMARK    6  A    between atoms: C_13  and  C_14
REMARK    7  A    between atoms: N_23  and  C_24
REMARK                            x       y       z     vdW  Elec       q    Type
REMARK                         _______ _______ _______ _____ _____    ______ ____
ROOT
ATOM      1  C   UNL     1      -0.296  11.255  21.704  0.00  0.00    +0.000 A 
ATOM      2  N   UNL     1       0.404  10.657  22.640  0.00  0.00    +0.000 NA
ATOM      3  N   UNL     1       1.066   9.586  22.063  0.00  0.00    +0.000 NA
ATOM      4  C   UNL     1       0.817   9.597  20.764  0.00  0.00    +0.000 A 
ATOM      5  N   UNL     1      -0.144  10.569  20.502  0.00  0.00    +0.000 N 
ENDROOT
BRANCH   4   6
ATOM      6  C   UNL     1       1.518   8.702  19.765  0.00  0.00    +0.000 A 
ATOM      7  C   UNL     1       1.984   9.140  18.543  0.00  0.00    +0.000 A 
ATOM      8  N   UNL     1       2.656   8.105  17.942  0.00  0.00    +0.000 N 
ATOM      9  C   UNL     1       2.620   6.985  18.739  0.00  0.00    +0.000 A 
ATOM     10  C   UNL     1       3.192   5.717  18.542  0.00  0.00    +0.000 A 
ATOM     11  C   UNL     1       2.991   4.746  19.529  0.00  0.00    +0.000 A 
ATOM     12  C   UNL     1       2.206   5.017  20.642  0.00  0.00    +0.000 A 
ATOM     13  C   UNL     1       1.610   6.273  20.798  0.00  0.00    +0.000 A 
ATOM     14  C   UNL     1       1.859   7.308  19.867  0.00  0.00    +0.000 A 
ATOM     15  H   UNL     1       3.128   8.154  17.049  0.00  0.00    +0.000 HD
ENDBRANCH   4   6
BRANCH   5  16
ATOM     16  C   UNL     1      -0.913  10.722  19.311  0.00  0.00    +0.000 A 
ATOM     17  C   UNL     1      -0.786  11.887  18.535  0.00  0.00    +0.000 A 
ATOM     18  C   UNL     1      -1.573  12.054  17.393  0.00  0.00    +0.000 A 
ATOM     19  C   UNL     1      -2.456  11.050  17.002  0.00  0.00    +0.000 A 
ATOM     20 CL   UNL     1      -3.422  11.254  15.595  0.00  0.00    +0.000 Cl
ATOM     21  C   UNL     1      -2.574   9.885  17.755  0.00  0.00    +0.000 A 
ATOM     22  C   UNL     1      -1.819   9.729  18.915  0.00  0.00    +0.000 A 
ENDBRANCH   5  16
BRANCH   1  23
ATOM     23  S   UNL     1      -1.430  12.550  21.900  0.00  0.00    +0.000 S 
BRANCH  23  24
ATOM     24  C   UNL     1      -2.654  12.075  23.136  0.00  0.00    +0.000 C 
BRANCH  24  31
ATOM     25  C   UNL     1      -3.067  14.623  25.160  0.00  0.00    +0.000 C 
ATOM     26  C   UNL     1      -3.911  14.216  24.011  0.00  0.00    +0.000 A 
ATOM     27  N   UNL     1      -5.021  14.910  23.737  0.00  0.00    +0.000 NA
ATOM     28  O   UNL     1      -5.603  14.277  22.664  0.00  0.00    +0.000 OA
ATOM     29  C   UNL     1      -4.848  13.210  22.293  0.00  0.00    +0.000 A 
ATOM     30  C   UNL     1      -5.390  12.423  21.169  0.00  0.00    +0.000 C 
ATOM     31  C   UNL     1      -3.738  13.115  23.115  0.00  0.00    +0.000 A 
ENDBRANCH  24  31
ENDBRANCH  23  24
ENDBRANCH   1  23
TORSDOF 5
ENDMDL
MODEL 5
REMARK VINA RESULT:      -7.6      5.147     10.120
REMARK  Name = 
REMARK  7 active torsions:
REMARK  status: ('A' for Active; 'I' for Inactive)
REMARK    1  A    between atoms: C_1  and  C_2
REMARK    2  A    between atoms: C_5  and  C_6
REMARK    3  A    between atoms: C_7  and  C_8
REMARK    4  A    between atoms: C_8  and  S_9
REMARK    5  A    between atoms: S_9  and  C_10
REMARK    6  A    between atoms: C_13  and  C_14
REMARK    7  A    between atoms: N_23  and  C_24
REMARK                            x       y       z     vdW  Elec       q    Type
REMARK                         _______ _______ _______ _____ _____    ______ ____
ROOT
ATOM      1  C   UNL     1      -0.510  11.335  21.478  0.00  0.00    +0.000 A 
ATOM      2  N   UNL     1       0.259  10.813  22.406  0.00  0.00    +0.000 NA
ATOM      3  N   UNL     1       1.000   9.797  21.827  0.00  0.00    +0.000 NA
ATOM      4  C   UNL     1       0.724   9.768  20.533  0.00  0.00    +0.000 A 
ATOM      5  N   UNL     1      -0.324  10.649  20.281  0.00  0.00    +0.000 N 
ENDROOT
BRANCH   4   6
ATOM      6  C   UNL     1       1.480   8.925  19.530  0.00  0.00    +0.000 A 
ATOM      7  C   UNL     1       1.917   9.398  18.309  0.00  0.00    +0.000 A 
ATOM      8  N   UNL     1       2.653   8.411  17.703  0.00  0.00    +0.000 N 
ATOM      9  C   UNL     1       2.687   7.286  18.494  0.00  0.00    +0.000 A 
ATOM     10  C   UNL     1       3.339   6.058  18.290  0.00  0.00    +0.000 A 
ATOM     11  C   UNL     1       3.200   5.071  19.272  0.00  0.00    +0.000 A 
ATOM     12  C   UNL     1       2.399   5.286  20.386  0.00  0.00    +0.000 A 
ATOM     13  C   UNL     1       1.725   6.501  20.549  0.00  0.00    +0.000 A 
ATOM     14  C   UNL     1       1.908   7.554  19.623  0.00  0.00    +0.000 A 
ATOM     15  H   UNL     1       3.121   8.494  16.810  0.00  0.00    +0.000 HD
ENDBRANCH   4   6
BRANCH   5  16
ATOM     16  C   UNL     1      -1.128  10.718  19.106  0.00  0.00    +0.000 A 
ATOM     17  C   UNL     1      -1.024  11.823  18.245  0.00  0.00    +0.000 A 
ATOM     18  C   UNL     1      -1.845  11.910  17.117  0.00  0.00    +0.000 A 
ATOM     19  C   UNL     1      -2.740  10.882  16.827  0.00  0.00    +0.000 A 
ATOM     20 CL   UNL     1      -3.747  10.987  15.438  0.00  0.00    +0.000 Cl
ATOM     21  C   UNL     1      -2.836   9.775  17.664  0.00  0.00    +0.000 A 
ATOM     22  C   UNL     1      -2.046   9.701  18.810  0.00  0.00    +0.000 A 
ENDBRANCH   5  16
BRANCH   1  23
ATOM     23  S   UNL     1      -1.750  12.528  21.684  0.00  0.00    +0.000 S 
BRANCH  23  24
ATOM     24  C   UNL     1      -2.710  12.127  23.156  0.00  0.00    +0.000 C 
BRANCH  24  31
ATOM     25  C   UNL     1      -5.505  12.569  21.498  0.00  0.00    +0.000 C 
ATOM     26  C   UNL     1      -4.946  13.397  22.593  0.00  0.00    +0.000 A 
ATOM     27  N   UNL     1      -5.595  14.503  22.974  0.00  0.00    +0.000 NA
ATOM     28  O   UNL     1      -4.823  15.070  23.960  0.00  0.00    +0.000 OA
ATOM     29  C   UNL     1      -3.717  14.309  24.174  0.00  0.00    +0.000 A 
ATOM     30  C   UNL     1      -2.785  14.836  25.190  0.00  0.00    +0.000 C 
ATOM     31  C   UNL     1      -3.736  13.211  23.331  0.00  0.00    +0.000 A 
ENDBRANCH  24  31
ENDBRANCH  23  24
ENDBRANCH   1  23
TORSDOF 5
ENDMDL
MODEL 6
REMARK VINA RESULT:      -7.6      4.446      8.805
REMARK  Name = 
REMARK  7 active torsions:
REMARK  status: ('A' for Active; 'I' for Inactive)
REMARK    1  A    between atoms: C_1  and  C_2
REMARK    2  A    between atoms: C_5  and  C_6
REMARK    3  A    between atoms: C_7  and  C_8
REMARK    4  A    between atoms: C_8  and  S_9
REMARK    5  A    between atoms: S_9  and  C_10
REMARK    6  A    between atoms: C_13  and  C_14
REMARK    7  A    between atoms: N_23  and  C_24
REMARK                            x       y       z     vdW  Elec       q    Type
REMARK                         _______ _______ _______ _____ _____    ______ ____
ROOT
ATOM      1  C   UNL     1      -0.290  11.005  21.769  0.00  0.00    +0.000 A 
ATOM      2  N   UNL     1       0.440  10.356  22.647  0.00  0.00    +0.000 NA
ATOM      3  N   UNL     1       1.125   9.355  21.979  0.00  0.00    +0.000 NA
ATOM      4  C   UNL     1       0.856   9.461  20.687  0.00  0.00    +0.000 A 
ATOM      5  N   UNL     1      -0.136  10.422  20.515  0.00  0.00    +0.000 N 
ENDROOT
BRANCH   4   6
ATOM      6  C   UNL     1       1.569   8.670  19.612  0.00  0.00    +0.000 A 
ATOM      7  C   UNL     1       1.943   9.200  18.395  0.00  0.00    +0.000 A 
ATOM      8  N   UNL     1       2.656   8.247  17.710  0.00  0.00    +0.000 N 
ATOM      9  C   UNL     1       2.736   7.089  18.448  0.00  0.00    +0.000 A 
ATOM     10  C   UNL     1       3.385   5.877  18.159  0.00  0.00    +0.000 A 
ATOM     11  C   UNL     1       3.300   4.847  19.101  0.00  0.00    +0.000 A 
ATOM     12  C   UNL     1       2.553   5.005  20.260  0.00  0.00    +0.000 A 
ATOM     13  C   UNL     1       1.880   6.205  20.510  0.00  0.00    +0.000 A 
ATOM     14  C   UNL     1       2.011   7.300  19.624  0.00  0.00    +0.000 A 
ATOM     15  H   UNL     1       3.080   8.374  16.801  0.00  0.00    +0.000 HD
ENDBRANCH   4   6
BRANCH   5  16
ATOM     16  C   UNL     1      -0.926  10.645  19.350  0.00  0.00    +0.000 A 
ATOM     17  C   UNL     1      -1.843   9.669  18.922  0.00  0.00    +0.000 A 
ATOM     18  C   UNL     1      -2.583   9.870  17.754  0.00  0.00    +0.000 A 
ATOM     19  C   UNL     1      -2.441  11.055  17.035  0.00  0.00    +0.000 A 
ATOM     20 CL   UNL     1      -3.354  11.304  15.601  0.00  0.00    +0.000 Cl
ATOM     21  C   UNL     1      -1.550  12.035  17.463  0.00  0.00    +0.000 A 
ATOM     22  C   UNL     1      -0.781  11.823  18.606  0.00  0.00    +0.000 A 
ENDBRANCH   5  16
BRANCH   1  23
ATOM     23  S   UNL     1      -1.459  12.245  22.082  0.00  0.00    +0.000 S 
BRANCH  23  24
ATOM     24  C   UNL     1      -0.596  13.771  22.500  0.00  0.00    +0.000 C 
BRANCH  24  31
ATOM     25  C   UNL     1      -2.284  15.845  20.600  0.00  0.00    +0.000 C 
ATOM     26  C   UNL     1      -0.919  15.308  20.387  0.00  0.00    +0.000 A 
ATOM     27  N   UNL     1      -0.251  15.640  19.276  0.00  0.00    +0.000 NA
ATOM     28  O   UNL     1       0.945  14.964  19.342  0.00  0.00    +0.000 OA
ATOM     29  C   UNL     1       0.998  14.232  20.486  0.00  0.00    +0.000 A 
ATOM     30  C   UNL     1       2.224  13.429  20.655  0.00  0.00    +0.000 C 
ATOM     31  C   UNL     1      -0.168  14.412  21.210  0.00  0.00    +0.000 A 
ENDBRANCH  24  31
ENDBRANCH  23  24
ENDBRANCH   1  23
TORSDOF 5
ENDMDL
MODEL 7
REMARK VINA RESULT:      -7.6      7.013      8.568
REMARK  Name = 
REMARK  7 active torsions:
REMARK  status: ('A' for Active; 'I' for Inactive)
REMARK    1  A    between atoms: C_1  and  C_2
REMARK    2  A    between atoms: C_5  and  C_6
REMARK    3  A    between atoms: C_7  and  C_8
REMARK    4  A    between atoms: C_8  and  S_9
REMARK    5  A    between atoms: S_9  and  C_10
REMARK    6  A    between atoms: C_13  and  C_14
REMARK    7  A    between atoms: N_23  and  C_24
REMARK                            x       y       z     vdW  Elec       q    Type
REMARK                         _______ _______ _______ _____ _____    ______ ____
ROOT
ATOM      1  C   UNL     1       1.148  13.659  21.304  0.00  0.00    +0.000 A 
ATOM      2  N   UNL     1       1.157  14.572  22.249  0.00  0.00    +0.000 NA
ATOM      3  N   UNL     1      -0.099  14.597  22.832  0.00  0.00    +0.000 NA
ATOM      4  C   UNL     1      -0.830  13.641  22.281  0.00  0.00    +0.000 A 
ATOM      5  N   UNL     1      -0.121  13.094  21.216  0.00  0.00    +0.000 N 
ENDROOT
BRANCH   4   6
ATOM      6  C   UNL     1      -2.194  13.227  22.790  0.00  0.00    +0.000 A 
ATOM      7  C   UNL     1      -2.448  12.013  23.393  0.00  0.00    +0.000 A 
ATOM      8  N   UNL     1      -3.750  12.010  23.825  0.00  0.00    +0.000 N 
ATOM      9  C   UNL     1      -4.366  13.194  23.494  0.00  0.00    +0.000 A 
ATOM     10  C   UNL     1      -5.673  13.638  23.758  0.00  0.00    +0.000 A 
ATOM     11  C   UNL     1      -6.042  14.905  23.295  0.00  0.00    +0.000 A 
ATOM     12  C   UNL     1      -5.156  15.675  22.553  0.00  0.00    +0.000 A 
ATOM     13  C   UNL     1      -3.873  15.198  22.265  0.00  0.00    +0.000 A 
ATOM     14  C   UNL     1      -3.433  13.959  22.787  0.00  0.00    +0.000 A 
ATOM     15  H   UNL     1      -4.198  11.256  24.330  0.00  0.00    +0.000 HD
ENDBRANCH   4   6
BRANCH   5  16
ATOM     16  C   UNL     1      -0.632  12.262  20.178  0.00  0.00    +0.000 A 
ATOM     17  C   UNL     1      -0.328  10.890  20.160  0.00  0.00    +0.000 A 
ATOM     18  C   UNL     1      -0.793  10.085  19.116  0.00  0.00    +0.000 A 
ATOM     19  C   UNL     1      -1.589  10.636  18.114  0.00  0.00    +0.000 A 
ATOM     20 CL   UNL     1      -2.164   9.645  16.832  0.00  0.00    +0.000 Cl
ATOM     21  C   UNL     1      -1.911  11.990  18.134  0.00  0.00    +0.000 A 
ATOM     22  C   UNL     1      -1.419  12.805  19.152  0.00  0.00    +0.000 A 
ENDBRANCH   5  16
BRANCH   1  23
ATOM     23  S   UNL     1       2.400  13.318  20.155  0.00  0.00    +0.000 S 
BRANCH  23  24
ATOM     24  C   UNL     1       1.915  13.975  18.548  0.00  0.00    +0.000 C 
BRANCH  24  31
ATOM     25  C   UNL     1       4.943  15.004  17.820  0.00  0.00    +0.000 C 
ATOM     26  C   UNL     1       3.752  15.820  18.158  0.00  0.00    +0.000 A 
ATOM     27  N   UNL     1       3.870  17.150  18.234  0.00  0.00    +0.000 NA
ATOM     28  O   UNL     1       2.630  17.616  18.602  0.00  0.00    +0.000 OA
ATOM     29  C   UNL     1       1.770  16.573  18.745  0.00  0.00    +0.000 A 
ATOM     30  C   UNL     1       0.408  16.943  19.175  0.00  0.00    +0.000 C 
ATOM     31  C   UNL     1       2.426  15.386  18.468  0.00  0.00    +0.000 A 
ENDBRANCH  24  31
ENDBRANCH  23  24
ENDBRANCH   1  23
TORSDOF 5
ENDMDL
MODEL 8
REMARK VINA RESULT:      -7.6      6.964      8.673
REMARK  Name = 
REMARK  7 active torsions:
REMARK  status: ('A' for Active; 'I' for Inactive)
REMARK    1  A    between atoms: C_1  and  C_2
REMARK    2  A    between atoms: C_5  and  C_6
REMARK    3  A    between atoms: C_7  and  C_8
REMARK    4  A    between atoms: C_8  and  S_9
REMARK    5  A    between atoms: S_9  and  C_10
REMARK    6  A    between atoms: C_13  and  C_14
REMARK    7  A    between atoms: N_23  and  C_24
REMARK                            x       y       z     vdW  Elec       q    Type
REMARK                         _______ _______ _______ _____ _____    ______ ____
ROOT
ATOM      1  C   UNL     1       1.456  13.576  21.029  0.00  0.00    +0.000 A 
ATOM      2  N   UNL     1       1.515  14.439  22.017  0.00  0.00    +0.000 NA
ATOM      3  N   UNL     1       0.293  14.431  22.667  0.00  0.00    +0.000 NA
ATOM      4  C   UNL     1      -0.468  13.503  22.108  0.00  0.00    +0.000 A 
ATOM      5  N   UNL     1       0.184  13.013  20.980  0.00  0.00    +0.000 N 
ENDROOT
BRANCH   4   6
ATOM      6  C   UNL     1      -1.802  13.060  22.667  0.00  0.00    +0.000 A 
ATOM      7  C   UNL     1      -2.018  11.824  23.238  0.00  0.00    +0.000 A 
ATOM      8  N   UNL     1      -3.298  11.794  23.732  0.00  0.00    +0.000 N 
ATOM      9  C   UNL     1      -3.938  12.984  23.472  0.00  0.00    +0.000 A 
ATOM     10  C   UNL     1      -5.233  13.407  23.814  0.00  0.00    +0.000 A 
ATOM     11  C   UNL     1      -5.632  14.686  23.413  0.00  0.00    +0.000 A 
ATOM     12  C   UNL     1      -4.789  15.489  22.657  0.00  0.00    +0.000 A 
ATOM     13  C   UNL     1      -3.518  15.033  22.292  0.00  0.00    +0.000 A 
ATOM     14  C   UNL     1      -3.045  13.781  22.749  0.00  0.00    +0.000 A 
ATOM     15  H   UNL     1      -3.716  11.020  24.231  0.00  0.00    +0.000 HD
ENDBRANCH   4   6
BRANCH   5  16
ATOM     16  C   UNL     1      -0.381  12.234  19.929  0.00  0.00    +0.000 A 
ATOM     17  C   UNL     1      -1.105  12.859  18.899  0.00  0.00    +0.000 A 
ATOM     18  C   UNL     1      -1.697  12.088  17.895  0.00  0.00    +0.000 A 
ATOM     19  C   UNL     1      -1.537  10.704  17.893  0.00  0.00    +0.000 A 
ATOM     20 CL   UNL     1      -2.262   9.757  16.655  0.00  0.00    +0.000 Cl
ATOM     21  C   UNL     1      -0.806  10.079  18.898  0.00  0.00    +0.000 A 
ATOM     22  C   UNL     1      -0.245  10.839  19.923  0.00  0.00    +0.000 A 
ENDBRANCH   5  16
BRANCH   1  23
ATOM     23  S   UNL     1       2.645  13.298  19.800  0.00  0.00    +0.000 S 
BRANCH  23  24
ATOM     24  C   UNL     1       2.213  14.259  18.337  0.00  0.00    +0.000 C 
BRANCH  24  31
ATOM     25  C   UNL     1      -0.154  16.463  18.882  0.00  0.00    +0.000 C 
ATOM     26  C   UNL     1       1.314  16.663  18.922  0.00  0.00    +0.000 A 
ATOM     27  N   UNL     1       1.802  17.885  19.165  0.00  0.00    +0.000 NA
ATOM     28  O   UNL     1       3.170  17.763  19.095  0.00  0.00    +0.000 OA
ATOM     29  C   UNL     1       3.504  16.476  18.814  0.00  0.00    +0.000 A 
ATOM     30  C   UNL     1       4.951  16.224  18.677  0.00  0.00    +0.000 C 
ATOM     31  C   UNL     1       2.357  15.711  18.696  0.00  0.00    +0.000 A 
ENDBRANCH  24  31
ENDBRANCH  23  24
ENDBRANCH   1  23
TORSDOF 5
ENDMDL
MODEL 9
REMARK VINA RESULT:      -7.6      7.169      9.082
REMARK  Name = 
REMARK  7 active torsions:
REMARK  status: ('A' for Active; 'I' for Inactive)
REMARK    1  A    between atoms: C_1  and  C_2
REMARK    2  A    between atoms: C_5  and  C_6
REMARK    3  A    between atoms: C_7  and  C_8
REMARK    4  A    between atoms: C_8  and  S_9
REMARK    5  A    between atoms: S_9  and  C_10
REMARK    6  A    between atoms: C_13  and  C_14
REMARK    7  A    between atoms: N_23  and  C_24
REMARK                            x       y       z     vdW  Elec       q    Type
REMARK                         _______ _______ _______ _____ _____    ______ ____
ROOT
ATOM      1  C   UNL     1      -1.235  14.996  21.213  0.00  0.00    +0.000 A 
ATOM      2  N   UNL     1      -2.063  15.969  20.908  0.00  0.00    +0.000 NA
ATOM      3  N   UNL     1      -3.324  15.423  20.744  0.00  0.00    +0.000 NA
ATOM      4  C   UNL     1      -3.257  14.132  21.028  0.00  0.00    +0.000 A 
ATOM      5  N   UNL     1      -1.922  13.786  21.215  0.00  0.00    +0.000 N 
ENDROOT
BRANCH   4   6
ATOM      6  C   UNL     1      -4.469  13.235  21.153  0.00  0.00    +0.000 A 
ATOM      7  C   UNL     1      -5.233  13.138  22.298  0.00  0.00    +0.000 A 
ATOM      8  N   UNL     1      -6.305  12.324  22.033  0.00  0.00    +0.000 N 
ATOM      9  C   UNL     1      -6.246  11.862  20.739  0.00  0.00    +0.000 A 
ATOM     10  C   UNL     1      -7.135  11.034  20.033  0.00  0.00    +0.000 A 
ATOM     11  C   UNL     1      -6.823  10.714  18.708  0.00  0.00    +0.000 A 
ATOM     12  C   UNL     1      -5.643  11.162  18.129  0.00  0.00    +0.000 A 
ATOM     13  C   UNL     1      -4.750  11.951  18.862  0.00  0.00    +0.000 A 
ATOM     14  C   UNL     1      -5.070  12.367  20.176  0.00  0.00    +0.000 A 
ATOM     15  H   UNL     1      -7.047  12.102  22.684  0.00  0.00    +0.000 HD
ENDBRANCH   4   6
BRANCH   5  16
ATOM     16  C   UNL     1      -1.369  12.473  21.244  0.00  0.00    +0.000 A 
ATOM     17  C   UNL     1      -1.054  11.867  22.472  0.00  0.00    +0.000 A 
ATOM     18  C   UNL     1      -0.470  10.597  22.496  0.00  0.00    +0.000 A 
ATOM     19  C   UNL     1      -0.237   9.917  21.303  0.00  0.00    +0.000 A 
ATOM     20 CL   UNL     1       0.478   8.354  21.332  0.00  0.00    +0.000 Cl
ATOM     21  C   UNL     1      -0.563  10.501  20.083  0.00  0.00    +0.000 A 
ATOM     22  C   UNL     1      -1.111  11.782  20.052  0.00  0.00    +0.000 A 
ENDBRANCH   5  16
BRANCH   1  23
ATOM     23  S   UNL     1       0.488  15.088  21.371  0.00  0.00    +0.000 S 
BRANCH  23  24
ATOM     24  C   UNL     1       1.247  14.589  19.815  0.00  0.00    +0.000 C 
BRANCH  24  31
ATOM     25  C   UNL     1      -0.160  17.006  18.100  0.00  0.00    +0.000 C 
ATOM     26  C   UNL     1       1.268  16.850  18.466  0.00  0.00    +0.000 A 
ATOM     27  N   UNL     1       2.155  17.756  18.038  0.00  0.00    +0.000 NA
ATOM     28  O   UNL     1       3.379  17.325  18.493  0.00  0.00    +0.000 OA
ATOM     29  C   UNL     1       3.230  16.169  19.192  0.00  0.00    +0.000 A 
ATOM     30  C   UNL     1       4.484  15.584  19.704  0.00  0.00    +0.000 C 
ATOM     31  C   UNL     1       1.894  15.809  19.220  0.00  0.00    +0.000 A 
ENDBRANCH  24  31
ENDBRANCH  23  24
ENDBRANCH   1  23
TORSDOF 5
ENDMDL
