MODEL 1
REMARK VINA RESULT:      -7.6      0.000      0.000
REMARK  Name = 
REMARK  4 active torsions:
REMARK  status: ('A' for Active; 'I' for Inactive)
REMARK    1  A    between atoms: C_1  and  C_2
REMARK    2  A    between atoms: C_2  and  C_3
REMARK    3  A    between atoms: C_15  and  C_16
REMARK    4  A    between atoms: C_15  and  C_17
REMARK                            x       y       z     vdW  Elec       q    Type
REMARK                         _______ _______ _______ _____ _____    ______ ____
ROOT
ATOM      1  C   UNL     1      -2.767  10.002  14.706  0.00  0.00    +0.000 C 
ATOM      2  C   UNL     1      -3.122  10.697  16.026  0.00  0.00    +0.000 C 
ATOM      3  C   UNL     1      -4.494  11.390  15.873  0.00  0.00    +0.000 C 
ATOM      4  C   UNL     1      -3.319   9.637  17.129  0.00  0.00    +0.000 C 
ATOM      5  C   UNL     1      -2.567   9.645  18.224  0.00  0.00    +0.000 C 
ATOM      6  C   UNL     1      -2.154  11.001  18.507  0.00  0.00    +0.000 A 
ATOM      7  C   UNL     1      -1.591  11.797  17.569  0.00  0.00    +0.000 A 
ATOM      8  C   UNL     1      -0.638  12.664  18.098  0.00  0.00    +0.000 A 
ATOM      9  C   UNL     1      -0.607  12.927  19.517  0.00  0.00    +0.000 A 
ATOM     10  C   UNL     1      -1.844  12.687  20.154  0.00  0.00    +0.000 A 
ATOM     11  C   UNL     1      -2.644  12.970  21.292  0.00  0.00    +0.000 A 
ATOM     12  C   UNL     1      -3.897  13.147  20.724  0.00  0.00    +0.000 A 
ATOM     13  N   UNL     1      -3.850  12.526  19.511  0.00  0.00    +0.000 N 
ATOM     14  C   UNL     1      -2.684  11.785  19.495  0.00  0.00    +0.000 A 
ATOM     15  C   UNL     1      -5.151  13.697  21.373  0.00  0.00    +0.000 C 
ATOM     16  C   UNL     1      -5.913  14.586  20.351  0.00  0.00    +0.000 C 
ATOM     17  C   UNL     1      -6.012  12.403  21.498  0.00  0.00    +0.000 C 
ATOM     18  C   UNL     1      -4.502  14.700  22.597  0.00  0.00    +0.000 C 
ATOM     19  C   UNL     1      -4.730  15.299  24.473  0.00  0.00    +0.000 C 
ATOM     20  C   UNL     1      -5.575  16.290  23.977  0.00  0.00    +0.000 C 
ATOM     21  C   UNL     1      -6.531  16.836  22.947  0.00  0.00    +0.000 C 
ATOM     22  C   UNL     1      -7.900  16.095  23.077  0.00  0.00    +0.000 C 
ATOM     23  C   UNL     1      -7.681  14.923  24.035  0.00  0.00    +0.000 C 
ATOM     24  N   UNL     1      -6.274  14.745  23.813  0.00  0.00    +0.000 N 
ATOM     25  C   UNL     1      -5.223  13.392  23.905  0.00  0.00    +0.000 C 
ATOM     26  O   UNL     1      -5.573  12.265  24.217  0.00  0.00    +0.000 OA
ATOM     27  C   UNL     1      -3.505  14.050  23.413  0.00  0.00    +0.000 C 
ATOM     28  C   UNL     1      -2.434  13.192  22.741  0.00  0.00    +0.000 C 
ATOM     29  N   UNL     1      -2.876  15.653  23.488  0.00  0.00    +0.000 N 
ATOM     30  C   UNL     1      -3.930  16.843  23.519  0.00  0.00    +0.000 C 
ATOM     31  O   UNL     1      -3.580  18.014  23.465  0.00  0.00    +0.000 OA
ATOM     32  O   UNL     1      -1.985  11.643  16.271  0.00  0.00    +0.000 OA
ATOM     33  H   UNL     1      -4.554  12.526  18.787  0.00  0.00    +0.000 HD
ATOM     34  H   UNL     1      -1.918  15.861  23.213  0.00  0.00    +0.000 HD
ENDROOT
TORSDOF 0
ENDMDL
MODEL 2
REMARK VINA RESULT:      -7.4      2.716      4.819
REMARK  Name = 
REMARK  4 active torsions:
REMARK  status: ('A' for Active; 'I' for Inactive)
REMARK    1  A    between atoms: C_1  and  C_2
REMARK    2  A    between atoms: C_2  and  C_3
REMARK    3  A    between atoms: C_15  and  C_16
REMARK    4  A    between atoms: C_15  and  C_17
REMARK                            x       y       z     vdW  Elec       q    Type
REMARK                         _______ _______ _______ _____ _____    ______ ____
ROOT
ATOM      1  C   UNL     1       3.553  14.440  20.942  0.00  0.00    +0.000 C 
ATOM      2  C   UNL     1       2.022  14.402  20.987  0.00  0.00    +0.000 C 
ATOM      3  C   UNL     1       1.528  15.386  22.070  0.00  0.00    +0.000 C 
ATOM      4  C   UNL     1       1.454  14.939  19.657  0.00  0.00    +0.000 C 
ATOM      5  C   UNL     1       0.678  14.180  18.891  0.00  0.00    +0.000 C 
ATOM      6  C   UNL     1      -0.037  13.239  19.724  0.00  0.00    +0.000 A 
ATOM      7  C   UNL     1       0.586  12.464  20.641  0.00  0.00    +0.000 A 
ATOM      8  C   UNL     1      -0.007  11.212  20.782  0.00  0.00    +0.000 A 
ATOM      9  C   UNL     1      -1.350  10.988  20.302  0.00  0.00    +0.000 A 
ATOM     10  C   UNL     1      -2.109  12.175  20.202  0.00  0.00    +0.000 A 
ATOM     11  C   UNL     1      -3.418  12.720  20.143  0.00  0.00    +0.000 A 
ATOM     12  C   UNL     1      -3.303  13.829  20.969  0.00  0.00    +0.000 A 
ATOM     13  N   UNL     1      -1.971  14.113  21.032  0.00  0.00    +0.000 N 
ATOM     14  C   UNL     1      -1.360  13.346  20.058  0.00  0.00    +0.000 A 
ATOM     15  C   UNL     1      -4.408  14.713  21.509  0.00  0.00    +0.000 C 
ATOM     16  C   UNL     1      -4.075  15.116  22.974  0.00  0.00    +0.000 C 
ATOM     17  C   UNL     1      -4.185  16.012  20.676  0.00  0.00    +0.000 C 
ATOM     18  C   UNL     1      -5.740  13.640  21.525  0.00  0.00    +0.000 C 
ATOM     19  C   UNL     1      -7.687  13.489  21.183  0.00  0.00    +0.000 C 
ATOM     20  C   UNL     1      -7.876  13.894  22.503  0.00  0.00    +0.000 C 
ATOM     21  C   UNL     1      -7.440  14.613  23.754  0.00  0.00    +0.000 C 
ATOM     22  C   UNL     1      -7.578  16.153  23.533  0.00  0.00    +0.000 C 
ATOM     23  C   UNL     1      -7.869  16.364  22.046  0.00  0.00    +0.000 C 
ATOM     24  N   UNL     1      -7.256  15.164  21.551  0.00  0.00    +0.000 N 
ATOM     25  C   UNL     1      -6.511  14.742  20.065  0.00  0.00    +0.000 C 
ATOM     26  O   UNL     1      -6.396  15.495  19.110  0.00  0.00    +0.000 OA
ATOM     27  C   UNL     1      -5.937  12.939  20.280  0.00  0.00    +0.000 C 
ATOM     28  C   UNL     1      -4.727  12.348  19.558  0.00  0.00    +0.000 C 
ATOM     29  N   UNL     1      -6.521  11.716  21.344  0.00  0.00    +0.000 N 
ATOM     30  C   UNL     1      -7.305  12.198  22.639  0.00  0.00    +0.000 C 
ATOM     31  O   UNL     1      -7.664  11.411  23.505  0.00  0.00    +0.000 OA
ATOM     32  O   UNL     1       1.688  12.968  21.270  0.00  0.00    +0.000 OA
ATOM     33  H   UNL     1      -1.510  14.801  21.609  0.00  0.00    +0.000 HD
ATOM     34  H   UNL     1      -6.133  10.775  21.334  0.00  0.00    +0.000 HD
ENDROOT
TORSDOF 0
ENDMDL
MODEL 3
REMARK VINA RESULT:      -7.2      3.331      4.662
REMARK  Name = 
REMARK  4 active torsions:
REMARK  status: ('A' for Active; 'I' for Inactive)
REMARK    1  A    between atoms: C_1  and  C_2
REMARK    2  A    between atoms: C_2  and  C_3
REMARK    3  A    between atoms: C_15  and  C_16
REMARK    4  A    between atoms: C_15  and  C_17
REMARK                            x       y       z     vdW  Elec       q    Type
REMARK                         _______ _______ _______ _____ _____    ______ ____
ROOT
ATOM      1  C   UNL     1       2.044   8.461  17.743  0.00  0.00    +0.000 C 
ATOM      2  C   UNL     1       1.453   9.601  18.580  0.00  0.00    +0.000 C 
ATOM      3  C   UNL     1       2.270  10.887  18.321  0.00  0.00    +0.000 C 
ATOM      4  C   UNL     1       0.026   9.917  18.085  0.00  0.00    +0.000 C 
ATOM      5  C   UNL     1      -1.017   9.815  18.901  0.00  0.00    +0.000 C 
ATOM      6  C   UNL     1      -0.585  10.069  20.257  0.00  0.00    +0.000 A 
ATOM      7  C   UNL     1       0.480   9.443  20.808  0.00  0.00    +0.000 A 
ATOM      8  C   UNL     1       0.322   9.205  22.171  0.00  0.00    +0.000 A 
ATOM      9  C   UNL     1      -0.676   9.930  22.921  0.00  0.00    +0.000 A 
ATOM     10  C   UNL     1      -1.039  11.156  22.322  0.00  0.00    +0.000 A 
ATOM     11  C   UNL     1      -1.613  12.435  22.541  0.00  0.00    +0.000 A 
ATOM     12  C   UNL     1      -0.776  13.255  21.798  0.00  0.00    +0.000 A 
ATOM     13  N   UNL     1      -0.160  12.441  20.895  0.00  0.00    +0.000 N 
ATOM     14  C   UNL     1      -0.822  11.229  20.943  0.00  0.00    +0.000 A 
ATOM     15  C   UNL     1      -0.708  14.768  21.795  0.00  0.00    +0.000 C 
ATOM     16  C   UNL     1       0.776  15.217  21.683  0.00  0.00    +0.000 C 
ATOM     17  C   UNL     1      -1.330  15.091  20.403  0.00  0.00    +0.000 C 
ATOM     18  C   UNL     1      -1.279  15.149  23.362  0.00  0.00    +0.000 C 
ATOM     19  C   UNL     1      -2.397  16.413  24.402  0.00  0.00    +0.000 C 
ATOM     20  C   UNL     1      -1.259  17.208  24.521  0.00  0.00    +0.000 C 
ATOM     21  C   UNL     1       0.084  17.696  24.041  0.00  0.00    +0.000 C 
ATOM     22  C   UNL     1      -0.121  18.623  22.802  0.00  0.00    +0.000 C 
ATOM     23  C   UNL     1      -1.588  18.492  22.387  0.00  0.00    +0.000 C 
ATOM     24  N   UNL     1      -1.827  17.179  22.914  0.00  0.00    +0.000 N 
ATOM     25  C   UNL     1      -2.888  15.904  22.478  0.00  0.00    +0.000 C 
ATOM     26  O   UNL     1      -3.684  15.952  21.553  0.00  0.00    +0.000 OA
ATOM     27  C   UNL     1      -2.518  14.494  23.704  0.00  0.00    +0.000 C 
ATOM     28  C   UNL     1      -2.698  13.015  23.367  0.00  0.00    +0.000 C 
ATOM     29  N   UNL     1      -1.832  14.559  25.283  0.00  0.00    +0.000 N 
ATOM     30  C   UNL     1      -0.959  15.838  25.641  0.00  0.00    +0.000 C 
ATOM     31  O   UNL     1      -0.345  15.925  26.696  0.00  0.00    +0.000 OA
ATOM     32  O   UNL     1       1.524   9.109  19.994  0.00  0.00    +0.000 OA
ATOM     33  H   UNL     1       0.579  12.678  20.249  0.00  0.00    +0.000 HD
ATOM     34  H   UNL     1      -1.713  13.718  25.845  0.00  0.00    +0.000 HD
ENDROOT
TORSDOF 0
ENDMDL
MODEL 4
REMARK VINA RESULT:      -7.0      9.202     12.994
REMARK  Name = 
REMARK  4 active torsions:
REMARK  status: ('A' for Active; 'I' for Inactive)
REMARK    1  A    between atoms: C_1  and  C_2
REMARK    2  A    between atoms: C_2  and  C_3
REMARK    3  A    between atoms: C_15  and  C_16
REMARK    4  A    between atoms: C_15  and  C_17
REMARK                            x       y       z     vdW  Elec       q    Type
REMARK                         _______ _______ _______ _____ _____    ______ ____
ROOT
ATOM      1  C   UNL     1       0.546  17.594  18.743  0.00  0.00    +0.000 C 
ATOM      2  C   UNL     1       1.961  17.020  18.874  0.00  0.00    +0.000 C 
ATOM      3  C   UNL     1       2.580  16.886  17.465  0.00  0.00    +0.000 C 
ATOM      4  C   UNL     1       2.858  18.030  19.620  0.00  0.00    +0.000 C 
ATOM      5  C   UNL     1       3.454  17.699  20.760  0.00  0.00    +0.000 C 
ATOM      6  C   UNL     1       3.702  16.275  20.772  0.00  0.00    +0.000 A 
ATOM      7  C   UNL     1       2.737  15.369  20.489  0.00  0.00    +0.000 A 
ATOM      8  C   UNL     1       2.872  14.191  21.219  0.00  0.00    +0.000 A 
ATOM      9  C   UNL     1       4.128  13.874  21.856  0.00  0.00    +0.000 A 
ATOM     10  C   UNL     1       5.232  14.523  21.261  0.00  0.00    +0.000 A 
ATOM     11  C   UNL     1       6.640  14.504  21.087  0.00  0.00    +0.000 A 
ATOM     12  C   UNL     1       6.767  14.823  19.742  0.00  0.00    +0.000 A 
ATOM     13  N   UNL     1       5.601  15.436  19.392  0.00  0.00    +0.000 N 
ATOM     14  C   UNL     1       4.926  15.698  20.569  0.00  0.00    +0.000 A 
ATOM     15  C   UNL     1       8.005  14.744  18.873  0.00  0.00    +0.000 C 
ATOM     16  C   UNL     1       7.608  14.241  17.457  0.00  0.00    +0.000 C 
ATOM     17  C   UNL     1       8.332  16.256  18.684  0.00  0.00    +0.000 C 
ATOM     18  C   UNL     1       8.907  13.520  19.657  0.00  0.00    +0.000 C 
ATOM     19  C   UNL     1      10.732  12.965  20.197  0.00  0.00    +0.000 C 
ATOM     20  C   UNL     1      10.846  12.375  18.939  0.00  0.00    +0.000 C 
ATOM     21  C   UNL     1      10.485  12.264  17.480  0.00  0.00    +0.000 C 
ATOM     22  C   UNL     1      11.138  13.449  16.700  0.00  0.00    +0.000 C 
ATOM     23  C   UNL     1      11.694  14.416  17.746  0.00  0.00    +0.000 C 
ATOM     24  N   UNL     1      10.809  14.075  18.823  0.00  0.00    +0.000 N 
ATOM     25  C   UNL     1      10.193  14.943  20.169  0.00  0.00    +0.000 C 
ATOM     26  O   UNL     1      10.466  16.106  20.425  0.00  0.00    +0.000 OA
ATOM     27  C   UNL     1       9.049  13.723  21.078  0.00  0.00    +0.000 C 
ATOM     28  C   UNL     1       7.833  14.157  21.895  0.00  0.00    +0.000 C 
ATOM     29  N   UNL     1       9.050  12.000  21.075  0.00  0.00    +0.000 N 
ATOM     30  C   UNL     1       9.750  11.279  19.844  0.00  0.00    +0.000 C 
ATOM     31  O   UNL     1       9.709  10.064  19.700  0.00  0.00    +0.000 OA
ATOM     32  O   UNL     1       1.775  15.713  19.584  0.00  0.00    +0.000 OA
ATOM     33  H   UNL     1       5.305  15.726  18.471  0.00  0.00    +0.000 HD
ATOM     34  H   UNL     1       8.388  11.467  21.636  0.00  0.00    +0.000 HD
ENDROOT
TORSDOF 0
ENDMDL
MODEL 5
REMARK VINA RESULT:      -7.0      7.781     10.694
REMARK  Name = 
REMARK  4 active torsions:
REMARK  status: ('A' for Active; 'I' for Inactive)
REMARK    1  A    between atoms: C_1  and  C_2
REMARK    2  A    between atoms: C_2  and  C_3
REMARK    3  A    between atoms: C_15  and  C_16
REMARK    4  A    between atoms: C_15  and  C_17
REMARK                            x       y       z     vdW  Elec       q    Type
REMARK                         _______ _______ _______ _____ _____    ______ ____
ROOT
ATOM      1  C   UNL     1      12.293  15.184  20.059  0.00  0.00    +0.000 C 
ATOM      2  C   UNL     1      10.763  15.248  19.994  0.00  0.00    +0.000 C 
ATOM      3  C   UNL     1      10.207  15.403  21.428  0.00  0.00    +0.000 C 
ATOM      4  C   UNL     1      10.332  16.528  19.249  0.00  0.00    +0.000 C 
ATOM      5  C   UNL     1       9.603  16.459  18.141  0.00  0.00    +0.000 C 
ATOM      6  C   UNL     1       8.787  15.266  18.183  0.00  0.00    +0.000 A 
ATOM      7  C   UNL     1       9.302  14.045  18.460  0.00  0.00    +0.000 A 
ATOM      8  C   UNL     1       8.659  13.019  17.772  0.00  0.00    +0.000 A 
ATOM      9  C   UNL     1       7.357  13.243  17.189  0.00  0.00    +0.000 A 
ATOM     10  C   UNL     1       6.649  14.300  17.801  0.00  0.00    +0.000 A 
ATOM     11  C   UNL     1       5.368  14.869  18.024  0.00  0.00    +0.000 A 
ATOM     12  C   UNL     1       5.445  15.231  19.362  0.00  0.00    +0.000 A 
ATOM     13  N   UNL     1       6.775  15.310  19.652  0.00  0.00    +0.000 N 
ATOM     14  C   UNL     1       7.444  15.251  18.445  0.00  0.00    +0.000 A 
ATOM     15  C   UNL     1       4.325  15.685  20.275  0.00  0.00    +0.000 C 
ATOM     16  C   UNL     1       4.540  15.083  21.692  0.00  0.00    +0.000 C 
ATOM     17  C   UNL     1       4.663  17.199  20.428  0.00  0.00    +0.000 C 
ATOM     18  C   UNL     1       2.963  14.935  19.562  0.00  0.00    +0.000 C 
ATOM     19  C   UNL     1       1.051  15.180  19.103  0.00  0.00    +0.000 C 
ATOM     20  C   UNL     1       0.759  14.709  20.381  0.00  0.00    +0.000 C 
ATOM     21  C   UNL     1       1.106  14.477  21.830  0.00  0.00    +0.000 C 
ATOM     22  C   UNL     1       1.037  15.837  22.595  0.00  0.00    +0.000 C 
ATOM     23  C   UNL     1       0.885  16.934  21.539  0.00  0.00    +0.000 C 
ATOM     24  N   UNL     1       1.501  16.241  20.443  0.00  0.00    +0.000 N 
ATOM     25  C   UNL     1       2.361  16.756  19.051  0.00  0.00    +0.000 C 
ATOM     26  O   UNL     1       2.583  17.923  18.768  0.00  0.00    +0.000 OA
ATOM     27  C   UNL     1       2.855  15.158  18.141  0.00  0.00    +0.000 C 
ATOM     28  C   UNL     1       4.105  15.037  17.269  0.00  0.00    +0.000 C 
ATOM     29  N   UNL     1       2.141  13.591  18.198  0.00  0.00    +0.000 N 
ATOM     30  C   UNL     1       1.261  13.243  19.474  0.00  0.00    +0.000 C 
ATOM     31  O   UNL     1       0.802  12.123  19.655  0.00  0.00    +0.000 OA
ATOM     32  O   UNL     1      10.360  13.972  19.319  0.00  0.00    +0.000 OA
ATOM     33  H   UNL     1       7.205  15.463  20.553  0.00  0.00    +0.000 HD
ATOM     34  H   UNL     1       2.498  12.824  17.631  0.00  0.00    +0.000 HD
ENDROOT
TORSDOF 0
ENDMDL
MODEL 6
REMARK VINA RESULT:      -7.0      9.776     13.498
REMARK  Name = 
REMARK  4 active torsions:
REMARK  status: ('A' for Active; 'I' for Inactive)
REMARK    1  A    between atoms: C_1  and  C_2
REMARK    2  A    between atoms: C_2  and  C_3
REMARK    3  A    between atoms: C_15  and  C_16
REMARK    4  A    between atoms: C_15  and  C_17
REMARK                            x       y       z     vdW  Elec       q    Type
REMARK                         _______ _______ _______ _____ _____    ______ ____
ROOT
ATOM      1  C   UNL     1       0.577  15.709  19.033  0.00  0.00    +0.000 C 
ATOM      2  C   UNL     1       2.100  15.534  19.050  0.00  0.00    +0.000 C 
ATOM      3  C   UNL     1       2.562  15.039  17.662  0.00  0.00    +0.000 C 
ATOM      4  C   UNL     1       2.775  16.908  19.240  0.00  0.00    +0.000 C 
ATOM      5  C   UNL     1       3.567  17.141  20.280  0.00  0.00    +0.000 C 
ATOM      6  C   UNL     1       4.187  15.902  20.692  0.00  0.00    +0.000 A 
ATOM      7  C   UNL     1       3.474  14.773  20.913  0.00  0.00    +0.000 A 
ATOM      8  C   UNL     1       4.004  13.991  21.936  0.00  0.00    +0.000 A 
ATOM      9  C   UNL     1       5.365  14.195  22.372  0.00  0.00    +0.000 A 
ATOM     10  C   UNL     1       6.177  14.806  21.391  0.00  0.00    +0.000 A 
ATOM     11  C   UNL     1       7.508  15.024  20.951  0.00  0.00    +0.000 A 
ATOM     12  C   UNL     1       7.386  14.860  19.578  0.00  0.00    +0.000 A 
ATOM     13  N   UNL     1       6.066  15.046  19.295  0.00  0.00    +0.000 N 
ATOM     14  C   UNL     1       5.488  15.563  20.440  0.00  0.00    +0.000 A 
ATOM     15  C   UNL     1       8.489  14.739  18.548  0.00  0.00    +0.000 C 
ATOM     16  C   UNL     1       8.079  13.691  17.475  0.00  0.00    +0.000 C 
ATOM     17  C   UNL     1       8.374  16.116  17.826  0.00  0.00    +0.000 C 
ATOM     18  C   UNL     1       9.772  14.097  19.479  0.00  0.00    +0.000 C 
ATOM     19  C   UNL     1      11.729  14.170  19.786  0.00  0.00    +0.000 C 
ATOM     20  C   UNL     1      11.849  13.208  18.785  0.00  0.00    +0.000 C 
ATOM     21  C   UNL     1      11.362  12.508  17.541  0.00  0.00    +0.000 C 
ATOM     22  C   UNL     1      11.578  13.445  16.310  0.00  0.00    +0.000 C 
ATOM     23  C   UNL     1      11.973  14.817  16.860  0.00  0.00    +0.000 C 
ATOM     24  N   UNL     1      11.344  14.705  18.146  0.00  0.00    +0.000 N 
ATOM     25  C   UNL     1      10.680  15.845  19.241  0.00  0.00    +0.000 C 
ATOM     26  O   UNL     1      10.659  17.052  19.055  0.00  0.00    +0.000 OA
ATOM     27  C   UNL     1      10.020  14.819  20.703  0.00  0.00    +0.000 C 
ATOM     28  C   UNL     1       8.836  15.249  21.568  0.00  0.00    +0.000 C 
ATOM     29  N   UNL     1      10.483  13.251  21.246  0.00  0.00    +0.000 N 
ATOM     30  C   UNL     1      11.201  12.302  20.192  0.00  0.00    +0.000 C 
ATOM     31  O   UNL     1      11.470  11.137  20.453  0.00  0.00    +0.000 OA
ATOM     32  O   UNL     1       2.355  14.559  20.160  0.00  0.00    +0.000 OA
ATOM     33  H   UNL     1       5.597  14.918  18.410  0.00  0.00    +0.000 HD
ATOM     34  H   UNL     1      10.058  12.827  22.069  0.00  0.00    +0.000 HD
ENDROOT
TORSDOF 0
ENDMDL
MODEL 7
REMARK VINA RESULT:      -6.7     10.574     12.740
REMARK  Name = 
REMARK  4 active torsions:
REMARK  status: ('A' for Active; 'I' for Inactive)
REMARK    1  A    between atoms: C_1  and  C_2
REMARK    2  A    between atoms: C_2  and  C_3
REMARK    3  A    between atoms: C_15  and  C_16
REMARK    4  A    between atoms: C_15  and  C_17
REMARK                            x       y       z     vdW  Elec       q    Type
REMARK                         _______ _______ _______ _____ _____    ______ ____
ROOT
ATOM      1  C   UNL     1      12.262  15.352  17.098  0.00  0.00    +0.000 C 
ATOM      2  C   UNL     1      11.341  15.193  18.313  0.00  0.00    +0.000 C 
ATOM      3  C   UNL     1      11.379  16.495  19.144  0.00  0.00    +0.000 C 
ATOM      4  C   UNL     1       9.880  15.055  17.837  0.00  0.00    +0.000 C 
ATOM      5  C   UNL     1       9.167  13.972  18.129  0.00  0.00    +0.000 C 
ATOM      6  C   UNL     1       9.640  13.415  19.376  0.00  0.00    +0.000 A 
ATOM      7  C   UNL     1      10.950  13.168  19.609  0.00  0.00    +0.000 A 
ATOM      8  C   UNL     1      11.154  12.046  20.409  0.00  0.00    +0.000 A 
ATOM      9  C   UNL     1      10.070  11.514  21.200  0.00  0.00    +0.000 A 
ATOM     10  C   UNL     1       9.066  12.467  21.479  0.00  0.00    +0.000 A 
ATOM     11  C   UNL     1       7.991  12.809  22.340  0.00  0.00    +0.000 A 
ATOM     12  C   UNL     1       8.191  14.170  22.522  0.00  0.00    +0.000 A 
ATOM     13  N   UNL     1       8.965  14.577  21.475  0.00  0.00    +0.000 N 
ATOM     14  C   UNL     1       8.990  13.529  20.575  0.00  0.00    +0.000 A 
ATOM     15  C   UNL     1       7.518  15.091  23.518  0.00  0.00    +0.000 C 
ATOM     16  C   UNL     1       8.559  16.110  24.061  0.00  0.00    +0.000 C 
ATOM     17  C   UNL     1       6.597  15.925  22.575  0.00  0.00    +0.000 C 
ATOM     18  C   UNL     1       7.103  14.008  24.774  0.00  0.00    +0.000 C 
ATOM     19  C   UNL     1       5.703  13.544  26.098  0.00  0.00    +0.000 C 
ATOM     20  C   UNL     1       6.316  14.454  26.958  0.00  0.00    +0.000 C 
ATOM     21  C   UNL     1       7.157  15.675  27.228  0.00  0.00    +0.000 C 
ATOM     22  C   UNL     1       6.327  16.953  26.884  0.00  0.00    +0.000 C 
ATOM     23  C   UNL     1       5.061  16.480  26.168  0.00  0.00    +0.000 C 
ATOM     24  N   UNL     1       5.577  15.247  25.643  0.00  0.00    +0.000 N 
ATOM     25  C   UNL     1       5.208  14.304  24.259  0.00  0.00    +0.000 C 
ATOM     26  O   UNL     1       4.347  14.584  23.440  0.00  0.00    +0.000 OA
ATOM     27  C   UNL     1       6.410  12.828  24.318  0.00  0.00    +0.000 C 
ATOM     28  C   UNL     1       6.915  12.101  23.072  0.00  0.00    +0.000 C 
ATOM     29  N   UNL     1       7.230  12.127  25.662  0.00  0.00    +0.000 N 
ATOM     30  C   UNL     1       7.422  13.039  26.949  0.00  0.00    +0.000 C 
ATOM     31  O   UNL     1       8.082  12.668  27.910  0.00  0.00    +0.000 OA
ATOM     32  O   UNL     1      11.874  13.993  19.036  0.00  0.00    +0.000 OA
ATOM     33  H   UNL     1       9.379  15.486  21.327  0.00  0.00    +0.000 HD
ATOM     34  H   UNL     1       7.831  11.312  25.551  0.00  0.00    +0.000 HD
ENDROOT
TORSDOF 0
ENDMDL
MODEL 8
REMARK VINA RESULT:      -6.7      2.170      2.867
REMARK  Name = 
REMARK  4 active torsions:
REMARK  status: ('A' for Active; 'I' for Inactive)
REMARK    1  A    between atoms: C_1  and  C_2
REMARK    2  A    between atoms: C_2  and  C_3
REMARK    3  A    between atoms: C_15  and  C_16
REMARK    4  A    between atoms: C_15  and  C_17
REMARK                            x       y       z     vdW  Elec       q    Type
REMARK                         _______ _______ _______ _____ _____    ______ ____
ROOT
ATOM      1  C   UNL     1       1.665   9.272  17.952  0.00  0.00    +0.000 C 
ATOM      2  C   UNL     1       0.747  10.147  18.813  0.00  0.00    +0.000 C 
ATOM      3  C   UNL     1      -0.661  10.171  18.178  0.00  0.00    +0.000 C 
ATOM      4  C   UNL     1       0.561   9.493  20.197  0.00  0.00    +0.000 C 
ATOM      5  C   UNL     1       0.919  10.129  21.307  0.00  0.00    +0.000 C 
ATOM      6  C   UNL     1       0.805  11.555  21.094  0.00  0.00    +0.000 A 
ATOM      7  C   UNL     1       1.353  12.174  20.022  0.00  0.00    +0.000 A 
ATOM      8  C   UNL     1       1.803  13.459  20.313  0.00  0.00    +0.000 A 
ATOM      9  C   UNL     1       1.335  14.140  21.498  0.00  0.00    +0.000 A 
ATOM     10  C   UNL     1       0.097  13.650  21.967  0.00  0.00    +0.000 A 
ATOM     11  C   UNL     1      -1.048  13.938  22.754  0.00  0.00    +0.000 A 
ATOM     12  C   UNL     1      -2.072  13.432  21.967  0.00  0.00    +0.000 A 
ATOM     13  N   UNL     1      -1.487  12.534  21.124  0.00  0.00    +0.000 N 
ATOM     14  C   UNL     1      -0.201  12.337  21.591  0.00  0.00    +0.000 A 
ATOM     15  C   UNL     1      -3.565  13.625  22.134  0.00  0.00    +0.000 C 
ATOM     16  C   UNL     1      -4.223  13.786  20.734  0.00  0.00    +0.000 C 
ATOM     17  C   UNL     1      -3.995  12.206  22.617  0.00  0.00    +0.000 C 
ATOM     18  C   UNL     1      -3.636  15.126  22.949  0.00  0.00    +0.000 C 
ATOM     19  C   UNL     1      -4.575  16.140  24.371  0.00  0.00    +0.000 C 
ATOM     20  C   UNL     1      -5.493  16.520  23.394  0.00  0.00    +0.000 C 
ATOM     21  C   UNL     1      -6.221  16.304  22.092  0.00  0.00    +0.000 C 
ATOM     22  C   UNL     1      -7.280  15.171  22.280  0.00  0.00    +0.000 C 
ATOM     23  C   UNL     1      -7.011  14.535  23.645  0.00  0.00    +0.000 C 
ATOM     24  N   UNL     1      -5.616  14.856  23.743  0.00  0.00    +0.000 N 
ATOM     25  C   UNL     1      -4.284  14.117  24.531  0.00  0.00    +0.000 C 
ATOM     26  O   UNL     1      -4.355  13.099  25.202  0.00  0.00    +0.000 OA
ATOM     27  C   UNL     1      -2.777  15.201  24.106  0.00  0.00    +0.000 C 
ATOM     28  C   UNL     1      -1.351  14.662  24.011  0.00  0.00    +0.000 C 
ATOM     29  N   UNL     1      -2.709  16.859  23.642  0.00  0.00    +0.000 N 
ATOM     30  C   UNL     1      -4.030  17.494  23.029  0.00  0.00    +0.000 C 
ATOM     31  O   UNL     1      -4.048  18.630  22.574  0.00  0.00    +0.000 OA
ATOM     32  O   UNL     1       1.423  11.485  18.846  0.00  0.00    +0.000 OA
ATOM     33  H   UNL     1      -1.912  12.037  20.354  0.00  0.00    +0.000 HD
ATOM     34  H   UNL     1      -1.820  17.325  23.467  0.00  0.00    +0.000 HD
ENDROOT
TORSDOF 0
ENDMDL
MODEL 9
REMARK VINA RESULT:      -6.7      3.048      7.260
REMARK  Name = 
REMARK  4 active torsions:
REMARK  status: ('A' for Active; 'I' for Inactive)
REMARK    1  A    between atoms: C_1  and  C_2
REMARK    2  A    between atoms: C_2  and  C_3
REMARK    3  A    between atoms: C_15  and  C_16
REMARK    4  A    between atoms: C_15  and  C_17
REMARK                            x       y       z     vdW  Elec       q    Type
REMARK                         _______ _______ _______ _____ _____    ______ ____
ROOT
ATOM      1  C   UNL     1      -7.916  16.893  19.307  0.00  0.00    +0.000 C 
ATOM      2  C   UNL     1      -6.660  16.034  19.494  0.00  0.00    +0.000 C 
ATOM      3  C   UNL     1      -6.349  15.307  18.167  0.00  0.00    +0.000 C 
ATOM      4  C   UNL     1      -5.445  16.949  19.753  0.00  0.00    +0.000 C 
ATOM      5  C   UNL     1      -4.741  16.845  20.875  0.00  0.00    +0.000 C 
ATOM      6  C   UNL     1      -4.813  15.484  21.356  0.00  0.00    +0.000 A 
ATOM      7  C   UNL     1      -5.986  14.826  21.500  0.00  0.00    +0.000 A 
ATOM      8  C   UNL     1      -5.984  13.944  22.577  0.00  0.00    +0.000 A 
ATOM      9  C   UNL     1      -4.734  13.519  23.162  0.00  0.00    +0.000 A 
ATOM     10  C   UNL     1      -3.640  13.631  22.276  0.00  0.00    +0.000 A 
ATOM     11  C   UNL     1      -2.325  13.184  21.986  0.00  0.00    +0.000 A 
ATOM     12  C   UNL     1      -2.375  13.021  20.609  0.00  0.00    +0.000 A 
ATOM     13  N   UNL     1      -3.422  13.782  20.180  0.00  0.00    +0.000 N 
ATOM     14  C   UNL     1      -3.801  14.568  21.251  0.00  0.00    +0.000 A 
ATOM     15  C   UNL     1      -1.361  12.348  19.707  0.00  0.00    +0.000 C 
ATOM     16  C   UNL     1      -2.106  11.553  18.598  0.00  0.00    +0.000 C 
ATOM     17  C   UNL     1      -0.751  13.582  18.974  0.00  0.00    +0.000 C 
ATOM     18  C   UNL     1      -0.622  11.237  20.777  0.00  0.00    +0.000 C 
ATOM     19  C   UNL     1       1.104  10.414  21.300  0.00  0.00    +0.000 C 
ATOM     20  C   UNL     1       0.858   9.453  20.321  0.00  0.00    +0.000 C 
ATOM     21  C   UNL     1       0.225   8.991  19.033  0.00  0.00    +0.000 C 
ATOM     22  C   UNL     1       0.971   9.654  17.831  0.00  0.00    +0.000 C 
ATOM     23  C   UNL     1       1.904  10.715  18.417  0.00  0.00    +0.000 C 
ATOM     24  N   UNL     1       1.174  10.976  19.625  0.00  0.00    +0.000 N 
ATOM     25  C   UNL     1       1.014  12.352  20.637  0.00  0.00    +0.000 C 
ATOM     26  O   UNL     1       1.576  13.420  20.447  0.00  0.00    +0.000 OA
ATOM     27  C   UNL     1      -0.187  11.828  22.019  0.00  0.00    +0.000 C 
ATOM     28  C   UNL     1      -1.112  12.803  22.746  0.00  0.00    +0.000 C 
ATOM     29  N   UNL     1      -0.563  10.255  22.615  0.00  0.00    +0.000 N 
ATOM     30  C   UNL     1      -0.270   9.027  21.650  0.00  0.00    +0.000 C 
ATOM     31  O   UNL     1      -0.601   7.886  21.942  0.00  0.00    +0.000 OA
ATOM     32  O   UNL     1      -6.997  15.114  20.628  0.00  0.00    +0.000 OA
ATOM     33  H   UNL     1      -3.808  13.837  19.248  0.00  0.00    +0.000 HD
ATOM     34  H   UNL     1      -1.214  10.122  23.386  0.00  0.00    +0.000 HD
ENDROOT
TORSDOF 0
ENDMDL
