MODEL 1
REMARK VINA RESULT:      -8.0      0.000      0.000
REMARK  Name = 
REMARK  9 active torsions:
REMARK  status: ('A' for Active; 'I' for Inactive)
REMARK    1  A    between atoms: C_1  and  C_2
REMARK    2  A    between atoms: C_4  and  C_5
REMARK    3  A    between atoms: C_5  and  C_7
REMARK    4  A    between atoms: C_7  and  O_8
REMARK    5  A    between atoms: O_8  and  C_9
REMARK    6  A    between atoms: C_9  and  C_11
REMARK    7  A    between atoms: C_12  and  C_13
REMARK    8  A    between atoms: C_20  and  C_21
REMARK    9  A    between atoms: N_22  and  C_23
REMARK                            x       y       z     vdW  Elec       q    Type
REMARK                         _______ _______ _______ _____ _____    ______ ____
ROOT
ATOM      1  O   UNL     1       6.809   6.175  18.447  0.00  0.00    +0.000 OA
ENDROOT
BRANCH   1   2
ATOM      2  C   UNL     1       7.464   6.988  17.580  0.00  0.00    +0.000 C 
ATOM      3  O   UNL     1       7.598   6.816  16.381  0.00  0.00    +0.000 OA
BRANCH   2   4
ATOM      4  C   UNL     1       8.154   8.027  18.374  0.00  0.00    +0.000 C 
ATOM      5  C   UNL     1       8.294   9.271  17.888  0.00  0.00    +0.000 C 
BRANCH   5   6
ATOM      6  C   UNL     1       9.041  10.345  18.564  0.00  0.00    +0.000 A 
ATOM      7  C   UNL     1       9.356  10.292  19.930  0.00  0.00    +0.000 A 
ATOM      8  C   UNL     1      10.069  11.328  20.542  0.00  0.00    +0.000 A 
ATOM      9  C   UNL     1      10.491  12.422  19.792  0.00  0.00    +0.000 A 
ATOM     10  C   UNL     1      10.212  12.466  18.428  0.00  0.00    +0.000 A 
ATOM     11 BR   UNL     1      10.802  13.943  17.405  0.00  0.00    +0.000 Br
ATOM     12  C   UNL     1       9.500  11.434  17.811  0.00  0.00    +0.000 A 
ENDBRANCH   5   6
ENDBRANCH   2   4
ENDBRANCH   1   2
BRANCH   1  13
ATOM     13  C   UNL     1       6.765   4.804  18.048  0.00  0.00    +0.000 C 
BRANCH  13  14
ATOM     14  C   UNL     1       5.433   4.284  17.499  0.00  0.00    +0.000 C 
ATOM     15  O   UNL     1       5.346   3.929  16.320  0.00  0.00    +0.000 OA
BRANCH  14  19
ATOM     16  C   UNL     1       1.660   5.689  20.713  0.00  0.00    +0.000 C 
ATOM     17  C   UNL     1       2.594   4.939  19.824  0.00  0.00    +0.000 A 
ATOM     18  C   UNL     1       3.687   5.391  19.107  0.00  0.00    +0.000 A 
ATOM     19  C   UNL     1       4.260   4.283  18.405  0.00  0.00    +0.000 A 
ATOM     20  C   UNL     1       3.481   3.172  18.733  0.00  0.00    +0.000 A 
ATOM     21  C   UNL     1       3.607   1.749  18.308  0.00  0.00    +0.000 C 
ATOM     22  N   UNL     1       2.479   3.590  19.590  0.00  0.00    +0.000 N 
ATOM     23  C   UNL     1       1.445   2.746  20.166  0.00  0.00    +0.000 C 
ENDBRANCH  14  19
ENDBRANCH  13  14
ENDBRANCH   1  13
TORSDOF 6
ENDMDL
MODEL 2
REMARK VINA RESULT:      -7.8      0.962      1.781
REMARK  Name = 
REMARK  9 active torsions:
REMARK  status: ('A' for Active; 'I' for Inactive)
REMARK    1  A    between atoms: C_1  and  C_2
REMARK    2  A    between atoms: C_4  and  C_5
REMARK    3  A    between atoms: C_5  and  C_7
REMARK    4  A    between atoms: C_7  and  O_8
REMARK    5  A    between atoms: O_8  and  C_9
REMARK    6  A    between atoms: C_9  and  C_11
REMARK    7  A    between atoms: C_12  and  C_13
REMARK    8  A    between atoms: C_20  and  C_21
REMARK    9  A    between atoms: N_22  and  C_23
REMARK                            x       y       z     vdW  Elec       q    Type
REMARK                         _______ _______ _______ _____ _____    ______ ____
ROOT
ATOM      1  O   UNL     1       6.752   6.523  18.480  0.00  0.00    +0.000 OA
ENDROOT
BRANCH   1   2
ATOM      2  C   UNL     1       7.568   7.197  17.631  0.00  0.00    +0.000 C 
ATOM      3  O   UNL     1       7.785   6.928  16.463  0.00  0.00    +0.000 OA
BRANCH   2   4
ATOM      4  C   UNL     1       8.300   8.209  18.423  0.00  0.00    +0.000 C 
ATOM      5  C   UNL     1       8.448   9.459  17.955  0.00  0.00    +0.000 C 
BRANCH   5   6
ATOM      6  C   UNL     1       9.234  10.507  18.628  0.00  0.00    +0.000 A 
ATOM      7  C   UNL     1       9.379  10.555  20.023  0.00  0.00    +0.000 A 
ATOM      8  C   UNL     1      10.134  11.562  20.631  0.00  0.00    +0.000 A 
ATOM      9  C   UNL     1      10.770  12.524  19.851  0.00  0.00    +0.000 A 
ATOM     10  C   UNL     1      10.660  12.464  18.463  0.00  0.00    +0.000 A 
ATOM     11 BR   UNL     1      11.539  13.759  17.402  0.00  0.00    +0.000 Br
ATOM     12  C   UNL     1       9.907  11.459  17.851  0.00  0.00    +0.000 A 
ENDBRANCH   5   6
ENDBRANCH   2   4
ENDBRANCH   1   2
BRANCH   1  13
ATOM     13  C   UNL     1       6.224   5.308  17.946  0.00  0.00    +0.000 C 
BRANCH  13  14
ATOM     14  C   UNL     1       4.839   5.380  17.295  0.00  0.00    +0.000 C 
ATOM     15  O   UNL     1       4.668   6.066  16.282  0.00  0.00    +0.000 OA
BRANCH  14  19
ATOM     16  C   UNL     1       1.403   1.813  18.708  0.00  0.00    +0.000 C 
ATOM     17  C   UNL     1       2.217   3.055  18.560  0.00  0.00    +0.000 A 
ATOM     18  C   UNL     1       3.278   3.321  17.714  0.00  0.00    +0.000 A 
ATOM     19  C   UNL     1       3.723   4.660  17.951  0.00  0.00    +0.000 A 
ATOM     20  C   UNL     1       2.894   5.173  18.950  0.00  0.00    +0.000 A 
ATOM     21  C   UNL     1       2.881   6.518  19.594  0.00  0.00    +0.000 C 
ATOM     22  N   UNL     1       1.992   4.186  19.306  0.00  0.00    +0.000 N 
ATOM     23  C   UNL     1       0.955   4.306  20.318  0.00  0.00    +0.000 C 
ENDBRANCH  14  19
ENDBRANCH  13  14
ENDBRANCH   1  13
TORSDOF 6
ENDMDL
MODEL 3
REMARK VINA RESULT:      -7.7      1.349      1.640
REMARK  Name = 
REMARK  9 active torsions:
REMARK  status: ('A' for Active; 'I' for Inactive)
REMARK    1  A    between atoms: C_1  and  C_2
REMARK    2  A    between atoms: C_4  and  C_5
REMARK    3  A    between atoms: C_5  and  C_7
REMARK    4  A    between atoms: C_7  and  O_8
REMARK    5  A    between atoms: O_8  and  C_9
REMARK    6  A    between atoms: C_9  and  C_11
REMARK    7  A    between atoms: C_12  and  C_13
REMARK    8  A    between atoms: C_20  and  C_21
REMARK    9  A    between atoms: N_22  and  C_23
REMARK                            x       y       z     vdW  Elec       q    Type
REMARK                         _______ _______ _______ _____ _____    ______ ____
ROOT
ATOM      1  O   UNL     1       6.557   7.441  16.799  0.00  0.00    +0.000 OA
ENDROOT
BRANCH   1   2
ATOM      2  C   UNL     1       7.541   7.447  17.733  0.00  0.00    +0.000 C 
ATOM      3  O   UNL     1       7.894   6.509  18.425  0.00  0.00    +0.000 OA
BRANCH   2   4
ATOM      4  C   UNL     1       7.987   8.847  17.905  0.00  0.00    +0.000 C 
ATOM      5  C   UNL     1       8.991   9.141  18.747  0.00  0.00    +0.000 C 
BRANCH   5   6
ATOM      6  C   UNL     1       9.443  10.509  19.050  0.00  0.00    +0.000 A 
ATOM      7  C   UNL     1       9.380  11.049  20.344  0.00  0.00    +0.000 A 
ATOM      8  C   UNL     1       9.820  12.352  20.598  0.00  0.00    +0.000 A 
ATOM      9  C   UNL     1      10.346  13.125  19.567  0.00  0.00    +0.000 A 
ATOM     10  C   UNL     1      10.445  12.583  18.287  0.00  0.00    +0.000 A 
ATOM     11 BR   UNL     1      11.178  13.626  16.890  0.00  0.00    +0.000 Br
ATOM     12  C   UNL     1      10.007  11.283  18.027  0.00  0.00    +0.000 A 
ENDBRANCH   5   6
ENDBRANCH   2   4
ENDBRANCH   1   2
BRANCH   1  13
ATOM     13  C   UNL     1       5.655   6.339  16.904  0.00  0.00    +0.000 C 
BRANCH  13  14
ATOM     14  C   UNL     1       4.301   6.611  17.568  0.00  0.00    +0.000 C 
ATOM     15  O   UNL     1       3.763   7.715  17.443  0.00  0.00    +0.000 OA
BRANCH  14  19
ATOM     16  C   UNL     1       2.122   3.965  21.413  0.00  0.00    +0.000 C 
ATOM     17  C   UNL     1       2.734   4.395  20.122  0.00  0.00    +0.000 A 
ATOM     18  C   UNL     1       3.217   5.634  19.742  0.00  0.00    +0.000 A 
ATOM     19  C   UNL     1       3.706   5.540  18.401  0.00  0.00    +0.000 A 
ATOM     20  C   UNL     1       3.503   4.216  18.007  0.00  0.00    +0.000 A 
ATOM     21  C   UNL     1       3.822   3.535  16.720  0.00  0.00    +0.000 C 
ATOM     22  N   UNL     1       2.912   3.542  19.061  0.00  0.00    +0.000 N 
ATOM     23  C   UNL     1       2.526   2.140  19.065  0.00  0.00    +0.000 C 
ENDBRANCH  14  19
ENDBRANCH  13  14
ENDBRANCH   1  13
TORSDOF 6
ENDMDL
MODEL 4
REMARK VINA RESULT:      -7.6      1.743      2.734
REMARK  Name = 
REMARK  9 active torsions:
REMARK  status: ('A' for Active; 'I' for Inactive)
REMARK    1  A    between atoms: C_1  and  C_2
REMARK    2  A    between atoms: C_4  and  C_5
REMARK    3  A    between atoms: C_5  and  C_7
REMARK    4  A    between atoms: C_7  and  O_8
REMARK    5  A    between atoms: O_8  and  C_9
REMARK    6  A    between atoms: C_9  and  C_11
REMARK    7  A    between atoms: C_12  and  C_13
REMARK    8  A    between atoms: C_20  and  C_21
REMARK    9  A    between atoms: N_22  and  C_23
REMARK                            x       y       z     vdW  Elec       q    Type
REMARK                         _______ _______ _______ _____ _____    ______ ____
ROOT
ATOM      1  O   UNL     1       7.181   7.888  17.018  0.00  0.00    +0.000 OA
ENDROOT
BRANCH   1   2
ATOM      2  C   UNL     1       8.064   8.195  18.001  0.00  0.00    +0.000 C 
ATOM      3  O   UNL     1       8.540   7.427  18.819  0.00  0.00    +0.000 OA
BRANCH   2   4
ATOM      4  C   UNL     1       8.206   9.667  18.032  0.00  0.00    +0.000 C 
ATOM      5  C   UNL     1       9.419  10.233  17.932  0.00  0.00    +0.000 C 
BRANCH   5   6
ATOM      6  C   UNL     1       9.669  11.681  18.041  0.00  0.00    +0.000 A 
ATOM      7  C   UNL     1      10.960  12.208  18.193  0.00  0.00    +0.000 A 
ATOM      8  C   UNL     1      11.163  13.588  18.293  0.00  0.00    +0.000 A 
ATOM      9  C   UNL     1      10.080  14.459  18.223  0.00  0.00    +0.000 A 
ATOM     10  C   UNL     1       8.798  13.946  18.037  0.00  0.00    +0.000 A 
ATOM     11 BR   UNL     1       7.328  15.130  17.923  0.00  0.00    +0.000 Br
ATOM     12  C   UNL     1       8.590  12.568  17.937  0.00  0.00    +0.000 A 
ENDBRANCH   5   6
ENDBRANCH   2   4
ENDBRANCH   1   2
BRANCH   1  13
ATOM     13  C   UNL     1       6.755   6.524  17.016  0.00  0.00    +0.000 C 
BRANCH  13  14
ATOM     14  C   UNL     1       5.437   6.210  16.300  0.00  0.00    +0.000 C 
ATOM     15  O   UNL     1       5.157   6.783  15.244  0.00  0.00    +0.000 OA
BRANCH  14  19
ATOM     16  C   UNL     1       3.058   1.935  17.911  0.00  0.00    +0.000 C 
ATOM     17  C   UNL     1       3.475   3.343  17.650  0.00  0.00    +0.000 A 
ATOM     18  C   UNL     1       4.520   3.828  16.884  0.00  0.00    +0.000 A 
ATOM     19  C   UNL     1       4.504   5.258  16.947  0.00  0.00    +0.000 A 
ATOM     20  C   UNL     1       3.423   5.598  17.762  0.00  0.00    +0.000 A 
ATOM     21  C   UNL     1       2.914   6.936  18.178  0.00  0.00    +0.000 C 
ATOM     22  N   UNL     1       2.816   4.427  18.178  0.00  0.00    +0.000 N 
ATOM     23  C   UNL     1       1.654   4.333  19.047  0.00  0.00    +0.000 C 
ENDBRANCH  14  19
ENDBRANCH  13  14
ENDBRANCH   1  13
TORSDOF 6
ENDMDL
MODEL 5
REMARK VINA RESULT:      -7.6      1.082      1.750
REMARK  Name = 
REMARK  9 active torsions:
REMARK  status: ('A' for Active; 'I' for Inactive)
REMARK    1  A    between atoms: C_1  and  C_2
REMARK    2  A    between atoms: C_4  and  C_5
REMARK    3  A    between atoms: C_5  and  C_7
REMARK    4  A    between atoms: C_7  and  O_8
REMARK    5  A    between atoms: O_8  and  C_9
REMARK    6  A    between atoms: C_9  and  C_11
REMARK    7  A    between atoms: C_12  and  C_13
REMARK    8  A    between atoms: C_20  and  C_21
REMARK    9  A    between atoms: N_22  and  C_23
REMARK                            x       y       z     vdW  Elec       q    Type
REMARK                         _______ _______ _______ _____ _____    ______ ____
ROOT
ATOM      1  O   UNL     1       7.855   6.575  18.093  0.00  0.00    +0.000 OA
ENDROOT
BRANCH   1   2
ATOM      2  C   UNL     1       7.190   7.543  17.413  0.00  0.00    +0.000 C 
ATOM      3  O   UNL     1       6.265   7.382  16.636  0.00  0.00    +0.000 OA
BRANCH   2   4
ATOM      4  C   UNL     1       7.906   8.818  17.633  0.00  0.00    +0.000 C 
ATOM      5  C   UNL     1       8.682   8.981  18.717  0.00  0.00    +0.000 C 
BRANCH   5   6
ATOM      6  C   UNL     1       9.361  10.241  19.066  0.00  0.00    +0.000 A 
ATOM      7  C   UNL     1       9.526  10.659  20.396  0.00  0.00    +0.000 A 
ATOM      8  C   UNL     1      10.178  11.859  20.694  0.00  0.00    +0.000 A 
ATOM      9  C   UNL     1      10.689  12.648  19.668  0.00  0.00    +0.000 A 
ATOM     10  C   UNL     1      10.561  12.223  18.347  0.00  0.00    +0.000 A 
ATOM     11 BR   UNL     1      11.273  13.286  16.954  0.00  0.00    +0.000 Br
ATOM     12  C   UNL     1       9.911  11.025  18.044  0.00  0.00    +0.000 A 
ENDBRANCH   5   6
ENDBRANCH   2   4
ENDBRANCH   1   2
BRANCH   1  13
ATOM     13  C   UNL     1       7.040   5.824  18.994  0.00  0.00    +0.000 C 
BRANCH  13  14
ATOM     14  C   UNL     1       6.111   4.773  18.376  0.00  0.00    +0.000 C 
ATOM     15  O   UNL     1       6.393   4.263  17.289  0.00  0.00    +0.000 OA
BRANCH  14  19
ATOM     16  C   UNL     1       2.491   2.455  21.214  0.00  0.00    +0.000 C 
ATOM     17  C   UNL     1       3.273   3.397  20.362  0.00  0.00    +0.000 A 
ATOM     18  C   UNL     1       4.554   3.275  19.855  0.00  0.00    +0.000 A 
ATOM     19  C   UNL     1       4.856   4.448  19.093  0.00  0.00    +0.000 A 
ATOM     20  C   UNL     1       3.720   5.257  19.162  0.00  0.00    +0.000 A 
ATOM     21  C   UNL     1       3.451   6.593  18.556  0.00  0.00    +0.000 C 
ATOM     22  N   UNL     1       2.777   4.605  19.935  0.00  0.00    +0.000 N 
ATOM     23  C   UNL     1       1.451   5.106  20.262  0.00  0.00    +0.000 C 
ENDBRANCH  14  19
ENDBRANCH  13  14
ENDBRANCH   1  13
TORSDOF 6
ENDMDL
MODEL 6
REMARK VINA RESULT:      -7.6      1.808      2.311
REMARK  Name = 
REMARK  9 active torsions:
REMARK  status: ('A' for Active; 'I' for Inactive)
REMARK    1  A    between atoms: C_1  and  C_2
REMARK    2  A    between atoms: C_4  and  C_5
REMARK    3  A    between atoms: C_5  and  C_7
REMARK    4  A    between atoms: C_7  and  O_8
REMARK    5  A    between atoms: O_8  and  C_9
REMARK    6  A    between atoms: C_9  and  C_11
REMARK    7  A    between atoms: C_12  and  C_13
REMARK    8  A    between atoms: C_20  and  C_21
REMARK    9  A    between atoms: N_22  and  C_23
REMARK                            x       y       z     vdW  Elec       q    Type
REMARK                         _______ _______ _______ _____ _____    ______ ____
ROOT
ATOM      1  O   UNL     1       7.577   7.327  16.724  0.00  0.00    +0.000 OA
ENDROOT
BRANCH   1   2
ATOM      2  C   UNL     1       8.022   7.629  17.970  0.00  0.00    +0.000 C 
ATOM      3  O   UNL     1       8.088   6.873  18.923  0.00  0.00    +0.000 OA
BRANCH   2   4
ATOM      4  C   UNL     1       8.238   9.091  18.026  0.00  0.00    +0.000 C 
ATOM      5  C   UNL     1       9.172   9.608  18.840  0.00  0.00    +0.000 C 
BRANCH   5   6
ATOM      6  C   UNL     1       9.398  11.051  19.030  0.00  0.00    +0.000 A 
ATOM      7  C   UNL     1       9.734  11.902  17.966  0.00  0.00    +0.000 A 
ATOM      8  C   UNL     1       9.940  13.269  18.180  0.00  0.00    +0.000 A 
ATOM      9  C   UNL     1       9.795  13.805  19.456  0.00  0.00    +0.000 A 
ATOM     10  C   UNL     1       9.427  12.973  20.511  0.00  0.00    +0.000 A 
ATOM     11 BR   UNL     1       9.211  13.704  22.242  0.00  0.00    +0.000 Br
ATOM     12  C   UNL     1       9.220  11.607  20.303  0.00  0.00    +0.000 A 
ENDBRANCH   5   6
ENDBRANCH   2   4
ENDBRANCH   1   2
BRANCH   1  13
ATOM     13  C   UNL     1       7.001   6.025  16.606  0.00  0.00    +0.000 C 
BRANCH  13  14
ATOM     14  C   UNL     1       5.556   5.949  16.101  0.00  0.00    +0.000 C 
ATOM     15  O   UNL     1       5.327   5.909  14.889  0.00  0.00    +0.000 OA
BRANCH  14  19
ATOM     16  C   UNL     1       2.044   7.500  19.536  0.00  0.00    +0.000 C 
ATOM     17  C   UNL     1       2.914   6.709  18.618  0.00  0.00    +0.000 A 
ATOM     18  C   UNL     1       3.932   7.130  17.781  0.00  0.00    +0.000 A 
ATOM     19  C   UNL     1       4.466   5.989  17.104  0.00  0.00    +0.000 A 
ATOM     20  C   UNL     1       3.742   4.889  17.567  0.00  0.00    +0.000 A 
ATOM     21  C   UNL     1       3.860   3.443  17.223  0.00  0.00    +0.000 C 
ATOM     22  N   UNL     1       2.808   5.346  18.480  0.00  0.00    +0.000 N 
ATOM     23  C   UNL     1       1.844   4.525  19.195  0.00  0.00    +0.000 C 
ENDBRANCH  14  19
ENDBRANCH  13  14
ENDBRANCH   1  13
TORSDOF 6
ENDMDL
MODEL 7
REMARK VINA RESULT:      -7.5      1.442      1.932
REMARK  Name = 
REMARK  9 active torsions:
REMARK  status: ('A' for Active; 'I' for Inactive)
REMARK    1  A    between atoms: C_1  and  C_2
REMARK    2  A    between atoms: C_4  and  C_5
REMARK    3  A    between atoms: C_5  and  C_7
REMARK    4  A    between atoms: C_7  and  O_8
REMARK    5  A    between atoms: O_8  and  C_9
REMARK    6  A    between atoms: C_9  and  C_11
REMARK    7  A    between atoms: C_12  and  C_13
REMARK    8  A    between atoms: C_20  and  C_21
REMARK    9  A    between atoms: N_22  and  C_23
REMARK                            x       y       z     vdW  Elec       q    Type
REMARK                         _______ _______ _______ _____ _____    ______ ____
ROOT
ATOM      1  O   UNL     1       6.568   7.696  16.784  0.00  0.00    +0.000 OA
ENDROOT
BRANCH   1   2
ATOM      2  C   UNL     1       7.572   7.583  17.690  0.00  0.00    +0.000 C 
ATOM      3  O   UNL     1       7.810   6.619  18.397  0.00  0.00    +0.000 OA
BRANCH   2   4
ATOM      4  C   UNL     1       8.218   8.908  17.810  0.00  0.00    +0.000 C 
ATOM      5  C   UNL     1       8.893   9.234  18.925  0.00  0.00    +0.000 C 
BRANCH   5   6
ATOM      6  C   UNL     1       9.492  10.557  19.172  0.00  0.00    +0.000 A 
ATOM      7  C   UNL     1       9.620  11.091  20.463  0.00  0.00    +0.000 A 
ATOM      8  C   UNL     1      10.195  12.350  20.665  0.00  0.00    +0.000 A 
ATOM      9  C   UNL     1      10.666  13.083  19.579  0.00  0.00    +0.000 A 
ATOM     10  C   UNL     1      10.574  12.545  18.297  0.00  0.00    +0.000 A 
ATOM     11 BR   UNL     1      11.231  13.533  16.824  0.00  0.00    +0.000 Br
ATOM     12  C   UNL     1      10.000  11.288  18.090  0.00  0.00    +0.000 A 
ENDBRANCH   5   6
ENDBRANCH   2   4
ENDBRANCH   1   2
BRANCH   1  13
ATOM     13  C   UNL     1       5.344   7.079  17.185  0.00  0.00    +0.000 C 
BRANCH  13  14
ATOM     14  C   UNL     1       5.013   5.722  16.555  0.00  0.00    +0.000 C 
ATOM     15  O   UNL     1       5.318   5.495  15.381  0.00  0.00    +0.000 OA
BRANCH  14  19
ATOM     16  C   UNL     1       1.544   2.328  18.281  0.00  0.00    +0.000 C 
ATOM     17  C   UNL     1       2.720   3.230  18.112  0.00  0.00    +0.000 A 
ATOM     18  C   UNL     1       3.037   4.083  17.070  0.00  0.00    +0.000 A 
ATOM     19  C   UNL     1       4.273   4.736  17.377  0.00  0.00    +0.000 A 
ATOM     20  C   UNL     1       4.668   4.250  18.624  0.00  0.00    +0.000 A 
ATOM     21  C   UNL     1       5.867   4.575  19.448  0.00  0.00    +0.000 C 
ATOM     22  N   UNL     1       3.718   3.340  19.050  0.00  0.00    +0.000 N 
ATOM     23  C   UNL     1       3.751   2.596  20.299  0.00  0.00    +0.000 C 
ENDBRANCH  14  19
ENDBRANCH  13  14
ENDBRANCH   1  13
TORSDOF 6
ENDMDL
MODEL 8
REMARK VINA RESULT:      -7.5      1.326      1.446
REMARK  Name = 
REMARK  9 active torsions:
REMARK  status: ('A' for Active; 'I' for Inactive)
REMARK    1  A    between atoms: C_1  and  C_2
REMARK    2  A    between atoms: C_4  and  C_5
REMARK    3  A    between atoms: C_5  and  C_7
REMARK    4  A    between atoms: C_7  and  O_8
REMARK    5  A    between atoms: O_8  and  C_9
REMARK    6  A    between atoms: C_9  and  C_11
REMARK    7  A    between atoms: C_12  and  C_13
REMARK    8  A    between atoms: C_20  and  C_21
REMARK    9  A    between atoms: N_22  and  C_23
REMARK                            x       y       z     vdW  Elec       q    Type
REMARK                         _______ _______ _______ _____ _____    ______ ____
ROOT
ATOM      1  O   UNL     1       6.006   7.443  17.864  0.00  0.00    +0.000 OA
ENDROOT
BRANCH   1   2
ATOM      2  C   UNL     1       7.217   7.618  17.276  0.00  0.00    +0.000 C 
ATOM      3  O   UNL     1       7.858   6.780  16.667  0.00  0.00    +0.000 OA
BRANCH   2   4
ATOM      4  C   UNL     1       7.716   8.954  17.667  0.00  0.00    +0.000 C 
ATOM      5  C   UNL     1       8.786   9.070  18.469  0.00  0.00    +0.000 C 
BRANCH   5   6
ATOM      6  C   UNL     1       9.301  10.351  18.983  0.00  0.00    +0.000 A 
ATOM      7  C   UNL     1       9.340  10.647  20.354  0.00  0.00    +0.000 A 
ATOM      8  C   UNL     1       9.836  11.872  20.809  0.00  0.00    +0.000 A 
ATOM      9  C   UNL     1      10.317  12.811  19.900  0.00  0.00    +0.000 A 
ATOM     10  C   UNL     1      10.314  12.511  18.540  0.00  0.00    +0.000 A 
ATOM     11 BR   UNL     1      10.985  13.779  17.306  0.00  0.00    +0.000 Br
ATOM     12  C   UNL     1       9.819  11.289  18.080  0.00  0.00    +0.000 A 
ENDBRANCH   5   6
ENDBRANCH   2   4
ENDBRANCH   1   2
BRANCH   1  13
ATOM     13  C   UNL     1       5.478   6.122  17.740  0.00  0.00    +0.000 C 
BRANCH  13  14
ATOM     14  C   UNL     1       5.417   5.276  19.016  0.00  0.00    +0.000 C 
ATOM     15  O   UNL     1       6.393   5.224  19.770  0.00  0.00    +0.000 OA
BRANCH  14  19
ATOM     16  C   UNL     1       1.165   3.289  21.138  0.00  0.00    +0.000 C 
ATOM     17  C   UNL     1       2.303   3.632  20.236  0.00  0.00    +0.000 A 
ATOM     18  C   UNL     1       3.351   4.513  20.432  0.00  0.00    +0.000 A 
ATOM     19  C   UNL     1       4.187   4.490  19.271  0.00  0.00    +0.000 A 
ATOM     20  C   UNL     1       3.607   3.572  18.394  0.00  0.00    +0.000 A 
ATOM     21  C   UNL     1       4.040   3.131  17.037  0.00  0.00    +0.000 C 
ATOM     22  N   UNL     1       2.468   3.067  18.995  0.00  0.00    +0.000 N 
ATOM     23  C   UNL     1       1.565   2.085  18.417  0.00  0.00    +0.000 C 
ENDBRANCH  14  19
ENDBRANCH  13  14
ENDBRANCH   1  13
TORSDOF 6
ENDMDL
MODEL 9
REMARK VINA RESULT:      -7.5      1.037      1.060
REMARK  Name = 
REMARK  9 active torsions:
REMARK  status: ('A' for Active; 'I' for Inactive)
REMARK    1  A    between atoms: C_1  and  C_2
REMARK    2  A    between atoms: C_4  and  C_5
REMARK    3  A    between atoms: C_5  and  C_7
REMARK    4  A    between atoms: C_7  and  O_8
REMARK    5  A    between atoms: O_8  and  C_9
REMARK    6  A    between atoms: C_9  and  C_11
REMARK    7  A    between atoms: C_12  and  C_13
REMARK    8  A    between atoms: C_20  and  C_21
REMARK    9  A    between atoms: N_22  and  C_23
REMARK                            x       y       z     vdW  Elec       q    Type
REMARK                         _______ _______ _______ _____ _____    ______ ____
ROOT
ATOM      1  O   UNL     1       7.571   6.608  18.522  0.00  0.00    +0.000 OA
ENDROOT
BRANCH   1   2
ATOM      2  C   UNL     1       7.363   7.385  17.429  0.00  0.00    +0.000 C 
ATOM      3  O   UNL     1       6.790   7.062  16.404  0.00  0.00    +0.000 OA
BRANCH   2   4
ATOM      4  C   UNL     1       8.123   8.639  17.621  0.00  0.00    +0.000 C 
ATOM      5  C   UNL     1       8.621   8.952  18.829  0.00  0.00    +0.000 C 
BRANCH   5   6
ATOM      6  C   UNL     1       9.312  10.216  19.136  0.00  0.00    +0.000 A 
ATOM      7  C   UNL     1       9.504  10.662  20.453  0.00  0.00    +0.000 A 
ATOM      8  C   UNL     1      10.166  11.866  20.712  0.00  0.00    +0.000 A 
ATOM      9  C   UNL     1      10.660  12.631  19.659  0.00  0.00    +0.000 A 
ATOM     10  C   UNL     1      10.504  12.178  18.350  0.00  0.00    +0.000 A 
ATOM     11 BR   UNL     1      11.192  13.207  16.920  0.00  0.00    +0.000 Br
ATOM     12  C   UNL     1       9.843  10.976  18.086  0.00  0.00    +0.000 A 
ENDBRANCH   5   6
ENDBRANCH   2   4
ENDBRANCH   1   2
BRANCH   1  13
ATOM     13  C   UNL     1       7.483   5.205  18.270  0.00  0.00    +0.000 C 
BRANCH  13  14
ATOM     14  C   UNL     1       6.135   4.671  17.775  0.00  0.00    +0.000 C 
ATOM     15  O   UNL     1       6.069   4.053  16.709  0.00  0.00    +0.000 OA
BRANCH  14  19
ATOM     16  C   UNL     1       2.083   7.012  19.929  0.00  0.00    +0.000 C 
ATOM     17  C   UNL     1       3.136   6.039  19.513  0.00  0.00    +0.000 A 
ATOM     18  C   UNL     1       4.204   6.207  18.651  0.00  0.00    +0.000 A 
ATOM     19  C   UNL     1       4.929   4.976  18.580  0.00  0.00    +0.000 A 
ATOM     20  C   UNL     1       4.263   4.085  19.424  0.00  0.00    +0.000 A 
ATOM     21  C   UNL     1       4.566   2.663  19.755  0.00  0.00    +0.000 C 
ATOM     22  N   UNL     1       3.182   4.747  19.977  0.00  0.00    +0.000 N 
ATOM     23  C   UNL     1       2.222   4.178  20.909  0.00  0.00    +0.000 C 
ENDBRANCH  14  19
ENDBRANCH  13  14
ENDBRANCH   1  13
TORSDOF 6
ENDMDL
