MODEL 1
REMARK VINA RESULT:      -8.6      0.000      0.000
REMARK  Name = 
REMARK  5 active torsions:
REMARK  status: ('A' for Active; 'I' for Inactive)
REMARK    1  A    between atoms: C_2  and  C_3
REMARK    2  A    between atoms: C_6  and  C_7
REMARK    3  A    between atoms: C_7  and  S_8
REMARK    4  A    between atoms: S_8  and  C_9
REMARK    5  A    between atoms: C_14  and  C_16
REMARK                            x       y       z     vdW  Elec       q    Type
REMARK                         _______ _______ _______ _____ _____    ______ ____
ROOT
ATOM      1  C   UNL     1       6.885   5.181  17.414  0.00  0.00    +0.000 A 
ATOM      2  N   UNL     1       7.357   4.859  18.600  0.00  0.00    +0.000 NA
ATOM      3  N   UNL     1       8.046   5.913  19.186  0.00  0.00    +0.000 NA
ATOM      4  C   UNL     1       8.019   7.000  18.443  0.00  0.00    +0.000 A 
ATOM      5  N   UNL     1       8.618   8.184  18.831  0.00  0.00    +0.000 N 
ATOM      6  C   UNL     1       8.396   9.417  18.257  0.00  0.00    +0.000 C 
ATOM      7  O   UNL     1       7.625   9.655  17.332  0.00  0.00    +0.000 OA
ATOM      8  S   UNL     1       7.237   6.790  16.940  0.00  0.00    +0.000 S 
ATOM      9  H   UNL     1       9.112   8.116  19.710  0.00  0.00    +0.000 HD
ENDROOT
BRANCH   6  10
ATOM     10  C   UNL     1       9.116  10.582  18.865  0.00  0.00    +0.000 A 
ATOM     11  C   UNL     1       9.693  10.535  20.137  0.00  0.00    +0.000 A 
ATOM     12  C   UNL     1      10.415  11.636  20.630  0.00  0.00    +0.000 A 
ATOM     13  C   UNL     1      10.571  12.798  19.842  0.00  0.00    +0.000 A 
ATOM     14  N   UNL     1      11.272  13.938  20.199  0.00  0.00    +0.000 NA
ATOM     15  C   UNL     1      11.219  14.810  19.218  0.00  0.00    +0.000 A 
ATOM     16  S   UNL     1      10.330  14.342  17.831  0.00  0.00    +0.000 S 
ATOM     17  C   UNL     1       9.984  12.827  18.577  0.00  0.00    +0.000 A 
ATOM     18  C   UNL     1       9.254  11.737  18.071  0.00  0.00    +0.000 A 
ENDBRANCH   6  10
BRANCH   1  19
ATOM     19  S   UNL     1       6.019   4.058  16.381  0.00  0.00    +0.000 S 
BRANCH  19  20
ATOM     20  C   UNL     1       4.324   4.698  16.488  0.00  0.00    +0.000 C 
BRANCH  20  24
ATOM     21  C   UNL     1       2.293   3.294  20.059  0.00  0.00    +0.000 A 
ATOM     22  C   UNL     1       3.258   2.497  19.434  0.00  0.00    +0.000 A 
ATOM     23  C   UNL     1       3.899   2.947  18.274  0.00  0.00    +0.000 A 
ATOM     24  C   UNL     1       3.597   4.203  17.723  0.00  0.00    +0.000 A 
ATOM     25  C   UNL     1       2.614   4.987  18.348  0.00  0.00    +0.000 A 
ATOM     26  C   UNL     1       1.972   4.537  19.510  0.00  0.00    +0.000 A 
BRANCH  21  28
ATOM     27  N   UNL     1       1.122   2.470  22.228  0.00  0.00    +0.000 NA
ATOM     28  C   UNL     1       1.649   2.836  21.260  0.00  0.00    +0.000 C 
ENDBRANCH  21  28
ENDBRANCH  20  24
ENDBRANCH  19  20
ENDBRANCH   1  19
TORSDOF 5
ENDMDL
MODEL 2
REMARK VINA RESULT:      -8.4      1.726      2.198
REMARK  Name = 
REMARK  5 active torsions:
REMARK  status: ('A' for Active; 'I' for Inactive)
REMARK    1  A    between atoms: C_2  and  C_3
REMARK    2  A    between atoms: C_6  and  C_7
REMARK    3  A    between atoms: C_7  and  S_8
REMARK    4  A    between atoms: S_8  and  C_9
REMARK    5  A    between atoms: C_14  and  C_16
REMARK                            x       y       z     vdW  Elec       q    Type
REMARK                         _______ _______ _______ _____ _____    ______ ____
ROOT
ATOM      1  C   UNL     1       6.533   5.168  17.614  0.00  0.00    +0.000 A 
ATOM      2  N   UNL     1       7.044   4.838  18.781  0.00  0.00    +0.000 NA
ATOM      3  N   UNL     1       7.855   5.842  19.294  0.00  0.00    +0.000 NA
ATOM      4  C   UNL     1       7.878   6.907  18.520  0.00  0.00    +0.000 A 
ATOM      5  N   UNL     1       8.599   8.043  18.837  0.00  0.00    +0.000 N 
ATOM      6  C   UNL     1       8.451   9.276  18.237  0.00  0.00    +0.000 C 
ATOM      7  O   UNL     1       7.650   9.556  17.350  0.00  0.00    +0.000 OA
ATOM      8  S   UNL     1       6.994   6.727  17.070  0.00  0.00    +0.000 S 
ATOM      9  H   UNL     1       9.135   7.956  19.689  0.00  0.00    +0.000 HD
ENDROOT
BRANCH   6  10
ATOM     10  C   UNL     1       9.303  10.388  18.767  0.00  0.00    +0.000 A 
ATOM     11  C   UNL     1       9.546  10.572  20.131  0.00  0.00    +0.000 A 
ATOM     12  C   UNL     1      10.408  11.594  20.567  0.00  0.00    +0.000 A 
ATOM     13  C   UNL     1      11.043  12.439  19.631  0.00  0.00    +0.000 A 
ATOM     14  N   UNL     1      11.928  13.463  19.926  0.00  0.00    +0.000 NA
ATOM     15  C   UNL     1      12.333  14.027  18.810  0.00  0.00    +0.000 A 
ATOM     16  S   UNL     1      11.684  13.393  17.358  0.00  0.00    +0.000 S 
ATOM     17  C   UNL     1      10.785  12.242  18.274  0.00  0.00    +0.000 A 
ATOM     18  C   UNL     1       9.921  11.229  17.822  0.00  0.00    +0.000 A 
ENDBRANCH   6  10
BRANCH   1  19
ATOM     19  S   UNL     1       5.515   4.098  16.667  0.00  0.00    +0.000 S 
BRANCH  19  20
ATOM     20  C   UNL     1       4.312   3.546  17.909  0.00  0.00    +0.000 C 
BRANCH  20  24
ATOM     21  C   UNL     1       2.246   6.851  19.822  0.00  0.00    +0.000 A 
ATOM     22  C   UNL     1       2.659   6.950  18.489  0.00  0.00    +0.000 A 
ATOM     23  C   UNL     1       3.338   5.889  17.881  0.00  0.00    +0.000 A 
ATOM     24  C   UNL     1       3.609   4.706  18.588  0.00  0.00    +0.000 A 
ATOM     25  C   UNL     1       3.207   4.623  19.930  0.00  0.00    +0.000 A 
ATOM     26  C   UNL     1       2.526   5.686  20.539  0.00  0.00    +0.000 A 
BRANCH  21  28
ATOM     27  N   UNL     1       0.951   8.810  20.935  0.00  0.00    +0.000 NA
ATOM     28  C   UNL     1       1.534   7.937  20.438  0.00  0.00    +0.000 C 
ENDBRANCH  21  28
ENDBRANCH  20  24
ENDBRANCH  19  20
ENDBRANCH   1  19
TORSDOF 5
ENDMDL
MODEL 3
REMARK VINA RESULT:      -8.1      1.685      2.108
REMARK  Name = 
REMARK  5 active torsions:
REMARK  status: ('A' for Active; 'I' for Inactive)
REMARK    1  A    between atoms: C_2  and  C_3
REMARK    2  A    between atoms: C_6  and  C_7
REMARK    3  A    between atoms: C_7  and  S_8
REMARK    4  A    between atoms: S_8  and  C_9
REMARK    5  A    between atoms: C_14  and  C_16
REMARK                            x       y       z     vdW  Elec       q    Type
REMARK                         _______ _______ _______ _____ _____    ______ ____
ROOT
ATOM      1  C   UNL     1       6.721   5.246  17.537  0.00  0.00    +0.000 A 
ATOM      2  N   UNL     1       7.297   4.902  18.669  0.00  0.00    +0.000 NA
ATOM      3  N   UNL     1       8.059   5.936  19.197  0.00  0.00    +0.000 NA
ATOM      4  C   UNL     1       7.984   7.032  18.471  0.00  0.00    +0.000 A 
ATOM      5  N   UNL     1       8.640   8.199  18.812  0.00  0.00    +0.000 N 
ATOM      6  C   UNL     1       8.389   9.443  18.274  0.00  0.00    +0.000 C 
ATOM      7  O   UNL     1       7.539   9.706  17.429  0.00  0.00    +0.000 OA
ATOM      8  S   UNL     1       7.058   6.854  17.047  0.00  0.00    +0.000 S 
ATOM      9  H   UNL     1       9.213   8.112  19.640  0.00  0.00    +0.000 HD
ENDROOT
BRANCH   6  10
ATOM     10  C   UNL     1       9.187  10.587  18.822  0.00  0.00    +0.000 A 
ATOM     11  C   UNL     1       9.886  10.512  20.030  0.00  0.00    +0.000 A 
ATOM     12  C   UNL     1      10.672  11.594  20.462  0.00  0.00    +0.000 A 
ATOM     13  C   UNL     1      10.770  12.764  19.678  0.00  0.00    +0.000 A 
ATOM     14  N   UNL     1      11.523  13.887  19.978  0.00  0.00    +0.000 NA
ATOM     15  C   UNL     1      11.389  14.774  19.018  0.00  0.00    +0.000 A 
ATOM     16  S   UNL     1      10.358  14.341  17.721  0.00  0.00    +0.000 S 
ATOM     17  C   UNL     1      10.061  12.821  18.478  0.00  0.00    +0.000 A 
ATOM     18  C   UNL     1       9.266  11.750  18.033  0.00  0.00    +0.000 A 
ENDBRANCH   6  10
BRANCH   1  19
ATOM     19  S   UNL     1       5.739   4.152  16.580  0.00  0.00    +0.000 S 
BRANCH  19  20
ATOM     20  C   UNL     1       4.506   3.610  17.797  0.00  0.00    +0.000 C 
BRANCH  20  24
ATOM     21  C   UNL     1       2.355   6.957  19.535  0.00  0.00    +0.000 A 
ATOM     22  C   UNL     1       2.688   5.847  20.317  0.00  0.00    +0.000 A 
ATOM     23  C   UNL     1       3.368   4.763  19.750  0.00  0.00    +0.000 A 
ATOM     24  C   UNL     1       3.736   4.772  18.395  0.00  0.00    +0.000 A 
ATOM     25  C   UNL     1       3.381   5.883  17.613  0.00  0.00    +0.000 A 
ATOM     26  C   UNL     1       2.701   6.968  18.182  0.00  0.00    +0.000 A 
BRANCH  21  28
ATOM     27  N   UNL     1       1.115   8.974  20.607  0.00  0.00    +0.000 NA
ATOM     28  C   UNL     1       1.672   8.075  20.125  0.00  0.00    +0.000 C 
ENDBRANCH  21  28
ENDBRANCH  20  24
ENDBRANCH  19  20
ENDBRANCH   1  19
TORSDOF 5
ENDMDL
MODEL 4
REMARK VINA RESULT:      -8.0      1.073      1.325
REMARK  Name = 
REMARK  5 active torsions:
REMARK  status: ('A' for Active; 'I' for Inactive)
REMARK    1  A    between atoms: C_2  and  C_3
REMARK    2  A    between atoms: C_6  and  C_7
REMARK    3  A    between atoms: C_7  and  S_8
REMARK    4  A    between atoms: S_8  and  C_9
REMARK    5  A    between atoms: C_14  and  C_16
REMARK                            x       y       z     vdW  Elec       q    Type
REMARK                         _______ _______ _______ _____ _____    ______ ____
ROOT
ATOM      1  C   UNL     1       6.854   5.111  17.574  0.00  0.00    +0.000 A 
ATOM      2  N   UNL     1       7.356   4.842  18.760  0.00  0.00    +0.000 NA
ATOM      3  N   UNL     1       8.075   5.913  19.274  0.00  0.00    +0.000 NA
ATOM      4  C   UNL     1       8.040   6.963  18.479  0.00  0.00    +0.000 A 
ATOM      5  N   UNL     1       8.664   8.156  18.792  0.00  0.00    +0.000 N 
ATOM      6  C   UNL     1       8.441   9.363  18.164  0.00  0.00    +0.000 C 
ATOM      7  O   UNL     1       7.646   9.566  17.251  0.00  0.00    +0.000 OA
ATOM      8  S   UNL     1       7.212   6.691  17.011  0.00  0.00    +0.000 S 
ATOM      9  H   UNL     1       9.182   8.125  19.659  0.00  0.00    +0.000 HD
ENDROOT
BRANCH   6  10
ATOM     10  C   UNL     1       9.192  10.546  18.694  0.00  0.00    +0.000 A 
ATOM     11  C   UNL     1      10.194  11.195  17.965  0.00  0.00    +0.000 A 
ATOM     12  C   UNL     1      10.819  12.341  18.485  0.00  0.00    +0.000 A 
ATOM     13  C   UNL     1      10.438  12.853  19.744  0.00  0.00    +0.000 A 
ATOM     14  N   UNL     1      10.957  13.982  20.358  0.00  0.00    +0.000 NA
ATOM     15  C   UNL     1      10.358  14.168  21.512  0.00  0.00    +0.000 A 
ATOM     16  S   UNL     1       9.164  13.019  21.944  0.00  0.00    +0.000 S 
ATOM     17  C   UNL     1       9.440  12.189  20.458  0.00  0.00    +0.000 A 
ATOM     18  C   UNL     1       8.808  11.039  19.955  0.00  0.00    +0.000 A 
ENDBRANCH   6  10
BRANCH   1  19
ATOM     19  S   UNL     1       5.945   3.951  16.622  0.00  0.00    +0.000 S 
BRANCH  19  20
ATOM     20  C   UNL     1       4.259   4.610  16.759  0.00  0.00    +0.000 C 
BRANCH  20  24
ATOM     21  C   UNL     1       2.239   3.188  20.330  0.00  0.00    +0.000 A 
ATOM     22  C   UNL     1       3.457   2.625  19.934  0.00  0.00    +0.000 A 
ATOM     23  C   UNL     1       4.098   3.076  18.773  0.00  0.00    +0.000 A 
ATOM     24  C   UNL     1       3.539   4.102  17.994  0.00  0.00    +0.000 A 
ATOM     25  C   UNL     1       2.308   4.647  18.389  0.00  0.00    +0.000 A 
ATOM     26  C   UNL     1       1.667   4.196  19.552  0.00  0.00    +0.000 A 
BRANCH  21  28
ATOM     27  N   UNL     1       1.078   2.362  22.503  0.00  0.00    +0.000 NA
ATOM     28  C   UNL     1       1.594   2.734  21.531  0.00  0.00    +0.000 C 
ENDBRANCH  21  28
ENDBRANCH  20  24
ENDBRANCH  19  20
ENDBRANCH   1  19
TORSDOF 5
ENDMDL
MODEL 5
REMARK VINA RESULT:      -7.9      5.090      8.347
REMARK  Name = 
REMARK  5 active torsions:
REMARK  status: ('A' for Active; 'I' for Inactive)
REMARK    1  A    between atoms: C_2  and  C_3
REMARK    2  A    between atoms: C_6  and  C_7
REMARK    3  A    between atoms: C_7  and  S_8
REMARK    4  A    between atoms: S_8  and  C_9
REMARK    5  A    between atoms: C_14  and  C_16
REMARK                            x       y       z     vdW  Elec       q    Type
REMARK                         _______ _______ _______ _____ _____    ______ ____
ROOT
ATOM      1  C   UNL     1       3.865   4.833  18.107  0.00  0.00    +0.000 A 
ATOM      2  N   UNL     1       3.425   4.092  19.101  0.00  0.00    +0.000 NA
ATOM      3  N   UNL     1       2.707   4.839  20.026  0.00  0.00    +0.000 NA
ATOM      4  C   UNL     1       2.590   6.100  19.664  0.00  0.00    +0.000 A 
ATOM      5  N   UNL     1       1.896   7.029  20.416  0.00  0.00    +0.000 N 
ATOM      6  C   UNL     1       1.493   8.273  19.975  0.00  0.00    +0.000 C 
ATOM      7  O   UNL     1       1.672   8.733  18.851  0.00  0.00    +0.000 OA
ATOM      8  S   UNL     1       3.423   6.485  18.224  0.00  0.00    +0.000 S 
ATOM      9  H   UNL     1       1.533   6.658  21.282  0.00  0.00    +0.000 HD
ENDROOT
BRANCH   6  10
ATOM     10  C   UNL     1       0.710   9.107  20.941  0.00  0.00    +0.000 A 
ATOM     11  C   UNL     1       0.685   8.853  22.315  0.00  0.00    +0.000 A 
ATOM     12  C   UNL     1      -0.014   9.710  23.183  0.00  0.00    +0.000 A 
ATOM     13  C   UNL     1      -0.692  10.840  22.676  0.00  0.00    +0.000 A 
ATOM     14  N   UNL     1      -1.397  11.771  23.422  0.00  0.00    +0.000 NA
ATOM     15  C   UNL     1      -1.884  12.694  22.624  0.00  0.00    +0.000 A 
ATOM     16  S   UNL     1      -1.552  12.508  20.954  0.00  0.00    +0.000 S 
ATOM     17  C   UNL     1      -0.660  11.074  21.301  0.00  0.00    +0.000 A 
ATOM     18  C   UNL     1       0.030  10.224  20.419  0.00  0.00    +0.000 A 
ENDBRANCH   6  10
BRANCH   1  19
ATOM     19  S   UNL     1       4.859   4.210  16.803  0.00  0.00    +0.000 S 
BRANCH  19  20
ATOM     20  C   UNL     1       6.499   4.171  17.581  0.00  0.00    +0.000 C 
BRANCH  20  24
ATOM     21  C   UNL     1       8.115   8.163  18.129  0.00  0.00    +0.000 A 
ATOM     22  C   UNL     1       7.330   7.864  17.011  0.00  0.00    +0.000 A 
ATOM     23  C   UNL     1       6.823   6.572  16.829  0.00  0.00    +0.000 A 
ATOM     24  C   UNL     1       7.083   5.558  17.765  0.00  0.00    +0.000 A 
ATOM     25  C   UNL     1       7.887   5.863  18.875  0.00  0.00    +0.000 A 
ATOM     26  C   UNL     1       8.394   7.157  19.056  0.00  0.00    +0.000 A 
BRANCH  21  28
ATOM     27  N   UNL     1       9.031  10.572  18.467  0.00  0.00    +0.000 NA
ATOM     28  C   UNL     1       8.619   9.495  18.320  0.00  0.00    +0.000 C 
ENDBRANCH  21  28
ENDBRANCH  20  24
ENDBRANCH  19  20
ENDBRANCH   1  19
TORSDOF 5
ENDMDL
MODEL 6
REMARK VINA RESULT:      -7.8      4.951      8.210
REMARK  Name = 
REMARK  5 active torsions:
REMARK  status: ('A' for Active; 'I' for Inactive)
REMARK    1  A    between atoms: C_2  and  C_3
REMARK    2  A    between atoms: C_6  and  C_7
REMARK    3  A    between atoms: C_7  and  S_8
REMARK    4  A    between atoms: S_8  and  C_9
REMARK    5  A    between atoms: C_14  and  C_16
REMARK                            x       y       z     vdW  Elec       q    Type
REMARK                         _______ _______ _______ _____ _____    ______ ____
ROOT
ATOM      1  C   UNL     1       3.940   4.881  17.588  0.00  0.00    +0.000 A 
ATOM      2  N   UNL     1       3.451   4.068  18.499  0.00  0.00    +0.000 NA
ATOM      3  N   UNL     1       2.743   4.753  19.478  0.00  0.00    +0.000 NA
ATOM      4  C   UNL     1       2.682   6.046  19.236  0.00  0.00    +0.000 A 
ATOM      5  N   UNL     1       2.009   6.928  20.060  0.00  0.00    +0.000 N 
ATOM      6  C   UNL     1       1.663   8.222  19.732  0.00  0.00    +0.000 C 
ATOM      7  O   UNL     1       1.883   8.778  18.661  0.00  0.00    +0.000 OA
ATOM      8  S   UNL     1       3.560   6.531  17.854  0.00  0.00    +0.000 S 
ATOM      9  H   UNL     1       1.613   6.491  20.881  0.00  0.00    +0.000 HD
ENDROOT
BRANCH   6  10
ATOM     10  C   UNL     1       0.892   8.993  20.759  0.00  0.00    +0.000 A 
ATOM     11  C   UNL     1       0.963   8.714  22.127  0.00  0.00    +0.000 A 
ATOM     12  C   UNL     1       0.269   9.513  23.052  0.00  0.00    +0.000 A 
ATOM     13  C   UNL     1      -0.501  10.610  22.609  0.00  0.00    +0.000 A 
ATOM     14  N   UNL     1      -1.213  11.486  23.413  0.00  0.00    +0.000 NA
ATOM     15  C   UNL     1      -1.797  12.393  22.664  0.00  0.00    +0.000 A 
ATOM     16  S   UNL     1      -1.555  12.256  20.975  0.00  0.00    +0.000 S 
ATOM     17  C   UNL     1      -0.564  10.870  21.240  0.00  0.00    +0.000 A 
ATOM     18  C   UNL     1       0.120  10.077  20.301  0.00  0.00    +0.000 A 
ENDBRANCH   6  10
BRANCH   1  19
ATOM     19  S   UNL     1       4.937   4.344  16.248  0.00  0.00    +0.000 S 
BRANCH  19  20
ATOM     20  C   UNL     1       6.559   4.176  17.044  0.00  0.00    +0.000 C 
BRANCH  20  24
ATOM     21  C   UNL     1       8.223   7.974  18.334  0.00  0.00    +0.000 A 
ATOM     22  C   UNL     1       8.252   6.863  19.184  0.00  0.00    +0.000 A 
ATOM     23  C   UNL     1       7.701   5.645  18.771  0.00  0.00    +0.000 A 
ATOM     24  C   UNL     1       7.120   5.510  17.499  0.00  0.00    +0.000 A 
ATOM     25  C   UNL     1       7.080   6.635  16.660  0.00  0.00    +0.000 A 
ATOM     26  C   UNL     1       7.632   7.855  17.074  0.00  0.00    +0.000 A 
BRANCH  21  28
ATOM     27  N   UNL     1       9.274  10.228  19.089  0.00  0.00    +0.000 NA
ATOM     28  C   UNL     1       8.805   9.218  18.756  0.00  0.00    +0.000 C 
ENDBRANCH  21  28
ENDBRANCH  20  24
ENDBRANCH  19  20
ENDBRANCH   1  19
TORSDOF 5
ENDMDL
MODEL 7
REMARK VINA RESULT:      -7.6      7.981      9.869
REMARK  Name = 
REMARK  5 active torsions:
REMARK  status: ('A' for Active; 'I' for Inactive)
REMARK    1  A    between atoms: C_2  and  C_3
REMARK    2  A    between atoms: C_6  and  C_7
REMARK    3  A    between atoms: C_7  and  S_8
REMARK    4  A    between atoms: S_8  and  C_9
REMARK    5  A    between atoms: C_14  and  C_16
REMARK                            x       y       z     vdW  Elec       q    Type
REMARK                         _______ _______ _______ _____ _____    ______ ____
ROOT
ATOM      1  C   UNL     1       1.837   7.584  20.160  0.00  0.00    +0.000 A 
ATOM      2  N   UNL     1       1.825   8.403  19.130  0.00  0.00    +0.000 NA
ATOM      3  N   UNL     1       1.085   9.549  19.389  0.00  0.00    +0.000 NA
ATOM      4  C   UNL     1       0.616   9.572  20.619  0.00  0.00    +0.000 A 
ATOM      5  N   UNL     1      -0.131  10.626  21.112  0.00  0.00    +0.000 N 
ATOM      6  C   UNL     1      -0.409  10.853  22.443  0.00  0.00    +0.000 C 
ATOM      7  O   UNL     1      -0.025  10.170  23.388  0.00  0.00    +0.000 OA
ATOM      8  S   UNL     1       0.961   8.161  21.516  0.00  0.00    +0.000 S 
ATOM      9  H   UNL     1      -0.316  11.344  20.427  0.00  0.00    +0.000 HD
ENDROOT
BRANCH   6  10
ATOM     10  C   UNL     1      -1.200  12.084  22.765  0.00  0.00    +0.000 A 
ATOM     11  C   UNL     1      -0.676  13.374  22.641  0.00  0.00    +0.000 A 
ATOM     12  C   UNL     1      -1.485  14.496  22.893  0.00  0.00    +0.000 A 
ATOM     13  C   UNL     1      -2.837  14.331  23.265  0.00  0.00    +0.000 A 
ATOM     14  N   UNL     1      -3.743  15.347  23.519  0.00  0.00    +0.000 NA
ATOM     15  C   UNL     1      -4.911  14.828  23.822  0.00  0.00    +0.000 A 
ATOM     16  S   UNL     1      -5.002  13.118  23.841  0.00  0.00    +0.000 S 
ATOM     17  C   UNL     1      -3.340  13.036  23.387  0.00  0.00    +0.000 A 
ATOM     18  C   UNL     1      -2.543  11.903  23.145  0.00  0.00    +0.000 A 
ENDBRANCH   6  10
BRANCH   1  19
ATOM     19  S   UNL     1       2.629   6.019  20.143  0.00  0.00    +0.000 S 
BRANCH  19  20
ATOM     20  C   UNL     1       2.197   5.410  18.488  0.00  0.00    +0.000 C 
BRANCH  20  24
ATOM     21  C   UNL     1       5.670   5.265  15.886  0.00  0.00    +0.000 A 
ATOM     22  C   UNL     1       5.180   6.492  16.345  0.00  0.00    +0.000 A 
ATOM     23  C   UNL     1       4.051   6.536  17.171  0.00  0.00    +0.000 A 
ATOM     24  C   UNL     1       3.397   5.356  17.562  0.00  0.00    +0.000 A 
ATOM     25  C   UNL     1       3.885   4.131  17.081  0.00  0.00    +0.000 A 
ATOM     26  C   UNL     1       5.016   4.087  16.254  0.00  0.00    +0.000 A 
BRANCH  21  28
ATOM     27  N   UNL     1       7.780   5.189  14.371  0.00  0.00    +0.000 NA
ATOM     28  C   UNL     1       6.840   5.223  15.052  0.00  0.00    +0.000 C 
ENDBRANCH  21  28
ENDBRANCH  20  24
ENDBRANCH  19  20
ENDBRANCH   1  19
TORSDOF 5
ENDMDL
MODEL 8
REMARK VINA RESULT:      -7.6      5.043      8.301
REMARK  Name = 
REMARK  5 active torsions:
REMARK  status: ('A' for Active; 'I' for Inactive)
REMARK    1  A    between atoms: C_2  and  C_3
REMARK    2  A    between atoms: C_6  and  C_7
REMARK    3  A    between atoms: C_7  and  S_8
REMARK    4  A    between atoms: S_8  and  C_9
REMARK    5  A    between atoms: C_14  and  C_16
REMARK                            x       y       z     vdW  Elec       q    Type
REMARK                         _______ _______ _______ _____ _____    ______ ____
ROOT
ATOM      1  C   UNL     1       2.952   3.649  19.523  0.00  0.00    +0.000 A 
ATOM      2  N   UNL     1       1.827   3.164  20.004  0.00  0.00    +0.000 NA
ATOM      3  N   UNL     1       1.049   4.151  20.595  0.00  0.00    +0.000 NA
ATOM      4  C   UNL     1       1.593   5.346  20.486  0.00  0.00    +0.000 A 
ATOM      5  N   UNL     1       0.989   6.487  20.979  0.00  0.00    +0.000 N 
ATOM      6  C   UNL     1       1.347   7.780  20.661  0.00  0.00    +0.000 C 
ATOM      7  O   UNL     1       2.237   8.113  19.885  0.00  0.00    +0.000 OA
ATOM      8  S   UNL     1       3.130   5.340  19.744  0.00  0.00    +0.000 S 
ATOM      9  H   UNL     1       0.122   6.307  21.465  0.00  0.00    +0.000 HD
ENDROOT
BRANCH   6  10
ATOM     10  C   UNL     1       0.527   8.875  21.273  0.00  0.00    +0.000 A 
ATOM     11  C   UNL     1       0.257   8.943  22.643  0.00  0.00    +0.000 A 
ATOM     12  C   UNL     1      -0.463  10.029  23.171  0.00  0.00    +0.000 A 
ATOM     13  C   UNL     1      -0.913  11.066  22.325  0.00  0.00    +0.000 A 
ATOM     14  N   UNL     1      -1.610  12.197  22.718  0.00  0.00    +0.000 NA
ATOM     15  C   UNL     1      -1.851  12.950  21.670  0.00  0.00    +0.000 A 
ATOM     16  S   UNL     1      -1.286  12.363  20.164  0.00  0.00    +0.000 S 
ATOM     17  C   UNL     1      -0.637  10.977  20.960  0.00  0.00    +0.000 A 
ATOM     18  C   UNL     1       0.076   9.895  20.415  0.00  0.00    +0.000 A 
ENDBRANCH   6  10
BRANCH   1  19
ATOM     19  S   UNL     1       4.187   2.658  18.767  0.00  0.00    +0.000 S 
BRANCH  19  20
ATOM     20  C   UNL     1       4.413   3.506  17.178  0.00  0.00    +0.000 C 
BRANCH  20  24
ATOM     21  C   UNL     1       6.958   7.004  17.554  0.00  0.00    +0.000 A 
ATOM     22  C   UNL     1       5.796   7.054  16.778  0.00  0.00    +0.000 A 
ATOM     23  C   UNL     1       4.986   5.920  16.646  0.00  0.00    +0.000 A 
ATOM     24  C   UNL     1       5.316   4.719  17.295  0.00  0.00    +0.000 A 
ATOM     25  C   UNL     1       6.494   4.674  18.057  0.00  0.00    +0.000 A 
ATOM     26  C   UNL     1       7.304   5.810  18.189  0.00  0.00    +0.000 A 
BRANCH  21  28
ATOM     27  N   UNL     1       8.434   9.127  17.814  0.00  0.00    +0.000 NA
ATOM     28  C   UNL     1       7.777   8.176  17.700  0.00  0.00    +0.000 C 
ENDBRANCH  21  28
ENDBRANCH  20  24
ENDBRANCH  19  20
ENDBRANCH   1  19
TORSDOF 5
ENDMDL
MODEL 9
REMARK VINA RESULT:      -7.5      5.538      7.208
REMARK  Name = 
REMARK  5 active torsions:
REMARK  status: ('A' for Active; 'I' for Inactive)
REMARK    1  A    between atoms: C_2  and  C_3
REMARK    2  A    between atoms: C_6  and  C_7
REMARK    3  A    between atoms: C_7  and  S_8
REMARK    4  A    between atoms: S_8  and  C_9
REMARK    5  A    between atoms: C_14  and  C_16
REMARK                            x       y       z     vdW  Elec       q    Type
REMARK                         _______ _______ _______ _____ _____    ______ ____
ROOT
ATOM      1  C   UNL     1       2.416   5.294  19.555  0.00  0.00    +0.000 A 
ATOM      2  N   UNL     1       1.806   5.568  20.688  0.00  0.00    +0.000 NA
ATOM      3  N   UNL     1       1.497   6.917  20.797  0.00  0.00    +0.000 NA
ATOM      4  C   UNL     1       1.837   7.595  19.720  0.00  0.00    +0.000 A 
ATOM      5  N   UNL     1       1.606   8.951  19.589  0.00  0.00    +0.000 N 
ATOM      6  C   UNL     1       1.671   9.662  18.409  0.00  0.00    +0.000 C 
ATOM      7  O   UNL     1       1.923   9.199  17.301  0.00  0.00    +0.000 OA
ATOM      8  S   UNL     1       2.642   6.658  18.541  0.00  0.00    +0.000 S 
ATOM      9  H   UNL     1       1.198   9.372  20.412  0.00  0.00    +0.000 HD
ENDROOT
BRANCH   6  10
ATOM     10  C   UNL     1       1.337  11.120  18.483  0.00  0.00    +0.000 A 
ATOM     11  C   UNL     1       0.061  11.590  18.807  0.00  0.00    +0.000 A 
ATOM     12  C   UNL     1      -0.178  12.970  18.927  0.00  0.00    +0.000 A 
ATOM     13  C   UNL     1       0.870  13.895  18.729  0.00  0.00    +0.000 A 
ATOM     14  N   UNL     1       0.774  15.273  18.838  0.00  0.00    +0.000 NA
ATOM     15  C   UNL     1       1.947  15.814  18.603  0.00  0.00    +0.000 A 
ATOM     16  S   UNL     1       3.221  14.735  18.225  0.00  0.00    +0.000 S 
ATOM     17  C   UNL     1       2.135  13.407  18.402  0.00  0.00    +0.000 A 
ATOM     18  C   UNL     1       2.390  12.031  18.273  0.00  0.00    +0.000 A 
ENDBRANCH   6  10
BRANCH   1  19
ATOM     19  S   UNL     1       2.998   3.694  19.132  0.00  0.00    +0.000 S 
BRANCH  19  20
ATOM     20  C   UNL     1       4.796   3.919  19.244  0.00  0.00    +0.000 C 
BRANCH  20  24
ATOM     21  C   UNL     1       6.622   4.825  15.411  0.00  0.00    +0.000 A 
ATOM     22  C   UNL     1       7.283   5.140  16.602  0.00  0.00    +0.000 A 
ATOM     23  C   UNL     1       6.685   4.860  17.836  0.00  0.00    +0.000 A 
ATOM     24  C   UNL     1       5.420   4.253  17.903  0.00  0.00    +0.000 A 
ATOM     25  C   UNL     1       4.757   3.957  16.702  0.00  0.00    +0.000 A 
ATOM     26  C   UNL     1       5.357   4.237  15.466  0.00  0.00    +0.000 A 
BRANCH  21  28
ATOM     27  N   UNL     1       7.759   5.324  13.127  0.00  0.00    +0.000 NA
ATOM     28  C   UNL     1       7.248   5.099  14.146  0.00  0.00    +0.000 C 
ENDBRANCH  21  28
ENDBRANCH  20  24
ENDBRANCH  19  20
ENDBRANCH   1  19
TORSDOF 5
ENDMDL
