MODEL 1
REMARK VINA RESULT:      -8.2      0.000      0.000
REMARK  Name = 
REMARK  5 active torsions:
REMARK  status: ('A' for Active; 'I' for Inactive)
REMARK    1  A    between atoms: C_1  and  C_2
REMARK    2  A    between atoms: C_2  and  C_15
REMARK    3  A    between atoms: N_3  and  N_4
REMARK    4  A    between atoms: N_4  and  S_5
REMARK    5  A    between atoms: S_5  and  C_8
REMARK                            x       y       z     vdW  Elec       q    Type
REMARK                         _______ _______ _______ _____ _____    ______ ____
ROOT
ATOM      1  C   UNL     1       2.930   7.936  17.630  0.00  0.00    +0.000 C 
ATOM      2  C   UNL     1       3.725   6.685  17.960  0.00  0.00    +0.000 C 
ATOM      3  N   UNL     1       5.005   6.760  17.729  0.00  0.00    +0.000 NA
ENDROOT
BRANCH   2   4
ATOM      4  C   UNL     1       2.971   5.529  18.549  0.00  0.00    +0.000 A 
ATOM      5  C   UNL     1       2.207   4.671  17.724  0.00  0.00    +0.000 A 
ATOM      6  C   UNL     1       1.502   3.586  18.265  0.00  0.00    +0.000 A 
ATOM      7  C   UNL     1       1.591   3.373  19.622  0.00  0.00    +0.000 A 
ATOM      8  C   UNL     1       2.308   4.215  20.432  0.00  0.00    +0.000 A 
ATOM      9  C   UNL     1       2.975   5.313  19.935  0.00  0.00    +0.000 A 
ATOM     10  O   UNL     1       2.276   3.839  21.739  0.00  0.00    +0.000 OA
ATOM     11  C   UNL     1       1.463   2.649  21.656  0.00  0.00    +0.000 C 
ATOM     12  O   UNL     1       1.008   2.362  20.316  0.00  0.00    +0.000 OA
ENDBRANCH   2   4
BRANCH   3  13
ATOM     13  N   UNL     1       5.818   5.594  17.824  0.00  0.00    +0.000 N 
ATOM     14  H   UNL     1       5.672   4.851  18.510  0.00  0.00    +0.000 HD
BRANCH  13  15
ATOM     15  S   UNL     1       7.216   5.429  16.880  0.00  0.00    +0.000 S 
ATOM     16  O   UNL     1       7.652   6.777  16.570  0.00  0.00    +0.000 OA
ATOM     17  O   UNL     1       8.111   4.469  17.483  0.00  0.00    +0.000 OA
BRANCH  15  18
ATOM     18  C   UNL     1       6.570   4.723  15.374  0.00  0.00    +0.000 A 
ATOM     19  C   UNL     1       5.285   4.167  15.352  0.00  0.00    +0.000 A 
ATOM     20  C   UNL     1       4.766   3.671  14.152  0.00  0.00    +0.000 A 
ATOM     21  C   UNL     1       5.530   3.747  12.983  0.00  0.00    +0.000 A 
ATOM     22 CL   UNL     1       4.879   3.154  11.503  0.00  0.00    +0.000 Cl
ATOM     23  C   UNL     1       6.806   4.306  13.004  0.00  0.00    +0.000 A 
ATOM     24  C   UNL     1       7.330   4.800  14.202  0.00  0.00    +0.000 A 
ENDBRANCH  15  18
ENDBRANCH  13  15
ENDBRANCH   3  13
TORSDOF 4
ENDMDL
MODEL 2
REMARK VINA RESULT:      -8.2      0.319      1.060
REMARK  Name = 
REMARK  5 active torsions:
REMARK  status: ('A' for Active; 'I' for Inactive)
REMARK    1  A    between atoms: C_1  and  C_2
REMARK    2  A    between atoms: C_2  and  C_15
REMARK    3  A    between atoms: N_3  and  N_4
REMARK    4  A    between atoms: N_4  and  S_5
REMARK    5  A    between atoms: S_5  and  C_8
REMARK                            x       y       z     vdW  Elec       q    Type
REMARK                         _______ _______ _______ _____ _____    ______ ____
ROOT
ATOM      1  C   UNL     1       2.600   8.026  17.675  0.00  0.00    +0.000 C 
ATOM      2  C   UNL     1       3.457   6.818  18.010  0.00  0.00    +0.000 C 
ATOM      3  N   UNL     1       4.731   6.958  17.778  0.00  0.00    +0.000 NA
ENDROOT
BRANCH   2   4
ATOM      4  C   UNL     1       2.763   5.629  18.606  0.00  0.00    +0.000 A 
ATOM      5  C   UNL     1       2.011   4.751  17.792  0.00  0.00    +0.000 A 
ATOM      6  C   UNL     1       1.362   3.634  18.340  0.00  0.00    +0.000 A 
ATOM      7  C   UNL     1       1.494   3.412  19.691  0.00  0.00    +0.000 A 
ATOM      8  C   UNL     1       2.200   4.273  20.492  0.00  0.00    +0.000 A 
ATOM      9  C   UNL     1       2.811   5.400  19.989  0.00  0.00    +0.000 A 
ATOM     10  O   UNL     1       2.216   3.883  21.794  0.00  0.00    +0.000 OA
ATOM     11  C   UNL     1       1.447   2.663  21.720  0.00  0.00    +0.000 C 
ATOM     12  O   UNL     1       0.968   2.372  20.389  0.00  0.00    +0.000 OA
ENDBRANCH   2   4
BRANCH   3  13
ATOM     13  N   UNL     1       5.603   5.834  17.880  0.00  0.00    +0.000 N 
ATOM     14  H   UNL     1       5.455   5.053  18.522  0.00  0.00    +0.000 HD
BRANCH  13  15
ATOM     15  S   UNL     1       7.067   5.791  17.028  0.00  0.00    +0.000 S 
ATOM     16  O   UNL     1       7.409   7.172  16.745  0.00  0.00    +0.000 OA
ATOM     17  O   UNL     1       7.999   4.907  17.689  0.00  0.00    +0.000 OA
BRANCH  15  18
ATOM     18  C   UNL     1       6.581   5.040  15.484  0.00  0.00    +0.000 A 
ATOM     19  C   UNL     1       7.419   5.126  14.365  0.00  0.00    +0.000 A 
ATOM     20  C   UNL     1       7.056   4.481  13.178  0.00  0.00    +0.000 A 
ATOM     21  C   UNL     1       5.868   3.746  13.124  0.00  0.00    +0.000 A 
ATOM     22 CL   UNL     1       5.435   2.937  11.667  0.00  0.00    +0.000 Cl
ATOM     23  C   UNL     1       5.037   3.656  14.240  0.00  0.00    +0.000 A 
ATOM     24  C   UNL     1       5.395   4.301  15.427  0.00  0.00    +0.000 A 
ENDBRANCH  15  18
ENDBRANCH  13  15
ENDBRANCH   3  13
TORSDOF 4
ENDMDL
MODEL 3
REMARK VINA RESULT:      -7.9      0.955      1.564
REMARK  Name = 
REMARK  5 active torsions:
REMARK  status: ('A' for Active; 'I' for Inactive)
REMARK    1  A    between atoms: C_1  and  C_2
REMARK    2  A    between atoms: C_2  and  C_15
REMARK    3  A    between atoms: N_3  and  N_4
REMARK    4  A    between atoms: N_4  and  S_5
REMARK    5  A    between atoms: S_5  and  C_8
REMARK                            x       y       z     vdW  Elec       q    Type
REMARK                         _______ _______ _______ _____ _____    ______ ____
ROOT
ATOM      1  C   UNL     1       2.531   8.388  17.561  0.00  0.00    +0.000 C 
ATOM      2  C   UNL     1       3.371   7.191  17.968  0.00  0.00    +0.000 C 
ATOM      3  N   UNL     1       4.650   7.307  17.749  0.00  0.00    +0.000 NA
ENDROOT
BRANCH   2   4
ATOM      4  C   UNL     1       2.656   6.038  18.610  0.00  0.00    +0.000 A 
ATOM      5  C   UNL     1       2.289   6.087  19.975  0.00  0.00    +0.000 A 
ATOM      6  C   UNL     1       1.618   5.016  20.582  0.00  0.00    +0.000 A 
ATOM      7  C   UNL     1       1.314   3.923  19.804  0.00  0.00    +0.000 A 
ATOM      8  C   UNL     1       1.689   3.856  18.486  0.00  0.00    +0.000 A 
ATOM      9  C   UNL     1       2.387   4.874  17.875  0.00  0.00    +0.000 A 
ATOM     10  O   UNL     1       1.299   2.699  17.888  0.00  0.00    +0.000 OA
ATOM     11  C   UNL     1       0.618   2.047  18.981  0.00  0.00    +0.000 C 
ATOM     12  O   UNL     1       0.645   2.811  20.206  0.00  0.00    +0.000 OA
ENDBRANCH   2   4
BRANCH   3  13
ATOM     13  N   UNL     1       5.509   6.182  17.918  0.00  0.00    +0.000 N 
ATOM     14  H   UNL     1       5.325   5.416  18.569  0.00  0.00    +0.000 HD
BRANCH  13  15
ATOM     15  S   UNL     1       7.012   6.112  17.139  0.00  0.00    +0.000 S 
ATOM     16  O   UNL     1       7.306   7.466  16.711  0.00  0.00    +0.000 OA
ATOM     17  O   UNL     1       7.948   5.356  17.938  0.00  0.00    +0.000 OA
BRANCH  15  18
ATOM     18  C   UNL     1       6.633   5.165  15.675  0.00  0.00    +0.000 A 
ATOM     19  C   UNL     1       5.420   4.472  15.580  0.00  0.00    +0.000 A 
ATOM     20  C   UNL     1       5.108   3.783  14.404  0.00  0.00    +0.000 A 
ATOM     21  C   UNL     1       6.002   3.803  13.330  0.00  0.00    +0.000 A 
ATOM     22 CL   UNL     1       5.604   2.971  11.877  0.00  0.00    +0.000 Cl
ATOM     23  C   UNL     1       7.207   4.499  13.423  0.00  0.00    +0.000 A 
ATOM     24  C   UNL     1       7.525   5.186  14.598  0.00  0.00    +0.000 A 
ENDBRANCH  15  18
ENDBRANCH  13  15
ENDBRANCH   3  13
TORSDOF 4
ENDMDL
MODEL 4
REMARK VINA RESULT:      -7.7      3.543      6.801
REMARK  Name = 
REMARK  5 active torsions:
REMARK  status: ('A' for Active; 'I' for Inactive)
REMARK    1  A    between atoms: C_1  and  C_2
REMARK    2  A    between atoms: C_2  and  C_15
REMARK    3  A    between atoms: N_3  and  N_4
REMARK    4  A    between atoms: N_4  and  S_5
REMARK    5  A    between atoms: S_5  and  C_8
REMARK                            x       y       z     vdW  Elec       q    Type
REMARK                         _______ _______ _______ _____ _____    ______ ____
ROOT
ATOM      1  C   UNL     1       5.589   4.300  14.618  0.00  0.00    +0.000 C 
ATOM      2  C   UNL     1       5.499   4.209  16.131  0.00  0.00    +0.000 C 
ATOM      3  N   UNL     1       4.714   3.274  16.587  0.00  0.00    +0.000 NA
ENDROOT
BRANCH   2   4
ATOM      4  C   UNL     1       6.343   5.160  16.927  0.00  0.00    +0.000 A 
ATOM      5  C   UNL     1       7.102   4.700  18.029  0.00  0.00    +0.000 A 
ATOM      6  C   UNL     1       7.897   5.581  18.777  0.00  0.00    +0.000 A 
ATOM      7  C   UNL     1       7.928   6.902  18.394  0.00  0.00    +0.000 A 
ATOM      8  C   UNL     1       7.176   7.361  17.344  0.00  0.00    +0.000 A 
ATOM      9  C   UNL     1       6.353   6.528  16.618  0.00  0.00    +0.000 A 
ATOM     10  O   UNL     1       7.343   8.692  17.122  0.00  0.00    +0.000 OA
ATOM     11  C   UNL     1       8.302   9.019  18.149  0.00  0.00    +0.000 C 
ATOM     12  O   UNL     1       8.660   7.889  18.975  0.00  0.00    +0.000 OA
ENDBRANCH   2   4
BRANCH   3  13
ATOM     13  N   UNL     1       4.408   3.214  17.978  0.00  0.00    +0.000 N 
ATOM     14  H   UNL     1       5.114   3.175  18.716  0.00  0.00    +0.000 HD
BRANCH  13  15
ATOM     15  S   UNL     1       2.808   3.042  18.509  0.00  0.00    +0.000 S 
ATOM     16  O   UNL     1       2.019   2.763  17.325  0.00  0.00    +0.000 OA
ATOM     17  O   UNL     1       2.761   2.177  19.665  0.00  0.00    +0.000 OA
BRANCH  15  18
ATOM     18  C   UNL     1       2.406   4.699  19.034  0.00  0.00    +0.000 A 
ATOM     19  C   UNL     1       1.895   4.926  20.318  0.00  0.00    +0.000 A 
ATOM     20  C   UNL     1       1.641   6.235  20.739  0.00  0.00    +0.000 A 
ATOM     21  C   UNL     1       1.912   7.305  19.881  0.00  0.00    +0.000 A 
ATOM     22 CL   UNL     1       1.617   8.916  20.412  0.00  0.00    +0.000 Cl
ATOM     23  C   UNL     1       2.428   7.079  18.605  0.00  0.00    +0.000 A 
ATOM     24  C   UNL     1       2.680   5.772  18.179  0.00  0.00    +0.000 A 
ENDBRANCH  15  18
ENDBRANCH  13  15
ENDBRANCH   3  13
TORSDOF 4
ENDMDL
MODEL 5
REMARK VINA RESULT:      -7.7      4.092      7.343
REMARK  Name = 
REMARK  5 active torsions:
REMARK  status: ('A' for Active; 'I' for Inactive)
REMARK    1  A    between atoms: C_1  and  C_2
REMARK    2  A    between atoms: C_2  and  C_15
REMARK    3  A    between atoms: N_3  and  N_4
REMARK    4  A    between atoms: N_4  and  S_5
REMARK    5  A    between atoms: S_5  and  C_8
REMARK                            x       y       z     vdW  Elec       q    Type
REMARK                         _______ _______ _______ _____ _____    ______ ____
ROOT
ATOM      1  C   UNL     1       3.978   2.233  19.288  0.00  0.00    +0.000 C 
ATOM      2  C   UNL     1       4.237   3.718  19.109  0.00  0.00    +0.000 C 
ATOM      3  N   UNL     1       3.627   4.496  19.956  0.00  0.00    +0.000 NA
ENDROOT
BRANCH   2   4
ATOM      4  C   UNL     1       5.188   4.122  18.021  0.00  0.00    +0.000 A 
ATOM      5  C   UNL     1       6.426   4.729  18.335  0.00  0.00    +0.000 A 
ATOM      6  C   UNL     1       7.323   5.107  17.324  0.00  0.00    +0.000 A 
ATOM      7  C   UNL     1       6.966   4.853  16.020  0.00  0.00    +0.000 A 
ATOM      8  C   UNL     1       5.757   4.289  15.705  0.00  0.00    +0.000 A 
ATOM      9  C   UNL     1       4.838   3.948  16.673  0.00  0.00    +0.000 A 
ATOM     10  O   UNL     1       5.590   4.119  14.367  0.00  0.00    +0.000 OA
ATOM     11  C   UNL     1       6.846   4.630  13.871  0.00  0.00    +0.000 C 
ATOM     12  O   UNL     1       7.714   5.118  14.917  0.00  0.00    +0.000 OA
ENDBRANCH   2   4
BRANCH   3  13
ATOM     13  N   UNL     1       3.646   5.910  19.771  0.00  0.00    +0.000 N 
ATOM     14  H   UNL     1       4.065   6.566  20.432  0.00  0.00    +0.000 HD
BRANCH  13  15
ATOM     15  S   UNL     1       2.818   6.628  18.479  0.00  0.00    +0.000 S 
ATOM     16  O   UNL     1       3.833   7.217  17.627  0.00  0.00    +0.000 OA
ATOM     17  O   UNL     1       1.833   5.711  17.952  0.00  0.00    +0.000 OA
BRANCH  15  18
ATOM     18  C   UNL     1       1.959   7.969  19.284  0.00  0.00    +0.000 A 
ATOM     19  C   UNL     1       1.579   9.102  18.552  0.00  0.00    +0.000 A 
ATOM     20  C   UNL     1       0.854  10.119  19.179  0.00  0.00    +0.000 A 
ATOM     21  C   UNL     1       0.503   9.991  20.527  0.00  0.00    +0.000 A 
ATOM     22 CL   UNL     1      -0.408  11.237  21.289  0.00  0.00    +0.000 Cl
ATOM     23  C   UNL     1       0.875   8.861  21.253  0.00  0.00    +0.000 A 
ATOM     24  C   UNL     1       1.603   7.843  20.631  0.00  0.00    +0.000 A 
ENDBRANCH  15  18
ENDBRANCH  13  15
ENDBRANCH   3  13
TORSDOF 4
ENDMDL
MODEL 6
REMARK VINA RESULT:      -7.6      4.067      7.277
REMARK  Name = 
REMARK  5 active torsions:
REMARK  status: ('A' for Active; 'I' for Inactive)
REMARK    1  A    between atoms: C_1  and  C_2
REMARK    2  A    between atoms: C_2  and  C_15
REMARK    3  A    between atoms: N_3  and  N_4
REMARK    4  A    between atoms: N_4  and  S_5
REMARK    5  A    between atoms: S_5  and  C_8
REMARK                            x       y       z     vdW  Elec       q    Type
REMARK                         _______ _______ _______ _____ _____    ______ ____
ROOT
ATOM      1  C   UNL     1       4.193   2.340  19.508  0.00  0.00    +0.000 C 
ATOM      2  C   UNL     1       4.374   3.821  19.227  0.00  0.00    +0.000 C 
ATOM      3  N   UNL     1       3.745   4.623  20.037  0.00  0.00    +0.000 NA
ENDROOT
BRANCH   2   4
ATOM      4  C   UNL     1       5.281   4.197  18.093  0.00  0.00    +0.000 A 
ATOM      5  C   UNL     1       6.538   4.796  18.343  0.00  0.00    +0.000 A 
ATOM      6  C   UNL     1       7.394   5.149  17.289  0.00  0.00    +0.000 A 
ATOM      7  C   UNL     1       6.979   4.878  16.006  0.00  0.00    +0.000 A 
ATOM      8  C   UNL     1       5.751   4.322  15.753  0.00  0.00    +0.000 A 
ATOM      9  C   UNL     1       4.872   4.006  16.765  0.00  0.00    +0.000 A 
ATOM     10  O   UNL     1       5.525   4.133  14.425  0.00  0.00    +0.000 OA
ATOM     11  C   UNL     1       6.764   4.622  13.868  0.00  0.00    +0.000 C 
ATOM     12  O   UNL     1       7.681   5.118  14.868  0.00  0.00    +0.000 OA
ENDBRANCH   2   4
BRANCH   3  13
ATOM     13  N   UNL     1       3.691   6.021  19.761  0.00  0.00    +0.000 N 
ATOM     14  H   UNL     1       4.093   6.738  20.367  0.00  0.00    +0.000 HD
BRANCH  13  15
ATOM     15  S   UNL     1       2.798   6.613  18.448  0.00  0.00    +0.000 S 
ATOM     16  O   UNL     1       3.763   7.192  17.533  0.00  0.00    +0.000 OA
ATOM     17  O   UNL     1       1.847   5.618  18.008  0.00  0.00    +0.000 OA
BRANCH  15  18
ATOM     18  C   UNL     1       1.894   7.962  19.187  0.00  0.00    +0.000 A 
ATOM     19  C   UNL     1       1.595   7.942  20.555  0.00  0.00    +0.000 A 
ATOM     20  C   UNL     1       0.939   9.033  21.135  0.00  0.00    +0.000 A 
ATOM     21  C   UNL     1       0.600  10.138  20.348  0.00  0.00    +0.000 A 
ATOM     22 CL   UNL     1      -0.188  11.486  21.071  0.00  0.00    +0.000 Cl
ATOM     23  C   UNL     1       0.904  10.159  18.987  0.00  0.00    +0.000 A 
ATOM     24  C   UNL     1       1.557   9.070  18.403  0.00  0.00    +0.000 A 
ENDBRANCH  15  18
ENDBRANCH  13  15
ENDBRANCH   3  13
TORSDOF 4
ENDMDL
MODEL 7
REMARK VINA RESULT:      -7.5      5.218      7.510
REMARK  Name = 
REMARK  5 active torsions:
REMARK  status: ('A' for Active; 'I' for Inactive)
REMARK    1  A    between atoms: C_1  and  C_2
REMARK    2  A    between atoms: C_2  and  C_15
REMARK    3  A    between atoms: N_3  and  N_4
REMARK    4  A    between atoms: N_4  and  S_5
REMARK    5  A    between atoms: S_5  and  C_8
REMARK                            x       y       z     vdW  Elec       q    Type
REMARK                         _______ _______ _______ _____ _____    ______ ____
ROOT
ATOM      1  C   UNL     1       4.584   7.305  17.350  0.00  0.00    +0.000 C 
ATOM      2  C   UNL     1       3.129   7.419  17.766  0.00  0.00    +0.000 C 
ATOM      3  N   UNL     1       2.530   8.518  17.406  0.00  0.00    +0.000 NA
ENDROOT
BRANCH   2   4
ATOM      4  C   UNL     1       2.531   6.253  18.498  0.00  0.00    +0.000 A 
ATOM      5  C   UNL     1       2.337   6.303  19.898  0.00  0.00    +0.000 A 
ATOM      6  C   UNL     1       1.777   5.219  20.590  0.00  0.00    +0.000 A 
ATOM      7  C   UNL     1       1.405   4.113  19.860  0.00  0.00    +0.000 A 
ATOM      8  C   UNL     1       1.613   4.047  18.506  0.00  0.00    +0.000 A 
ATOM      9  C   UNL     1       2.201   5.077  17.808  0.00  0.00    +0.000 A 
ATOM     10  O   UNL     1       1.180   2.876  17.967  0.00  0.00    +0.000 OA
ATOM     11  C   UNL     1       0.659   2.215  19.140  0.00  0.00    +0.000 C 
ATOM     12  O   UNL     1       0.821   2.989  20.349  0.00  0.00    +0.000 OA
ENDBRANCH   2   4
BRANCH   3  13
ATOM     13  N   UNL     1       1.225   8.816  17.897  0.00  0.00    +0.000 N 
ATOM     14  H   UNL     1       0.384   8.301  17.631  0.00  0.00    +0.000 HD
BRANCH  13  15
ATOM     15  S   UNL     1       0.952  10.181  18.863  0.00  0.00    +0.000 S 
ATOM     16  O   UNL     1       0.943   9.709  20.234  0.00  0.00    +0.000 OA
ATOM     17  O   UNL     1       1.813  11.263  18.446  0.00  0.00    +0.000 OA
BRANCH  15  18
ATOM     18  C   UNL     1      -0.728  10.609  18.441  0.00  0.00    +0.000 A 
ATOM     19  C   UNL     1      -1.387   9.936  17.404  0.00  0.00    +0.000 A 
ATOM     20  C   UNL     1      -2.723  10.238  17.122  0.00  0.00    +0.000 A 
ATOM     21  C   UNL     1      -3.393  11.199  17.886  0.00  0.00    +0.000 A 
ATOM     22 CL   UNL     1      -5.043  11.553  17.548  0.00  0.00    +0.000 Cl
ATOM     23  C   UNL     1      -2.738  11.865  18.921  0.00  0.00    +0.000 A 
ATOM     24  C   UNL     1      -1.402  11.568  19.205  0.00  0.00    +0.000 A 
ENDBRANCH  15  18
ENDBRANCH  13  15
ENDBRANCH   3  13
TORSDOF 4
ENDMDL
MODEL 8
REMARK VINA RESULT:      -7.4      4.995      7.163
REMARK  Name = 
REMARK  5 active torsions:
REMARK  status: ('A' for Active; 'I' for Inactive)
REMARK    1  A    between atoms: C_1  and  C_2
REMARK    2  A    between atoms: C_2  and  C_15
REMARK    3  A    between atoms: N_3  and  N_4
REMARK    4  A    between atoms: N_4  and  S_5
REMARK    5  A    between atoms: S_5  and  C_8
REMARK                            x       y       z     vdW  Elec       q    Type
REMARK                         _______ _______ _______ _____ _____    ______ ____
ROOT
ATOM      1  C   UNL     1       4.662   7.029  17.353  0.00  0.00    +0.000 C 
ATOM      2  C   UNL     1       3.221   7.130  17.822  0.00  0.00    +0.000 C 
ATOM      3  N   UNL     1       2.640   8.273  17.592  0.00  0.00    +0.000 NA
ENDROOT
BRANCH   2   4
ATOM      4  C   UNL     1       2.616   5.909  18.449  0.00  0.00    +0.000 A 
ATOM      5  C   UNL     1       1.890   4.982  17.665  0.00  0.00    +0.000 A 
ATOM      6  C   UNL     1       1.323   3.835  18.242  0.00  0.00    +0.000 A 
ATOM      7  C   UNL     1       1.511   3.634  19.590  0.00  0.00    +0.000 A 
ATOM      8  C   UNL     1       2.191   4.541  20.362  0.00  0.00    +0.000 A 
ATOM      9  C   UNL     1       2.720   5.696  19.831  0.00  0.00    +0.000 A 
ATOM     10  O   UNL     1       2.270   4.165  21.666  0.00  0.00    +0.000 OA
ATOM     11  C   UNL     1       1.570   2.903  21.626  0.00  0.00    +0.000 C 
ATOM     12  O   UNL     1       1.067   2.572  20.313  0.00  0.00    +0.000 OA
ENDBRANCH   2   4
BRANCH   3  13
ATOM     13  N   UNL     1       1.356   8.547  18.150  0.00  0.00    +0.000 N 
ATOM     14  H   UNL     1       0.539   7.947  18.021  0.00  0.00    +0.000 HD
BRANCH  13  15
ATOM     15  S   UNL     1       1.053  10.006  18.957  0.00  0.00    +0.000 S 
ATOM     16  O   UNL     1       1.029   9.686  20.371  0.00  0.00    +0.000 OA
ATOM     17  O   UNL     1       1.909  11.046  18.436  0.00  0.00    +0.000 OA
BRANCH  15  18
ATOM     18  C   UNL     1      -0.625  10.364  18.467  0.00  0.00    +0.000 A 
ATOM     19  C   UNL     1      -1.351  11.365  19.124  0.00  0.00    +0.000 A 
ATOM     20  C   UNL     1      -2.644  11.677  18.692  0.00  0.00    +0.000 A 
ATOM     21  C   UNL     1      -3.193  10.999  17.600  0.00  0.00    +0.000 A 
ATOM     22 CL   UNL     1      -4.777  11.403  17.058  0.00  0.00    +0.000 Cl
ATOM     23  C   UNL     1      -2.467  10.007  16.942  0.00  0.00    +0.000 A 
ATOM     24  C   UNL     1      -1.176   9.689  17.373  0.00  0.00    +0.000 A 
ENDBRANCH  15  18
ENDBRANCH  13  15
ENDBRANCH   3  13
TORSDOF 4
ENDMDL
MODEL 9
REMARK VINA RESULT:      -7.4      5.280      7.560
REMARK  Name = 
REMARK  5 active torsions:
REMARK  status: ('A' for Active; 'I' for Inactive)
REMARK    1  A    between atoms: C_1  and  C_2
REMARK    2  A    between atoms: C_2  and  C_15
REMARK    3  A    between atoms: N_3  and  N_4
REMARK    4  A    between atoms: N_4  and  S_5
REMARK    5  A    between atoms: S_5  and  C_8
REMARK                            x       y       z     vdW  Elec       q    Type
REMARK                         _______ _______ _______ _____ _____    ______ ____
ROOT
ATOM      1  C   UNL     1       4.487   7.374  17.299  0.00  0.00    +0.000 C 
ATOM      2  C   UNL     1       3.054   7.474  17.790  0.00  0.00    +0.000 C 
ATOM      3  N   UNL     1       2.436   8.579  17.483  0.00  0.00    +0.000 NA
ENDROOT
BRANCH   2   4
ATOM      4  C   UNL     1       2.496   6.291  18.525  0.00  0.00    +0.000 A 
ATOM      5  C   UNL     1       2.354   6.318  19.932  0.00  0.00    +0.000 A 
ATOM      6  C   UNL     1       1.831   5.218  20.627  0.00  0.00    +0.000 A 
ATOM      7  C   UNL     1       1.445   4.119  19.895  0.00  0.00    +0.000 A 
ATOM      8  C   UNL     1       1.603   4.074  18.534  0.00  0.00    +0.000 A 
ATOM      9  C   UNL     1       2.154   5.122  17.830  0.00  0.00    +0.000 A 
ATOM     10  O   UNL     1       1.163   2.907  17.993  0.00  0.00    +0.000 OA
ATOM     11  C   UNL     1       0.693   2.222  19.174  0.00  0.00    +0.000 C 
ATOM     12  O   UNL     1       0.891   2.980  20.387  0.00  0.00    +0.000 OA
ENDBRANCH   2   4
BRANCH   3  13
ATOM     13  N   UNL     1       1.156   8.862  18.045  0.00  0.00    +0.000 N 
ATOM     14  H   UNL     1       0.322   8.298  17.875  0.00  0.00    +0.000 HD
BRANCH  13  15
ATOM     15  S   UNL     1       0.893  10.280  18.935  0.00  0.00    +0.000 S 
ATOM     16  O   UNL     1       0.941   9.894  20.331  0.00  0.00    +0.000 OA
ATOM     17  O   UNL     1       1.720  11.347  18.420  0.00  0.00    +0.000 OA
BRANCH  15  18
ATOM     18  C   UNL     1      -0.808  10.655  18.547  0.00  0.00    +0.000 A 
ATOM     19  C   UNL     1      -1.528  11.557  19.341  0.00  0.00    +0.000 A 
ATOM     20  C   UNL     1      -2.841  11.889  18.993  0.00  0.00    +0.000 A 
ATOM     21  C   UNL     1      -3.418  11.329  17.849  0.00  0.00    +0.000 A 
ATOM     22 CL   UNL     1      -5.027  11.757  17.413  0.00  0.00    +0.000 Cl
ATOM     23  C   UNL     1      -2.698  10.436  17.055  0.00  0.00    +0.000 A 
ATOM     24  C   UNL     1      -1.387  10.099  17.402  0.00  0.00    +0.000 A 
ENDBRANCH  15  18
ENDBRANCH  13  15
ENDBRANCH   3  13
TORSDOF 4
ENDMDL
