MODEL 1
REMARK VINA RESULT:      -8.9      0.000      0.000
REMARK  Name = 
REMARK  6 active torsions:
REMARK  status: ('A' for Active; 'I' for Inactive)
REMARK    1  A    between atoms: C_1  and  C_2
REMARK    2  A    between atoms: C_4  and  C_5
REMARK    3  A    between atoms: C_10  and  C_12
REMARK    4  A    between atoms: C_12  and  C_13
REMARK    5  A    between atoms: C_23  and  O_24
REMARK    6  A    between atoms: C_25  and  C_26
REMARK                            x       y       z     vdW  Elec       q    Type
REMARK                         _______ _______ _______ _____ _____    ______ ____
ROOT
ATOM      1  C   UNL     1       3.894   3.292  19.190  0.00  0.00    +0.000 C 
ATOM      2  C   UNL     1       3.842   2.239  18.078  0.00  0.00    +0.000 C 
ATOM      3  C   UNL     1       2.615   1.419  18.445  0.00  0.00    +0.000 C 
ATOM      4  C   UNL     1       1.667   2.435  19.073  0.00  0.00    +0.000 C 
ATOM      5  N   UNL     1       2.475   3.606  19.389  0.00  0.00    +0.000 N 
ATOM      6  C   UNL     1       1.901   4.586  20.167  0.00  0.00    +0.000 C 
ATOM      7  O   UNL     1       0.748   4.435  20.585  0.00  0.00    +0.000 OA
ENDROOT
BRANCH   1  11
ATOM      8  C   UNL     1       5.228   6.683  16.005  0.00  0.00    +0.000 C 
ATOM      9  C   UNL     1       5.535   5.982  17.298  0.00  0.00    +0.000 A 
ATOM     10  N   UNL     1       4.640   5.048  17.687  0.00  0.00    +0.000 NA
ATOM     11  C   UNL     1       4.866   4.397  18.846  0.00  0.00    +0.000 A 
ATOM     12  N   UNL     1       5.925   4.620  19.644  0.00  0.00    +0.000 NA
ATOM     13  C   UNL     1       6.787   5.542  19.200  0.00  0.00    +0.000 A 
ATOM     14  C   UNL     1       6.672   6.269  18.035  0.00  0.00    +0.000 A 
ATOM     15  C   UNL     1       7.684   7.275  17.599  0.00  0.00    +0.000 C 
BRANCH  13  16
ATOM     16  O   UNL     1       7.866   5.685  20.013  0.00  0.00    +0.000 OA
ATOM     17  H   UNL     1       7.451   6.115  20.783  0.00  0.00    +0.000 HD
ENDBRANCH  13  16
ENDBRANCH   1  11
BRANCH   6  18
ATOM     18  C   UNL     1       2.679   5.887  20.456  0.00  0.00    +0.000 C 
BRANCH  18  19
ATOM     19  C   UNL     1       1.865   7.091  20.021  0.00  0.00    +0.000 A 
ATOM     20  C   UNL     1       1.196   7.876  20.996  0.00  0.00    +0.000 A 
ATOM     21  C   UNL     1       0.830   9.195  20.719  0.00  0.00    +0.000 A 
ATOM     22  C   UNL     1       1.196   9.693  19.490  0.00  0.00    +0.000 A 
ATOM     23  C   UNL     1       1.751   8.896  18.510  0.00  0.00    +0.000 A 
ATOM     24  C   UNL     1       2.041   7.572  18.717  0.00  0.00    +0.000 A 
ATOM     25  O   UNL     1       2.162   9.623  17.431  0.00  0.00    +0.000 OA
ATOM     26  C   UNL     1       2.172  10.924  18.050  0.00  0.00    +0.000 C 
ATOM     27  O   UNL     1       1.224  11.010  19.137  0.00  0.00    +0.000 OA
ENDBRANCH  18  19
ENDBRANCH   6  18
TORSDOF 4
ENDMDL
MODEL 2
REMARK VINA RESULT:      -8.6      1.064      1.662
REMARK  Name = 
REMARK  6 active torsions:
REMARK  status: ('A' for Active; 'I' for Inactive)
REMARK    1  A    between atoms: C_1  and  C_2
REMARK    2  A    between atoms: C_4  and  C_5
REMARK    3  A    between atoms: C_10  and  C_12
REMARK    4  A    between atoms: C_12  and  C_13
REMARK    5  A    between atoms: C_23  and  O_24
REMARK    6  A    between atoms: C_25  and  C_26
REMARK                            x       y       z     vdW  Elec       q    Type
REMARK                         _______ _______ _______ _____ _____    ______ ____
ROOT
ATOM      1  C   UNL     1       3.875   3.328  18.978  0.00  0.00    +0.000 C 
ATOM      2  C   UNL     1       3.686   2.210  17.947  0.00  0.00    +0.000 C 
ATOM      3  C   UNL     1       2.491   1.445  18.494  0.00  0.00    +0.000 C 
ATOM      4  C   UNL     1       1.634   2.519  19.152  0.00  0.00    +0.000 C 
ATOM      5  N   UNL     1       2.492   3.688  19.306  0.00  0.00    +0.000 N 
ATOM      6  C   UNL     1       2.021   4.727  20.077  0.00  0.00    +0.000 C 
ATOM      7  O   UNL     1       0.918   4.630  20.623  0.00  0.00    +0.000 OA
ENDROOT
BRANCH   1  11
ATOM      8  C   UNL     1       8.012   5.749  19.648  0.00  0.00    +0.000 C 
ATOM      9  C   UNL     1       6.776   5.581  18.811  0.00  0.00    +0.000 A 
ATOM     10  N   UNL     1       5.944   4.584  19.186  0.00  0.00    +0.000 NA
ATOM     11  C   UNL     1       4.824   4.386  18.463  0.00  0.00    +0.000 A 
ATOM     12  N   UNL     1       4.482   5.114  17.385  0.00  0.00    +0.000 NA
ATOM     13  C   UNL     1       5.332   6.098  17.072  0.00  0.00    +0.000 A 
ATOM     14  C   UNL     1       6.502   6.405  17.733  0.00  0.00    +0.000 A 
ATOM     15  C   UNL     1       7.396   7.529  17.329  0.00  0.00    +0.000 C 
BRANCH  13  16
ATOM     16  O   UNL     1       4.909   6.839  16.014  0.00  0.00    +0.000 OA
ATOM     17  H   UNL     1       4.118   6.335  15.750  0.00  0.00    +0.000 HD
ENDBRANCH  13  16
ENDBRANCH   1  11
BRANCH   6  18
ATOM     18  C   UNL     1       2.849   6.025  20.198  0.00  0.00    +0.000 C 
BRANCH  18  19
ATOM     19  C   UNL     1       1.995   7.226  19.836  0.00  0.00    +0.000 A 
ATOM     20  C   UNL     1       1.322   7.942  20.860  0.00  0.00    +0.000 A 
ATOM     21  C   UNL     1       0.916   9.262  20.656  0.00  0.00    +0.000 A 
ATOM     22  C   UNL     1       1.246   9.830  19.448  0.00  0.00    +0.000 A 
ATOM     23  C   UNL     1       1.805   9.099  18.420  0.00  0.00    +0.000 A 
ATOM     24  C   UNL     1       2.134   7.775  18.555  0.00  0.00    +0.000 A 
ATOM     25  O   UNL     1       2.177   9.890  17.372  0.00  0.00    +0.000 OA
ATOM     26  C   UNL     1       2.162  11.158  18.055  0.00  0.00    +0.000 C 
ATOM     27  O   UNL     1       1.232  11.164  19.160  0.00  0.00    +0.000 OA
ENDBRANCH  18  19
ENDBRANCH   6  18
TORSDOF 4
ENDMDL
MODEL 3
REMARK VINA RESULT:      -8.4      0.924      1.548
REMARK  Name = 
REMARK  6 active torsions:
REMARK  status: ('A' for Active; 'I' for Inactive)
REMARK    1  A    between atoms: C_1  and  C_2
REMARK    2  A    between atoms: C_4  and  C_5
REMARK    3  A    between atoms: C_10  and  C_12
REMARK    4  A    between atoms: C_12  and  C_13
REMARK    5  A    between atoms: C_23  and  O_24
REMARK    6  A    between atoms: C_25  and  C_26
REMARK                            x       y       z     vdW  Elec       q    Type
REMARK                         _______ _______ _______ _____ _____    ______ ____
ROOT
ATOM      1  C   UNL     1       3.585   3.584  18.962  0.00  0.00    +0.000 C 
ATOM      2  C   UNL     1       3.411   2.684  17.735  0.00  0.00    +0.000 C 
ATOM      3  C   UNL     1       2.073   2.008  17.998  0.00  0.00    +0.000 C 
ATOM      4  C   UNL     1       1.263   3.068  18.735  0.00  0.00    +0.000 C 
ATOM      5  N   UNL     1       2.219   4.069  19.190  0.00  0.00    +0.000 N 
ATOM      6  C   UNL     1       1.771   5.024  20.075  0.00  0.00    +0.000 C 
ATOM      7  O   UNL     1       0.600   4.990  20.466  0.00  0.00    +0.000 OA
ENDROOT
BRANCH   1  11
ATOM      8  C   UNL     1       5.633   6.847  16.033  0.00  0.00    +0.000 C 
ATOM      9  C   UNL     1       5.717   6.095  17.331  0.00  0.00    +0.000 A 
ATOM     10  N   UNL     1       4.685   5.265  17.597  0.00  0.00    +0.000 NA
ATOM     11  C   UNL     1       4.708   4.574  18.754  0.00  0.00    +0.000 A 
ATOM     12  N   UNL     1       5.693   4.660  19.666  0.00  0.00    +0.000 NA
ATOM     13  C   UNL     1       6.697   5.481  19.341  0.00  0.00    +0.000 A 
ATOM     14  C   UNL     1       6.793   6.235  18.191  0.00  0.00    +0.000 A 
ATOM     15  C   UNL     1       7.954   7.124  17.894  0.00  0.00    +0.000 C 
BRANCH  13  16
ATOM     16  O   UNL     1       7.691   5.485  20.267  0.00  0.00    +0.000 OA
ATOM     17  H   UNL     1       7.206   5.166  21.049  0.00  0.00    +0.000 HD
ENDBRANCH  13  16
ENDBRANCH   1  11
BRANCH   6  18
ATOM     18  C   UNL     1       2.716   6.161  20.517  0.00  0.00    +0.000 C 
BRANCH  18  19
ATOM     19  C   UNL     1       2.318   7.463  19.846  0.00  0.00    +0.000 A 
ATOM     20  C   UNL     1       2.438   7.592  18.438  0.00  0.00    +0.000 A 
ATOM     21  C   UNL     1       1.694   8.549  17.745  0.00  0.00    +0.000 A 
ATOM     22  C   UNL     1       0.818   9.306  18.488  0.00  0.00    +0.000 A 
ATOM     23  C   UNL     1       0.782   9.249  19.866  0.00  0.00    +0.000 A 
ATOM     24  C   UNL     1       1.566   8.385  20.586  0.00  0.00    +0.000 A 
ATOM     25  O   UNL     1      -0.252   9.976  20.381  0.00  0.00    +0.000 OA
ATOM     26  C   UNL     1      -1.032  10.107  19.178  0.00  0.00    +0.000 C 
ATOM     27  O   UNL     1      -0.208  10.058  17.993  0.00  0.00    +0.000 OA
ENDBRANCH  18  19
ENDBRANCH   6  18
TORSDOF 4
ENDMDL
MODEL 4
REMARK VINA RESULT:      -8.2      1.434      2.296
REMARK  Name = 
REMARK  6 active torsions:
REMARK  status: ('A' for Active; 'I' for Inactive)
REMARK    1  A    between atoms: C_1  and  C_2
REMARK    2  A    between atoms: C_4  and  C_5
REMARK    3  A    between atoms: C_10  and  C_12
REMARK    4  A    between atoms: C_12  and  C_13
REMARK    5  A    between atoms: C_23  and  O_24
REMARK    6  A    between atoms: C_25  and  C_26
REMARK                            x       y       z     vdW  Elec       q    Type
REMARK                         _______ _______ _______ _____ _____    ______ ____
ROOT
ATOM      1  C   UNL     1       3.556   3.581  18.654  0.00  0.00    +0.000 C 
ATOM      2  C   UNL     1       3.189   2.629  17.511  0.00  0.00    +0.000 C 
ATOM      3  C   UNL     1       1.885   2.011  17.991  0.00  0.00    +0.000 C 
ATOM      4  C   UNL     1       1.213   3.131  18.777  0.00  0.00    +0.000 C 
ATOM      5  N   UNL     1       2.248   4.121  19.042  0.00  0.00    +0.000 N 
ATOM      6  C   UNL     1       1.952   5.132  19.929  0.00  0.00    +0.000 C 
ATOM      7  O   UNL     1       0.847   5.154  20.480  0.00  0.00    +0.000 OA
ENDROOT
BRANCH   1  11
ATOM      8  C   UNL     1       7.810   5.591  19.787  0.00  0.00    +0.000 C 
ATOM      9  C   UNL     1       6.673   5.524  18.807  0.00  0.00    +0.000 A 
ATOM     10  N   UNL     1       5.703   4.628  19.094  0.00  0.00    +0.000 NA
ATOM     11  C   UNL     1       4.665   4.522  18.242  0.00  0.00    +0.000 A 
ATOM     12  N   UNL     1       4.532   5.249  17.118  0.00  0.00    +0.000 NA
ATOM     13  C   UNL     1       5.511   6.133  16.895  0.00  0.00    +0.000 A 
ATOM     14  C   UNL     1       6.618   6.340  17.690  0.00  0.00    +0.000 A 
ATOM     15  C   UNL     1       7.666   7.355  17.380  0.00  0.00    +0.000 C 
BRANCH  13  16
ATOM     16  O   UNL     1       5.298   6.881  15.782  0.00  0.00    +0.000 OA
ATOM     17  H   UNL     1       6.191   6.875  15.390  0.00  0.00    +0.000 HD
ENDBRANCH  13  16
ENDBRANCH   1  11
BRANCH   6  18
ATOM     18  C   UNL     1       2.979   6.257  20.177  0.00  0.00    +0.000 C 
BRANCH  18  19
ATOM     19  C   UNL     1       2.465   7.568  19.612  0.00  0.00    +0.000 A 
ATOM     20  C   UNL     1       2.464   7.774  18.207  0.00  0.00    +0.000 A 
ATOM     21  C   UNL     1       1.620   8.724  17.628  0.00  0.00    +0.000 A 
ATOM     22  C   UNL     1       0.771   9.395  18.477  0.00  0.00    +0.000 A 
ATOM     23  C   UNL     1       0.850   9.267  19.849  0.00  0.00    +0.000 A 
ATOM     24  C   UNL     1       1.731   8.410  20.457  0.00  0.00    +0.000 A 
ATOM     25  O   UNL     1      -0.173   9.911  20.482  0.00  0.00    +0.000 OA
ATOM     26  C   UNL     1      -1.054  10.061  19.353  0.00  0.00    +0.000 C 
ATOM     27  O   UNL     1      -0.328  10.115  18.106  0.00  0.00    +0.000 OA
ENDBRANCH  18  19
ENDBRANCH   6  18
TORSDOF 4
ENDMDL
MODEL 5
REMARK VINA RESULT:      -7.6      2.379      5.858
REMARK  Name = 
REMARK  6 active torsions:
REMARK  status: ('A' for Active; 'I' for Inactive)
REMARK    1  A    between atoms: C_1  and  C_2
REMARK    2  A    between atoms: C_4  and  C_5
REMARK    3  A    between atoms: C_10  and  C_12
REMARK    4  A    between atoms: C_12  and  C_13
REMARK    5  A    between atoms: C_23  and  O_24
REMARK    6  A    between atoms: C_25  and  C_26
REMARK                            x       y       z     vdW  Elec       q    Type
REMARK                         _______ _______ _______ _____ _____    ______ ____
ROOT
ATOM      1  C   UNL     1       2.086   4.878  19.279  0.00  0.00    +0.000 C 
ATOM      2  C   UNL     1       1.006   4.167  20.101  0.00  0.00    +0.000 C 
ATOM      3  C   UNL     1       1.492   2.726  20.123  0.00  0.00    +0.000 C 
ATOM      4  C   UNL     1       3.011   2.849  20.136  0.00  0.00    +0.000 C 
ATOM      5  N   UNL     1       3.313   4.218  19.738  0.00  0.00    +0.000 N 
ATOM      6  C   UNL     1       4.625   4.527  19.457  0.00  0.00    +0.000 C 
ATOM      7  O   UNL     1       5.486   3.644  19.527  0.00  0.00    +0.000 OA
ENDROOT
BRANCH   1  11
ATOM      8  C   UNL     1       0.981   8.657  22.093  0.00  0.00    +0.000 C 
ATOM      9  C   UNL     1       1.374   8.183  20.723  0.00  0.00    +0.000 A 
ATOM     10  N   UNL     1       1.590   6.855  20.601  0.00  0.00    +0.000 NA
ATOM     11  C   UNL     1       1.953   6.380  19.393  0.00  0.00    +0.000 A 
ATOM     12  N   UNL     1       2.119   7.144  18.299  0.00  0.00    +0.000 NA
ATOM     13  C   UNL     1       1.873   8.447  18.474  0.00  0.00    +0.000 A 
ATOM     14  C   UNL     1       1.492   9.052  19.652  0.00  0.00    +0.000 A 
ATOM     15  C   UNL     1       1.224  10.516  19.767  0.00  0.00    +0.000 C 
BRANCH  13  16
ATOM     16  O   UNL     1       1.998   9.163  17.326  0.00  0.00    +0.000 OA
ATOM     17  H   UNL     1       2.929   8.983  17.105  0.00  0.00    +0.000 HD
ENDBRANCH  13  16
ENDBRANCH   1  11
BRANCH   6  18
ATOM     18  C   UNL     1       5.013   5.982  19.120  0.00  0.00    +0.000 C 
BRANCH  18  19
ATOM     19  C   UNL     1       5.579   6.060  17.714  0.00  0.00    +0.000 A 
ATOM     20  C   UNL     1       6.963   6.316  17.528  0.00  0.00    +0.000 A 
ATOM     21  C   UNL     1       7.599   5.960  16.337  0.00  0.00    +0.000 A 
ATOM     22  C   UNL     1       6.831   5.312  15.397  0.00  0.00    +0.000 A 
ATOM     23  C   UNL     1       5.467   5.160  15.540  0.00  0.00    +0.000 A 
ATOM     24  C   UNL     1       4.794   5.581  16.658  0.00  0.00    +0.000 A 
ATOM     25  O   UNL     1       4.935   4.370  14.562  0.00  0.00    +0.000 OA
ATOM     26  C   UNL     1       6.156   3.759  14.103  0.00  0.00    +0.000 C 
ATOM     27  O   UNL     1       7.301   4.610  14.325  0.00  0.00    +0.000 OA
ENDBRANCH  18  19
ENDBRANCH   6  18
TORSDOF 4
ENDMDL
MODEL 6
REMARK VINA RESULT:      -7.2      2.428      5.538
REMARK  Name = 
REMARK  6 active torsions:
REMARK  status: ('A' for Active; 'I' for Inactive)
REMARK    1  A    between atoms: C_1  and  C_2
REMARK    2  A    between atoms: C_4  and  C_5
REMARK    3  A    between atoms: C_10  and  C_12
REMARK    4  A    between atoms: C_12  and  C_13
REMARK    5  A    between atoms: C_23  and  O_24
REMARK    6  A    between atoms: C_25  and  C_26
REMARK                            x       y       z     vdW  Elec       q    Type
REMARK                         _______ _______ _______ _____ _____    ______ ____
ROOT
ATOM      1  C   UNL     1       2.015   4.579  19.339  0.00  0.00    +0.000 C 
ATOM      2  C   UNL     1       0.977   3.741  20.092  0.00  0.00    +0.000 C 
ATOM      3  C   UNL     1       1.551   2.335  20.007  0.00  0.00    +0.000 C 
ATOM      4  C   UNL     1       3.060   2.549  20.043  0.00  0.00    +0.000 C 
ATOM      5  N   UNL     1       3.279   3.962  19.757  0.00  0.00    +0.000 N 
ATOM      6  C   UNL     1       4.571   4.371  19.513  0.00  0.00    +0.000 C 
ATOM      7  O   UNL     1       5.484   3.540  19.522  0.00  0.00    +0.000 OA
ENDROOT
BRANCH   1  11
ATOM      8  C   UNL     1       2.030   9.034  17.447  0.00  0.00    +0.000 C 
ATOM      9  C   UNL     1       1.849   8.192  18.677  0.00  0.00    +0.000 A 
ATOM     10  N   UNL     1       1.953   6.857  18.496  0.00  0.00    +0.000 NA
ATOM     11  C   UNL     1       1.790   6.056  19.569  0.00  0.00    +0.000 A 
ATOM     12  N   UNL     1       1.523   6.500  20.810  0.00  0.00    +0.000 NA
ATOM     13  C   UNL     1       1.450   7.831  20.933  0.00  0.00    +0.000 A 
ATOM     14  C   UNL     1       1.603   8.752  19.920  0.00  0.00    +0.000 A 
ATOM     15  C   UNL     1       1.518  10.225  20.138  0.00  0.00    +0.000 C 
BRANCH  13  16
ATOM     16  O   UNL     1       1.239   8.227  22.215  0.00  0.00    +0.000 OA
ATOM     17  H   UNL     1       2.135   8.125  22.582  0.00  0.00    +0.000 HD
ENDBRANCH  13  16
ENDBRANCH   1  11
BRANCH   6  18
ATOM     18  C   UNL     1       4.870   5.869  19.295  0.00  0.00    +0.000 C 
BRANCH  18  19
ATOM     19  C   UNL     1       5.456   6.089  17.912  0.00  0.00    +0.000 A 
ATOM     20  C   UNL     1       6.791   6.553  17.781  0.00  0.00    +0.000 A 
ATOM     21  C   UNL     1       7.503   6.345  16.598  0.00  0.00    +0.000 A 
ATOM     22  C   UNL     1       6.865   5.633  15.610  0.00  0.00    +0.000 A 
ATOM     23  C   UNL     1       5.535   5.276  15.702  0.00  0.00    +0.000 A 
ATOM     24  C   UNL     1       4.778   5.546  16.813  0.00  0.00    +0.000 A 
ATOM     25  O   UNL     1       5.152   4.459  14.678  0.00  0.00    +0.000 OA
ATOM     26  C   UNL     1       6.462   4.054  14.236  0.00  0.00    +0.000 C 
ATOM     27  O   UNL     1       7.463   5.054  14.528  0.00  0.00    +0.000 OA
ENDBRANCH  18  19
ENDBRANCH   6  18
TORSDOF 4
ENDMDL
MODEL 7
REMARK VINA RESULT:      -6.8      1.939      4.033
REMARK  Name = 
REMARK  6 active torsions:
REMARK  status: ('A' for Active; 'I' for Inactive)
REMARK    1  A    between atoms: C_1  and  C_2
REMARK    2  A    between atoms: C_4  and  C_5
REMARK    3  A    between atoms: C_10  and  C_12
REMARK    4  A    between atoms: C_12  and  C_13
REMARK    5  A    between atoms: C_23  and  O_24
REMARK    6  A    between atoms: C_25  and  C_26
REMARK                            x       y       z     vdW  Elec       q    Type
REMARK                         _______ _______ _______ _____ _____    ______ ____
ROOT
ATOM      1  C   UNL     1       4.309   4.266  16.624  0.00  0.00    +0.000 C 
ATOM      2  C   UNL     1       4.943   3.262  15.656  0.00  0.00    +0.000 C 
ATOM      3  C   UNL     1       5.607   4.161  14.624  0.00  0.00    +0.000 C 
ATOM      4  C   UNL     1       6.051   5.379  15.426  0.00  0.00    +0.000 C 
ATOM      5  N   UNL     1       5.325   5.323  16.688  0.00  0.00    +0.000 N 
ATOM      6  C   UNL     1       5.380   6.429  17.506  0.00  0.00    +0.000 C 
ATOM      7  O   UNL     1       6.013   7.425  17.140  0.00  0.00    +0.000 OA
ENDROOT
BRANCH   1  11
ATOM      8  C   UNL     1       0.695   3.479  19.746  0.00  0.00    +0.000 C 
ATOM      9  C   UNL     1       2.142   3.249  19.414  0.00  0.00    +0.000 A 
ATOM     10  N   UNL     1       2.566   3.769  18.241  0.00  0.00    +0.000 NA
ATOM     11  C   UNL     1       3.855   3.583  17.894  0.00  0.00    +0.000 A 
ATOM     12  N   UNL     1       4.749   2.908  18.638  0.00  0.00    +0.000 NA
ATOM     13  C   UNL     1       4.279   2.433  19.797  0.00  0.00    +0.000 A 
ATOM     14  C   UNL     1       2.989   2.561  20.266  0.00  0.00    +0.000 A 
ATOM     15  C   UNL     1       2.541   2.011  21.579  0.00  0.00    +0.000 C 
BRANCH  13  16
ATOM     16  O   UNL     1       5.236   1.813  20.536  0.00  0.00    +0.000 OA
ATOM     17  H   UNL     1       5.691   2.584  20.919  0.00  0.00    +0.000 HD
ENDBRANCH  13  16
ENDBRANCH   1  11
BRANCH   6  18
ATOM     18  C   UNL     1       4.706   6.389  18.893  0.00  0.00    +0.000 C 
BRANCH  18  19
ATOM     19  C   UNL     1       3.343   7.054  18.831  0.00  0.00    +0.000 A 
ATOM     20  C   UNL     1       2.456   6.941  19.934  0.00  0.00    +0.000 A 
ATOM     21  C   UNL     1       1.427   7.867  20.117  0.00  0.00    +0.000 A 
ATOM     22  C   UNL     1       1.359   8.901  19.213  0.00  0.00    +0.000 A 
ATOM     23  C   UNL     1       2.155   8.947  18.087  0.00  0.00    +0.000 A 
ATOM     24  C   UNL     1       3.115   8.004  17.828  0.00  0.00    +0.000 A 
ATOM     25  O   UNL     1       2.017  10.125  17.412  0.00  0.00    +0.000 OA
ATOM     26  C   UNL     1       1.399  10.894  18.460  0.00  0.00    +0.000 C 
ATOM     27  O   UNL     1       0.655  10.060  19.374  0.00  0.00    +0.000 OA
ENDBRANCH  18  19
ENDBRANCH   6  18
TORSDOF 4
ENDMDL
MODEL 8
REMARK VINA RESULT:      -6.8      1.836      2.554
REMARK  Name = 
REMARK  6 active torsions:
REMARK  status: ('A' for Active; 'I' for Inactive)
REMARK    1  A    between atoms: C_1  and  C_2
REMARK    2  A    between atoms: C_4  and  C_5
REMARK    3  A    between atoms: C_10  and  C_12
REMARK    4  A    between atoms: C_12  and  C_13
REMARK    5  A    between atoms: C_23  and  O_24
REMARK    6  A    between atoms: C_25  and  C_26
REMARK                            x       y       z     vdW  Elec       q    Type
REMARK                         _______ _______ _______ _____ _____    ______ ____
ROOT
ATOM      1  C   UNL     1       4.155   3.677  19.989  0.00  0.00    +0.000 C 
ATOM      2  C   UNL     1       4.468   2.249  20.448  0.00  0.00    +0.000 C 
ATOM      3  C   UNL     1       3.282   1.913  21.340  0.00  0.00    +0.000 C 
ATOM      4  C   UNL     1       2.115   2.654  20.697  0.00  0.00    +0.000 C 
ATOM      5  N   UNL     1       2.703   3.629  19.787  0.00  0.00    +0.000 N 
ATOM      6  C   UNL     1       1.868   4.579  19.244  0.00  0.00    +0.000 C 
ATOM      7  O   UNL     1       0.673   4.590  19.557  0.00  0.00    +0.000 OA
ENDROOT
BRANCH   1  11
ATOM      8  C   UNL     1       7.818   6.478  18.519  0.00  0.00    +0.000 C 
ATOM      9  C   UNL     1       6.775   5.468  18.134  0.00  0.00    +0.000 A 
ATOM     10  N   UNL     1       6.004   5.005  19.142  0.00  0.00    +0.000 NA
ATOM     11  C   UNL     1       5.059   4.090  18.850  0.00  0.00    +0.000 A 
ATOM     12  N   UNL     1       4.834   3.602  17.617  0.00  0.00    +0.000 NA
ATOM     13  C   UNL     1       5.614   4.110  16.655  0.00  0.00    +0.000 A 
ATOM     14  C   UNL     1       6.607   5.050  16.824  0.00  0.00    +0.000 A 
ATOM     15  C   UNL     1       7.430   5.578  15.697  0.00  0.00    +0.000 C 
BRANCH  13  16
ATOM     16  O   UNL     1       5.306   3.629  15.423  0.00  0.00    +0.000 OA
ATOM     17  H   UNL     1       6.061   3.966  14.907  0.00  0.00    +0.000 HD
ENDBRANCH  13  16
ENDBRANCH   1  11
BRANCH   6  18
ATOM     18  C   UNL     1       2.419   5.578  18.205  0.00  0.00    +0.000 C 
BRANCH  18  19
ATOM     19  C   UNL     1       2.324   6.995  18.740  0.00  0.00    +0.000 A 
ATOM     20  C   UNL     1       2.156   8.077  17.837  0.00  0.00    +0.000 A 
ATOM     21  C   UNL     1       1.626   9.293  18.273  0.00  0.00    +0.000 A 
ATOM     22  C   UNL     1       1.237   9.359  19.591  0.00  0.00    +0.000 A 
ATOM     23  C   UNL     1       1.499   8.343  20.487  0.00  0.00    +0.000 A 
ATOM     24  C   UNL     1       2.101   7.170  20.112  0.00  0.00    +0.000 A 
ATOM     25  O   UNL     1       0.903   8.561  21.695  0.00  0.00    +0.000 OA
ATOM     26  C   UNL     1      -0.044   9.564  21.281  0.00  0.00    +0.000 C 
ATOM     27  O   UNL     1       0.426  10.311  20.139  0.00  0.00    +0.000 OA
ENDBRANCH  18  19
ENDBRANCH   6  18
TORSDOF 4
ENDMDL
MODEL 9
REMARK VINA RESULT:      -6.8      2.578      5.798
REMARK  Name = 
REMARK  6 active torsions:
REMARK  status: ('A' for Active; 'I' for Inactive)
REMARK    1  A    between atoms: C_1  and  C_2
REMARK    2  A    between atoms: C_4  and  C_5
REMARK    3  A    between atoms: C_10  and  C_12
REMARK    4  A    between atoms: C_12  and  C_13
REMARK    5  A    between atoms: C_23  and  O_24
REMARK    6  A    between atoms: C_25  and  C_26
REMARK                            x       y       z     vdW  Elec       q    Type
REMARK                         _______ _______ _______ _____ _____    ______ ____
ROOT
ATOM      1  C   UNL     1       2.068   4.422  19.668  0.00  0.00    +0.000 C 
ATOM      2  C   UNL     1       1.022   4.251  20.774  0.00  0.00    +0.000 C 
ATOM      3  C   UNL     1       1.257   2.823  21.243  0.00  0.00    +0.000 C 
ATOM      4  C   UNL     1       2.758   2.622  21.079  0.00  0.00    +0.000 C 
ATOM      5  N   UNL     1       3.222   3.699  20.214  0.00  0.00    +0.000 N 
ATOM      6  C   UNL     1       4.508   3.620  19.730  0.00  0.00    +0.000 C 
ATOM      7  O   UNL     1       5.209   2.645  20.019  0.00  0.00    +0.000 OA
ENDROOT
BRANCH   1  11
ATOM      8  C   UNL     1       1.201   9.043  20.815  0.00  0.00    +0.000 C 
ATOM      9  C   UNL     1       1.748   8.082  19.798  0.00  0.00    +0.000 A 
ATOM     10  N   UNL     1       1.722   6.778  20.150  0.00  0.00    +0.000 NA
ATOM     11  C   UNL     1       2.209   5.875  19.275  0.00  0.00    +0.000 A 
ATOM     12  N   UNL     1       2.725   6.189  18.074  0.00  0.00    +0.000 NA
ATOM     13  C   UNL     1       2.707   7.492  17.771  0.00  0.00    +0.000 A 
ATOM     14  C   UNL     1       2.233   8.508  18.573  0.00  0.00    +0.000 A 
ATOM     15  C   UNL     1       2.237   9.942  18.161  0.00  0.00    +0.000 C 
BRANCH  13  16
ATOM     16  O   UNL     1       3.184   7.748  16.525  0.00  0.00    +0.000 OA
ATOM     17  H   UNL     1       3.309   6.840  16.194  0.00  0.00    +0.000 HD
ENDBRANCH  13  16
ENDBRANCH   1  11
BRANCH   6  18
ATOM     18  C   UNL     1       5.080   4.779  18.884  0.00  0.00    +0.000 C 
BRANCH  18  19
ATOM     19  C   UNL     1       5.614   4.250  17.566  0.00  0.00    +0.000 A 
ATOM     20  C   UNL     1       4.753   3.526  16.700  0.00  0.00    +0.000 A 
ATOM     21  C   UNL     1       5.040   3.418  15.338  0.00  0.00    +0.000 A 
ATOM     22  C   UNL     1       6.155   4.086  14.887  0.00  0.00    +0.000 A 
ATOM     23  C   UNL     1       7.043   4.698  15.747  0.00  0.00    +0.000 A 
ATOM     24  C   UNL     1       6.839   4.745  17.102  0.00  0.00    +0.000 A 
ATOM     25  O   UNL     1       7.993   5.414  15.078  0.00  0.00    +0.000 OA
ATOM     26  C   UNL     1       7.331   5.493  13.801  0.00  0.00    +0.000 C 
ATOM     27  O   UNL     1       6.443   4.375  13.585  0.00  0.00    +0.000 OA
ENDBRANCH  18  19
ENDBRANCH   6  18
TORSDOF 4
ENDMDL
