MODEL 1
REMARK VINA RESULT:      -8.5      0.000      0.000
REMARK  Name = 
REMARK  2 active torsions:
REMARK  status: ('A' for Active; 'I' for Inactive)
REMARK    1  A    between atoms: C_2  and  C_19
REMARK    2  A    between atoms: C_7  and  C_8
REMARK                            x       y       z     vdW  Elec       q    Type
REMARK                         _______ _______ _______ _____ _____    ______ ____
ROOT
ATOM      1  O   UNL     1       0.630  10.007  22.219  0.00  0.00    +0.000 OA
ATOM      2  C   UNL     1       0.076  10.905  21.587  0.00  0.00    +0.000 C 
ATOM      3  N   UNL     1       0.189  11.093  20.237  0.00  0.00    +0.000 N 
ATOM      4  C   UNL     1       0.924  10.278  19.430  0.00  0.00    +0.000 A 
ATOM      5  N   UNL     1       1.320  10.559  18.211  0.00  0.00    +0.000 NA
ATOM      6  N   UNL     1       2.035   9.463  17.777  0.00  0.00    +0.000 NA
ATOM      7  C   UNL     1       1.973   8.570  18.746  0.00  0.00    +0.000 A 
ATOM      8  O   UNL     1       1.280   9.030  19.836  0.00  0.00    +0.000 OA
ATOM      9  H   UNL     1      -0.135  11.943  19.797  0.00  0.00    +0.000 HD
ENDROOT
BRANCH   7  10
ATOM     10  C   UNL     1       2.496   7.212  18.806  0.00  0.00    +0.000 A 
ATOM     11  C   UNL     1       3.350   6.709  17.817  0.00  0.00    +0.000 A 
ATOM     12  C   UNL     1       3.847   5.406  17.902  0.00  0.00    +0.000 A 
ATOM     13  C   UNL     1       3.507   4.579  18.981  0.00  0.00    +0.000 A 
ATOM     14  C   UNL     1       2.629   5.059  19.967  0.00  0.00    +0.000 A 
ATOM     15  C   UNL     1       2.150   6.379  19.880  0.00  0.00    +0.000 A 
ATOM     16  C   UNL     1       2.227   4.210  21.150  0.00  0.00    +0.000 C 
ATOM     17  C   UNL     1       2.521   2.722  20.961  0.00  0.00    +0.000 C 
ATOM     18  C   UNL     1       3.924   2.522  20.402  0.00  0.00    +0.000 C 
ATOM     19  C   UNL     1       4.041   3.167  19.022  0.00  0.00    +0.000 C 
ENDBRANCH   7  10
BRANCH   2  20
ATOM     20  C   UNL     1      -0.721  11.911  22.299  0.00  0.00    +0.000 A 
ATOM     21  C   UNL     1      -1.947  11.588  23.000  0.00  0.00    +0.000 A 
ATOM     22  C   UNL     1      -2.515  12.689  23.586  0.00  0.00    +0.000 A 
ATOM     23 CL   UNL     1      -3.967  12.737  24.499  0.00  0.00    +0.000 Cl
ATOM     24  S   UNL     1      -1.637  14.107  23.336  0.00  0.00    +0.000 S 
ATOM     25  C   UNL     1      -0.479  13.268  22.414  0.00  0.00    +0.000 A 
ATOM     26 CL   UNL     1       0.809  14.208  21.756  0.00  0.00    +0.000 Cl
ENDBRANCH   2  20
TORSDOF 2
ENDMDL
MODEL 2
REMARK VINA RESULT:      -8.1      1.338      2.377
REMARK  Name = 
REMARK  2 active torsions:
REMARK  status: ('A' for Active; 'I' for Inactive)
REMARK    1  A    between atoms: C_2  and  C_19
REMARK    2  A    between atoms: C_7  and  C_8
REMARK                            x       y       z     vdW  Elec       q    Type
REMARK                         _______ _______ _______ _____ _____    ______ ____
ROOT
ATOM      1  O   UNL     1       1.005  10.762  21.971  0.00  0.00    +0.000 OA
ATOM      2  C   UNL     1      -0.057  11.198  21.533  0.00  0.00    +0.000 C 
ATOM      3  N   UNL     1      -0.539  10.961  20.275  0.00  0.00    +0.000 N 
ATOM      4  C   UNL     1       0.110  10.184  19.364  0.00  0.00    +0.000 A 
ATOM      5  N   UNL     1      -0.126  10.157  18.073  0.00  0.00    +0.000 NA
ATOM      6  N   UNL     1       0.759   9.243  17.541  0.00  0.00    +0.000 NA
ATOM      7  C   UNL     1       1.430   8.738  18.557  0.00  0.00    +0.000 A 
ATOM      8  O   UNL     1       1.067   9.301  19.754  0.00  0.00    +0.000 OA
ATOM      9  H   UNL     1      -1.320  11.485  19.905  0.00  0.00    +0.000 HD
ENDROOT
BRANCH   7  10
ATOM     10  C   UNL     1       2.445   7.693  18.587  0.00  0.00    +0.000 A 
ATOM     11  C   UNL     1       2.483   6.734  19.605  0.00  0.00    +0.000 A 
ATOM     12  C   UNL     1       3.460   5.735  19.606  0.00  0.00    +0.000 A 
ATOM     13  C   UNL     1       4.418   5.670  18.586  0.00  0.00    +0.000 A 
ATOM     14  C   UNL     1       4.411   6.642  17.571  0.00  0.00    +0.000 A 
ATOM     15  C   UNL     1       3.411   7.631  17.571  0.00  0.00    +0.000 A 
ATOM     16  C   UNL     1       5.421   6.622  16.448  0.00  0.00    +0.000 C 
ATOM     17  C   UNL     1       6.635   5.737  16.736  0.00  0.00    +0.000 C 
ATOM     18  C   UNL     1       6.194   4.395  17.304  0.00  0.00    +0.000 C 
ATOM     19  C   UNL     1       5.476   4.594  18.637  0.00  0.00    +0.000 C 
ENDBRANCH   7  10
BRANCH   2  20
ATOM     20  C   UNL     1      -0.871  12.098  22.360  0.00  0.00    +0.000 A 
ATOM     21  C   UNL     1      -2.081  11.667  23.031  0.00  0.00    +0.000 A 
ATOM     22  C   UNL     1      -2.669  12.681  23.741  0.00  0.00    +0.000 A 
ATOM     23 CL   UNL     1      -4.112  12.589  24.665  0.00  0.00    +0.000 Cl
ATOM     24  S   UNL     1      -1.829  14.140  23.644  0.00  0.00    +0.000 S 
ATOM     25  C   UNL     1      -0.661  13.439  22.625  0.00  0.00    +0.000 A 
ATOM     26 CL   UNL     1       0.596  14.480  22.066  0.00  0.00    +0.000 Cl
ENDBRANCH   2  20
TORSDOF 2
ENDMDL
MODEL 3
REMARK VINA RESULT:      -8.1      4.217      5.806
REMARK  Name = 
REMARK  2 active torsions:
REMARK  status: ('A' for Active; 'I' for Inactive)
REMARK    1  A    between atoms: C_2  and  C_19
REMARK    2  A    between atoms: C_7  and  C_8
REMARK                            x       y       z     vdW  Elec       q    Type
REMARK                         _______ _______ _______ _____ _____    ______ ____
ROOT
ATOM      1  O   UNL     1       2.165   8.025  18.080  0.00  0.00    +0.000 OA
ATOM      2  C   UNL     1       2.093   7.801  19.287  0.00  0.00    +0.000 C 
ATOM      3  N   UNL     1       2.694   6.751  19.923  0.00  0.00    +0.000 N 
ATOM      4  C   UNL     1       3.469   5.835  19.279  0.00  0.00    +0.000 A 
ATOM      5  N   UNL     1       3.820   4.661  19.749  0.00  0.00    +0.000 NA
ATOM      6  N   UNL     1       4.591   4.070  18.769  0.00  0.00    +0.000 NA
ATOM      7  C   UNL     1       4.700   4.954  17.797  0.00  0.00    +0.000 A 
ATOM      8  O   UNL     1       4.000   6.105  18.057  0.00  0.00    +0.000 OA
ATOM      9  H   UNL     1       2.457   6.509  20.876  0.00  0.00    +0.000 HD
ENDROOT
BRANCH   7  10
ATOM     10  C   UNL     1       5.446   4.889  16.548  0.00  0.00    +0.000 A 
ATOM     11  C   UNL     1       6.708   5.481  16.414  0.00  0.00    +0.000 A 
ATOM     12  C   UNL     1       7.409   5.397  15.209  0.00  0.00    +0.000 A 
ATOM     13  C   UNL     1       6.868   4.714  14.112  0.00  0.00    +0.000 A 
ATOM     14  C   UNL     1       5.591   4.139  14.220  0.00  0.00    +0.000 A 
ATOM     15  C   UNL     1       4.903   4.214  15.445  0.00  0.00    +0.000 A 
ATOM     16  C   UNL     1       4.958   3.393  13.070  0.00  0.00    +0.000 C 
ATOM     17  C   UNL     1       5.627   3.668  11.723  0.00  0.00    +0.000 C 
ATOM     18  C   UNL     1       7.142   3.595  11.855  0.00  0.00    +0.000 C 
ATOM     19  C   UNL     1       7.643   4.670  12.817  0.00  0.00    +0.000 C 
ENDBRANCH   7  10
BRANCH   2  20
ATOM     20  C   UNL     1       1.258   8.658  20.137  0.00  0.00    +0.000 A 
ATOM     21  C   UNL     1       1.192   8.510  21.577  0.00  0.00    +0.000 A 
ATOM     22  C   UNL     1       0.346   9.421  22.155  0.00  0.00    +0.000 A 
ATOM     23 CL   UNL     1      -0.015   9.576  23.825  0.00  0.00    +0.000 Cl
ATOM     24  S   UNL     1      -0.379  10.458  21.041  0.00  0.00    +0.000 S 
ATOM     25  C   UNL     1       0.420   9.689  19.751  0.00  0.00    +0.000 A 
ATOM     26 CL   UNL     1       0.075  10.283  18.169  0.00  0.00    +0.000 Cl
ENDBRANCH   2  20
TORSDOF 2
ENDMDL
MODEL 4
REMARK VINA RESULT:      -8.1      1.074      1.874
REMARK  Name = 
REMARK  2 active torsions:
REMARK  status: ('A' for Active; 'I' for Inactive)
REMARK    1  A    between atoms: C_2  and  C_19
REMARK    2  A    between atoms: C_7  and  C_8
REMARK                            x       y       z     vdW  Elec       q    Type
REMARK                         _______ _______ _______ _____ _____    ______ ____
ROOT
ATOM      1  O   UNL     1       1.262  10.285  21.703  0.00  0.00    +0.000 OA
ATOM      2  C   UNL     1       0.743  11.128  20.973  0.00  0.00    +0.000 C 
ATOM      3  N   UNL     1       0.770  11.098  19.606  0.00  0.00    +0.000 N 
ATOM      4  C   UNL     1       1.366  10.102  18.894  0.00  0.00    +0.000 A 
ATOM      5  N   UNL     1       1.691  10.157  17.624  0.00  0.00    +0.000 NA
ATOM      6  N   UNL     1       2.272   8.942  17.324  0.00  0.00    +0.000 NA
ATOM      7  C   UNL     1       2.205   8.216  18.423  0.00  0.00    +0.000 A 
ATOM      8  O   UNL     1       1.640   8.901  19.468  0.00  0.00    +0.000 OA
ATOM      9  H   UNL     1       0.489  11.901  19.059  0.00  0.00    +0.000 HD
ENDROOT
BRANCH   7  10
ATOM     10  C   UNL     1       2.609   6.837  18.663  0.00  0.00    +0.000 A 
ATOM     11  C   UNL     1       3.405   6.135  17.751  0.00  0.00    +0.000 A 
ATOM     12  C   UNL     1       3.788   4.816  18.009  0.00  0.00    +0.000 A 
ATOM     13  C   UNL     1       3.389   4.172  19.187  0.00  0.00    +0.000 A 
ATOM     14  C   UNL     1       2.567   4.853  20.100  0.00  0.00    +0.000 A 
ATOM     15  C   UNL     1       2.203   6.186  19.838  0.00  0.00    +0.000 A 
ATOM     16  C   UNL     1       2.105   4.207  21.384  0.00  0.00    +0.000 C 
ATOM     17  C   UNL     1       2.267   2.686  21.395  0.00  0.00    +0.000 C 
ATOM     18  C   UNL     1       3.641   2.293  20.869  0.00  0.00    +0.000 C 
ATOM     19  C   UNL     1       3.799   2.736  19.416  0.00  0.00    +0.000 C 
ENDBRANCH   7  10
BRANCH   2  20
ATOM     20  C   UNL     1       0.095  12.304  21.566  0.00  0.00    +0.000 A 
ATOM     21  C   UNL     1       0.466  13.661  21.221  0.00  0.00    +0.000 A 
ATOM     22  C   UNL     1      -0.275  14.591  21.902  0.00  0.00    +0.000 A 
ATOM     23 CL   UNL     1      -0.145  16.298  21.787  0.00  0.00    +0.000 Cl
ATOM     24  S   UNL     1      -1.410  13.907  22.944  0.00  0.00    +0.000 S 
ATOM     25  C   UNL     1      -0.913  12.338  22.512  0.00  0.00    +0.000 A 
ATOM     26 CL   UNL     1      -1.713  11.032  23.305  0.00  0.00    +0.000 Cl
ENDBRANCH   2  20
TORSDOF 2
ENDMDL
MODEL 5
REMARK VINA RESULT:      -8.1      1.482      2.671
REMARK  Name = 
REMARK  2 active torsions:
REMARK  status: ('A' for Active; 'I' for Inactive)
REMARK    1  A    between atoms: C_2  and  C_19
REMARK    2  A    between atoms: C_7  and  C_8
REMARK                            x       y       z     vdW  Elec       q    Type
REMARK                         _______ _______ _______ _____ _____    ______ ____
ROOT
ATOM      1  O   UNL     1       1.122  10.723  21.647  0.00  0.00    +0.000 OA
ATOM      2  C   UNL     1       0.844  11.578  20.808  0.00  0.00    +0.000 C 
ATOM      3  N   UNL     1       1.008  11.429  19.459  0.00  0.00    +0.000 N 
ATOM      4  C   UNL     1       1.484  10.288  18.888  0.00  0.00    +0.000 A 
ATOM      5  N   UNL     1       1.945  10.177  17.664  0.00  0.00    +0.000 NA
ATOM      6  N   UNL     1       2.324   8.859  17.515  0.00  0.00    +0.000 NA
ATOM      7  C   UNL     1       2.011   8.252  18.642  0.00  0.00    +0.000 A 
ATOM      8  O   UNL     1       1.474   9.110  19.567  0.00  0.00    +0.000 OA
ATOM      9  H   UNL     1       0.937  12.219  18.831  0.00  0.00    +0.000 HD
ENDROOT
BRANCH   7  10
ATOM     10  C   UNL     1       2.131   6.849  19.017  0.00  0.00    +0.000 A 
ATOM     11  C   UNL     1       1.909   6.418  20.330  0.00  0.00    +0.000 A 
ATOM     12  C   UNL     1       2.021   5.066  20.664  0.00  0.00    +0.000 A 
ATOM     13  C   UNL     1       2.350   4.113  19.690  0.00  0.00    +0.000 A 
ATOM     14  C   UNL     1       2.603   4.533  18.374  0.00  0.00    +0.000 A 
ATOM     15  C   UNL     1       2.470   5.894  18.047  0.00  0.00    +0.000 A 
ATOM     16  C   UNL     1       2.965   3.550  17.285  0.00  0.00    +0.000 C 
ATOM     17  C   UNL     1       3.409   2.187  17.817  0.00  0.00    +0.000 C 
ATOM     18  C   UNL     1       2.463   1.705  18.908  0.00  0.00    +0.000 C 
ATOM     19  C   UNL     1       2.490   2.665  20.096  0.00  0.00    +0.000 C 
ENDBRANCH   7  10
BRANCH   2  20
ATOM     20  C   UNL     1       0.362  12.895  21.243  0.00  0.00    +0.000 A 
ATOM     21  C   UNL     1       0.909  14.137  20.736  0.00  0.00    +0.000 A 
ATOM     22  C   UNL     1       0.302  15.235  21.287  0.00  0.00    +0.000 A 
ATOM     23 CL   UNL     1       0.658  16.882  20.963  0.00  0.00    +0.000 Cl
ATOM     24  S   UNL     1      -0.908  14.843  22.395  0.00  0.00    +0.000 S 
ATOM     25  C   UNL     1      -0.627  13.181  22.167  0.00  0.00    +0.000 A 
ATOM     26 CL   UNL     1      -1.588  12.102  23.108  0.00  0.00    +0.000 Cl
ENDBRANCH   2  20
TORSDOF 2
ENDMDL
MODEL 6
REMARK VINA RESULT:      -8.0      1.491      1.551
REMARK  Name = 
REMARK  2 active torsions:
REMARK  status: ('A' for Active; 'I' for Inactive)
REMARK    1  A    between atoms: C_2  and  C_19
REMARK    2  A    between atoms: C_7  and  C_8
REMARK                            x       y       z     vdW  Elec       q    Type
REMARK                         _______ _______ _______ _____ _____    ______ ____
ROOT
ATOM      1  O   UNL     1       0.246   9.791  21.424  0.00  0.00    +0.000 OA
ATOM      2  C   UNL     1      -0.107  10.677  20.647  0.00  0.00    +0.000 C 
ATOM      3  N   UNL     1       0.315  10.791  19.351  0.00  0.00    +0.000 N 
ATOM      4  C   UNL     1       1.170   9.908  18.765  0.00  0.00    +0.000 A 
ATOM      5  N   UNL     1       1.842  10.112  17.657  0.00  0.00    +0.000 NA
ATOM      6  N   UNL     1       2.581   8.967  17.440  0.00  0.00    +0.000 NA
ATOM      7  C   UNL     1       2.259   8.128  18.405  0.00  0.00    +0.000 A 
ATOM      8  O   UNL     1       1.363   8.670  19.291  0.00  0.00    +0.000 OA
ATOM      9  H   UNL     1       0.140  11.631  18.815  0.00  0.00    +0.000 HD
ENDROOT
BRANCH   7  10
ATOM     10  C   UNL     1       2.687   6.755  18.636  0.00  0.00    +0.000 A 
ATOM     11  C   UNL     1       3.512   6.079  17.730  0.00  0.00    +0.000 A 
ATOM     12  C   UNL     1       3.917   4.765  17.979  0.00  0.00    +0.000 A 
ATOM     13  C   UNL     1       3.512   4.100  19.144  0.00  0.00    +0.000 A 
ATOM     14  C   UNL     1       2.661   4.754  20.050  0.00  0.00    +0.000 A 
ATOM     15  C   UNL     1       2.275   6.083  19.797  0.00  0.00    +0.000 A 
ATOM     16  C   UNL     1       2.191   4.084  21.320  0.00  0.00    +0.000 C 
ATOM     17  C   UNL     1       2.384   2.567  21.316  0.00  0.00    +0.000 C 
ATOM     18  C   UNL     1       3.774   2.207  20.808  0.00  0.00    +0.000 C 
ATOM     19  C   UNL     1       3.947   2.671  19.363  0.00  0.00    +0.000 C 
ENDBRANCH   7  10
BRANCH   2  20
ATOM     20  C   UNL     1      -0.992  11.748  21.119  0.00  0.00    +0.000 A 
ATOM     21  C   UNL     1      -0.817  12.403  22.400  0.00  0.00    +0.000 A 
ATOM     22  C   UNL     1      -1.763  13.369  22.623  0.00  0.00    +0.000 A 
ATOM     23 CL   UNL     1      -1.912  14.365  24.012  0.00  0.00    +0.000 Cl
ATOM     24  S   UNL     1      -2.861  13.533  21.354  0.00  0.00    +0.000 S 
ATOM     25  C   UNL     1      -2.094  12.290  20.483  0.00  0.00    +0.000 A 
ATOM     26 CL   UNL     1      -2.788  11.877  18.959  0.00  0.00    +0.000 Cl
ENDBRANCH   2  20
TORSDOF 2
ENDMDL
MODEL 7
REMARK VINA RESULT:      -8.0      4.268      9.252
REMARK  Name = 
REMARK  2 active torsions:
REMARK  status: ('A' for Active; 'I' for Inactive)
REMARK    1  A    between atoms: C_2  and  C_19
REMARK    2  A    between atoms: C_7  and  C_8
REMARK                            x       y       z     vdW  Elec       q    Type
REMARK                         _______ _______ _______ _____ _____    ______ ____
ROOT
ATOM      1  O   UNL     1       1.314   8.907  18.703  0.00  0.00    +0.000 OA
ATOM      2  C   UNL     1       1.870   8.041  19.375  0.00  0.00    +0.000 C 
ATOM      3  N   UNL     1       1.865   7.992  20.742  0.00  0.00    +0.000 N 
ATOM      4  C   UNL     1       1.213   8.901  21.518  0.00  0.00    +0.000 A 
ATOM      5  N   UNL     1       1.408   9.094  22.801  0.00  0.00    +0.000 NA
ATOM      6  N   UNL     1       0.547  10.106  23.172  0.00  0.00    +0.000 NA
ATOM      7  C   UNL     1      -0.150  10.415  22.096  0.00  0.00    +0.000 A 
ATOM      8  O   UNL     1       0.230   9.684  21.000  0.00  0.00    +0.000 OA
ATOM      9  H   UNL     1       2.483   7.370  21.247  0.00  0.00    +0.000 HD
ENDROOT
BRANCH   7  10
ATOM     10  C   UNL     1      -1.238  11.369  21.924  0.00  0.00    +0.000 A 
ATOM     11  C   UNL     1      -1.493  11.977  20.690  0.00  0.00    +0.000 A 
ATOM     12  C   UNL     1      -2.549  12.882  20.547  0.00  0.00    +0.000 A 
ATOM     13  C   UNL     1      -3.376  13.193  21.634  0.00  0.00    +0.000 A 
ATOM     14  C   UNL     1      -3.116  12.613  22.887  0.00  0.00    +0.000 A 
ATOM     15  C   UNL     1      -2.062  11.690  23.013  0.00  0.00    +0.000 A 
ATOM     16  C   UNL     1      -3.973  12.915  24.093  0.00  0.00    +0.000 C 
ATOM     17  C   UNL     1      -4.845  14.160  23.925  0.00  0.00    +0.000 C 
ATOM     18  C   UNL     1      -5.529  14.153  22.565  0.00  0.00    +0.000 C 
ATOM     19  C   UNL     1      -4.488  14.198  21.448  0.00  0.00    +0.000 C 
ENDBRANCH   7  10
BRANCH   2  20
ATOM     20  C   UNL     1       2.666   7.002  18.710  0.00  0.00    +0.000 A 
ATOM     21  C   UNL     1       3.619   7.297  17.658  0.00  0.00    +0.000 A 
ATOM     22  C   UNL     1       4.240   6.169  17.189  0.00  0.00    +0.000 A 
ATOM     23 CL   UNL     1       5.421   6.083  15.949  0.00  0.00    +0.000 Cl
ATOM     24  S   UNL     1       3.731   4.757  17.960  0.00  0.00    +0.000 S 
ATOM     25  C   UNL     1       2.647   5.637  18.932  0.00  0.00    +0.000 A 
ATOM     26 CL   UNL     1       1.686   4.723  20.035  0.00  0.00    +0.000 Cl
ENDBRANCH   2  20
TORSDOF 2
ENDMDL
MODEL 8
REMARK VINA RESULT:      -8.0      1.039      1.994
REMARK  Name = 
REMARK  2 active torsions:
REMARK  status: ('A' for Active; 'I' for Inactive)
REMARK    1  A    between atoms: C_2  and  C_19
REMARK    2  A    between atoms: C_7  and  C_8
REMARK                            x       y       z     vdW  Elec       q    Type
REMARK                         _______ _______ _______ _____ _____    ______ ____
ROOT
ATOM      1  O   UNL     1       0.107  10.324  22.548  0.00  0.00    +0.000 OA
ATOM      2  C   UNL     1      -0.442  11.254  21.961  0.00  0.00    +0.000 C 
ATOM      3  N   UNL     1      -0.272  11.550  20.636  0.00  0.00    +0.000 N 
ATOM      4  C   UNL     1       0.522  10.820  19.806  0.00  0.00    +0.000 A 
ATOM      5  N   UNL     1       0.965  11.206  18.633  0.00  0.00    +0.000 NA
ATOM      6  N   UNL     1       1.731  10.165  18.150  0.00  0.00    +0.000 NA
ATOM      7  C   UNL     1       1.650   9.198  19.042  0.00  0.00    +0.000 A 
ATOM      8  O   UNL     1       0.895   9.554  20.131  0.00  0.00    +0.000 OA
ATOM      9  H   UNL     1      -0.600  12.424  20.248  0.00  0.00    +0.000 HD
ENDROOT
BRANCH   7  10
ATOM     10  C   UNL     1       2.209   7.853  19.023  0.00  0.00    +0.000 A 
ATOM     11  C   UNL     1       1.920   6.922  20.027  0.00  0.00    +0.000 A 
ATOM     12  C   UNL     1       2.461   5.635  19.981  0.00  0.00    +0.000 A 
ATOM     13  C   UNL     1       3.298   5.247  18.926  0.00  0.00    +0.000 A 
ATOM     14  C   UNL     1       3.620   6.178  17.925  0.00  0.00    +0.000 A 
ATOM     15  C   UNL     1       3.055   7.465  17.973  0.00  0.00    +0.000 A 
ATOM     16  C   UNL     1       4.519   5.816  16.766  0.00  0.00    +0.000 C 
ATOM     17  C   UNL     1       5.329   4.540  16.999  0.00  0.00    +0.000 C 
ATOM     18  C   UNL     1       4.442   3.440  17.566  0.00  0.00    +0.000 C 
ATOM     19  C   UNL     1       3.886   3.856  18.927  0.00  0.00    +0.000 C 
ENDBRANCH   7  10
BRANCH   2  20
ATOM     20  C   UNL     1      -1.300  12.181  22.709  0.00  0.00    +0.000 A 
ATOM     21  C   UNL     1      -2.538  11.769  23.340  0.00  0.00    +0.000 A 
ATOM     22  C   UNL     1      -3.165  12.807  23.979  0.00  0.00    +0.000 A 
ATOM     23 CL   UNL     1      -4.649  12.742  24.837  0.00  0.00    +0.000 Cl
ATOM     24  S   UNL     1      -2.331  14.267  23.858  0.00  0.00    +0.000 S 
ATOM     25  C   UNL     1      -1.112  13.534  22.926  0.00  0.00    +0.000 A 
ATOM     26 CL   UNL     1       0.163  14.561  22.381  0.00  0.00    +0.000 Cl
ENDBRANCH   2  20
TORSDOF 2
ENDMDL
MODEL 9
REMARK VINA RESULT:      -8.0      0.914      1.691
REMARK  Name = 
REMARK  2 active torsions:
REMARK  status: ('A' for Active; 'I' for Inactive)
REMARK    1  A    between atoms: C_2  and  C_19
REMARK    2  A    between atoms: C_7  and  C_8
REMARK                            x       y       z     vdW  Elec       q    Type
REMARK                         _______ _______ _______ _____ _____    ______ ____
ROOT
ATOM      1  O   UNL     1       0.596  10.211  22.323  0.00  0.00    +0.000 OA
ATOM      2  C   UNL     1       0.220  11.114  21.578  0.00  0.00    +0.000 C 
ATOM      3  N   UNL     1       0.410  11.139  20.224  0.00  0.00    +0.000 N 
ATOM      4  C   UNL     1       1.029  10.137  19.540  0.00  0.00    +0.000 A 
ATOM      5  N   UNL     1       1.508  10.222  18.322  0.00  0.00    +0.000 NA
ATOM      6  N   UNL     1       2.049   8.985  18.035  0.00  0.00    +0.000 NA
ATOM      7  C   UNL     1       1.806   8.221  19.081  0.00  0.00    +0.000 A 
ATOM      8  O   UNL     1       1.160   8.898  20.084  0.00  0.00    +0.000 OA
ATOM      9  H   UNL     1       0.246  11.980  19.686  0.00  0.00    +0.000 HD
ENDROOT
BRANCH   7  10
ATOM     10  C   UNL     1       2.096   6.811  19.301  0.00  0.00    +0.000 A 
ATOM     11  C   UNL     1       1.934   6.214  20.556  0.00  0.00    +0.000 A 
ATOM     12  C   UNL     1       2.210   4.856  20.740  0.00  0.00    +0.000 A 
ATOM     13  C   UNL     1       2.649   4.064  19.671  0.00  0.00    +0.000 A 
ATOM     14  C   UNL     1       2.843   4.653  18.411  0.00  0.00    +0.000 A 
ATOM     15  C   UNL     1       2.544   6.017  18.235  0.00  0.00    +0.000 A 
ATOM     16  C   UNL     1       3.316   3.848  17.224  0.00  0.00    +0.000 C 
ATOM     17  C   UNL     1       3.925   2.498  17.607  0.00  0.00    +0.000 C 
ATOM     18  C   UNL     1       3.048   1.788  18.630  0.00  0.00    +0.000 C 
ATOM     19  C   UNL     1       2.964   2.607  19.916  0.00  0.00    +0.000 C 
ENDBRANCH   7  10
BRANCH   2  20
ATOM     20  C   UNL     1      -0.425  12.304  22.145  0.00  0.00    +0.000 A 
ATOM     21  C   UNL     1      -1.627  12.236  22.952  0.00  0.00    +0.000 A 
ATOM     22  C   UNL     1      -2.044  13.473  23.368  0.00  0.00    +0.000 A 
ATOM     23 CL   UNL     1      -3.420  13.828  24.330  0.00  0.00    +0.000 Cl
ATOM     24  S   UNL     1      -1.050  14.727  22.835  0.00  0.00    +0.000 S 
ATOM     25  C   UNL     1      -0.044  13.628  22.015  0.00  0.00    +0.000 A 
ATOM     26 CL   UNL     1       1.282  14.302  21.142  0.00  0.00    +0.000 Cl
ENDBRANCH   2  20
TORSDOF 2
ENDMDL
