MODEL 1
REMARK VINA RESULT:      -6.6      0.000      0.000
REMARK  Name = 
REMARK  3 active torsions:
REMARK  status: ('A' for Active; 'I' for Inactive)
REMARK    1  A    between atoms: C_2  and  C_3
REMARK    2  A    between atoms: C_2  and  C_10
REMARK    3  A    between atoms: C_3  and  N_4
REMARK                            x       y       z     vdW  Elec       q    Type
REMARK                         _______ _______ _______ _____ _____    ______ ____
ROOT
ATOM      1  O   UNL     1       2.945   6.829  18.084  0.00  0.00    +0.000 OA
ATOM      2  C   UNL     1       3.165   5.620  18.024  0.00  0.00    +0.000 C 
ENDROOT
BRANCH   2   3
ATOM      3  C   UNL     1       2.422   4.733  18.963  0.00  0.00    +0.000 A 
ATOM      4  C   UNL     1       1.494   3.784  18.517  0.00  0.00    +0.000 A 
ATOM      5  C   UNL     1       0.855   2.949  19.439  0.00  0.00    +0.000 A 
ATOM      6  C   UNL     1       1.137   3.058  20.801  0.00  0.00    +0.000 A 
ATOM      7  C   UNL     1       2.043   4.021  21.248  0.00  0.00    +0.000 A 
ATOM      8  C   UNL     1       2.676   4.861  20.336  0.00  0.00    +0.000 A 
ENDBRANCH   2   3
BRANCH   2   9
ATOM      9  C   UNL     1       4.179   4.952  17.079  0.00  0.00    +0.000 C 
BRANCH   9  10
ATOM     10  N   UNL     1       5.175   5.900  16.539  0.00  0.00    +0.000 NA
ATOM     11  C   UNL     1       5.674   5.543  15.192  0.00  0.00    +0.000 C 
ATOM     12  C   UNL     1       6.710   4.404  15.157  0.00  0.00    +0.000 C 
ATOM     13  O   UNL     1       7.787   4.609  16.078  0.00  0.00    +0.000 OA
ATOM     14  C   UNL     1       7.308   4.855  17.403  0.00  0.00    +0.000 C 
ATOM     15  C   UNL     1       6.340   6.047  17.435  0.00  0.00    +0.000 C 
ENDBRANCH   9  10
ENDBRANCH   2   9
TORSDOF 3
ENDMDL
MODEL 2
REMARK VINA RESULT:      -6.6      1.206      1.792
REMARK  Name = 
REMARK  3 active torsions:
REMARK  status: ('A' for Active; 'I' for Inactive)
REMARK    1  A    between atoms: C_2  and  C_3
REMARK    2  A    between atoms: C_2  and  C_10
REMARK    3  A    between atoms: C_3  and  N_4
REMARK                            x       y       z     vdW  Elec       q    Type
REMARK                         _______ _______ _______ _____ _____    ______ ____
ROOT
ATOM      1  O   UNL     1       2.300   7.539  17.957  0.00  0.00    +0.000 OA
ATOM      2  C   UNL     1       2.934   6.491  18.080  0.00  0.00    +0.000 C 
ENDROOT
BRANCH   2   3
ATOM      3  C   UNL     1       2.229   5.319  18.669  0.00  0.00    +0.000 A 
ATOM      4  C   UNL     1       1.752   4.261  17.884  0.00  0.00    +0.000 A 
ATOM      5  C   UNL     1       1.133   3.166  18.493  0.00  0.00    +0.000 A 
ATOM      6  C   UNL     1       0.987   3.122  19.880  0.00  0.00    +0.000 A 
ATOM      7  C   UNL     1       1.438   4.187  20.661  0.00  0.00    +0.000 A 
ATOM      8  C   UNL     1       2.047   5.285  20.059  0.00  0.00    +0.000 A 
ENDBRANCH   2   3
BRANCH   2   9
ATOM      9  C   UNL     1       4.415   6.306  17.707  0.00  0.00    +0.000 C 
BRANCH   9  10
ATOM     10  N   UNL     1       4.992   5.055  18.241  0.00  0.00    +0.000 NA
ATOM     11  C   UNL     1       6.159   5.262  19.128  0.00  0.00    +0.000 C 
ATOM     12  C   UNL     1       7.481   5.587  18.408  0.00  0.00    +0.000 C 
ATOM     13  O   UNL     1       7.779   4.661  17.357  0.00  0.00    +0.000 OA
ATOM     14  C   UNL     1       6.688   4.534  16.441  0.00  0.00    +0.000 C 
ATOM     15  C   UNL     1       5.395   4.128  17.164  0.00  0.00    +0.000 C 
ENDBRANCH   9  10
ENDBRANCH   2   9
TORSDOF 3
ENDMDL
MODEL 3
REMARK VINA RESULT:      -6.5      0.318      1.287
REMARK  Name = 
REMARK  3 active torsions:
REMARK  status: ('A' for Active; 'I' for Inactive)
REMARK    1  A    between atoms: C_2  and  C_3
REMARK    2  A    between atoms: C_2  and  C_10
REMARK    3  A    between atoms: C_3  and  N_4
REMARK                            x       y       z     vdW  Elec       q    Type
REMARK                         _______ _______ _______ _____ _____    ______ ____
ROOT
ATOM      1  O   UNL     1       2.562   6.431  17.789  0.00  0.00    +0.000 OA
ATOM      2  C   UNL     1       3.040   5.317  18.005  0.00  0.00    +0.000 C 
ENDROOT
BRANCH   2   3
ATOM      3  C   UNL     1       2.431   4.499  19.089  0.00  0.00    +0.000 A 
ATOM      4  C   UNL     1       2.780   4.662  20.435  0.00  0.00    +0.000 A 
ATOM      5  C   UNL     1       2.147   3.895  21.418  0.00  0.00    +0.000 A 
ATOM      6  C   UNL     1       1.169   2.965  21.062  0.00  0.00    +0.000 A 
ATOM      7  C   UNL     1       0.838   2.784  19.719  0.00  0.00    +0.000 A 
ATOM      8  C   UNL     1       1.472   3.538  18.735  0.00  0.00    +0.000 A 
ENDBRANCH   2   3
BRANCH   2   9
ATOM      9  C   UNL     1       4.248   4.717  17.265  0.00  0.00    +0.000 C 
BRANCH   9  10
ATOM     10  N   UNL     1       5.223   5.738  16.828  0.00  0.00    +0.000 NA
ATOM     11  C   UNL     1       5.719   5.542  15.447  0.00  0.00    +0.000 C 
ATOM     12  C   UNL     1       6.775   4.435  15.280  0.00  0.00    +0.000 C 
ATOM     13  O   UNL     1       7.855   4.557  16.212  0.00  0.00    +0.000 OA
ATOM     14  C   UNL     1       7.381   4.645  17.559  0.00  0.00    +0.000 C 
ATOM     15  C   UNL     1       6.392   5.807  17.728  0.00  0.00    +0.000 C 
ENDBRANCH   9  10
ENDBRANCH   2   9
TORSDOF 3
ENDMDL
MODEL 4
REMARK VINA RESULT:      -6.5      1.094      2.095
REMARK  Name = 
REMARK  3 active torsions:
REMARK  status: ('A' for Active; 'I' for Inactive)
REMARK    1  A    between atoms: C_2  and  C_3
REMARK    2  A    between atoms: C_2  and  C_10
REMARK    3  A    between atoms: C_3  and  N_4
REMARK                            x       y       z     vdW  Elec       q    Type
REMARK                         _______ _______ _______ _____ _____    ______ ____
ROOT
ATOM      1  O   UNL     1       2.575   7.595  17.906  0.00  0.00    +0.000 OA
ATOM      2  C   UNL     1       3.166   6.522  18.023  0.00  0.00    +0.000 C 
ENDROOT
BRANCH   2   3
ATOM      3  C   UNL     1       2.453   5.409  18.709  0.00  0.00    +0.000 A 
ATOM      4  C   UNL     1       2.389   5.310  20.105  0.00  0.00    +0.000 A 
ATOM      5  C   UNL     1       1.672   4.266  20.697  0.00  0.00    +0.000 A 
ATOM      6  C   UNL     1       1.019   3.322  19.904  0.00  0.00    +0.000 A 
ATOM      7  C   UNL     1       1.102   3.406  18.513  0.00  0.00    +0.000 A 
ATOM      8  C   UNL     1       1.823   4.437  17.917  0.00  0.00    +0.000 A 
ENDBRANCH   2   3
BRANCH   2   9
ATOM      9  C   UNL     1       4.604   6.248  17.550  0.00  0.00    +0.000 C 
BRANCH   9  10
ATOM     10  N   UNL     1       5.078   4.892  17.896  0.00  0.00    +0.000 NA
ATOM     11  C   UNL     1       6.226   4.878  18.830  0.00  0.00    +0.000 C 
ATOM     12  C   UNL     1       7.590   5.213  18.198  0.00  0.00    +0.000 C 
ATOM     13  O   UNL     1       7.860   4.440  17.024  0.00  0.00    +0.000 OA
ATOM     14  C   UNL     1       6.793   4.533  16.075  0.00  0.00    +0.000 C 
ATOM     15  C   UNL     1       5.453   4.115  16.697  0.00  0.00    +0.000 C 
ENDBRANCH   9  10
ENDBRANCH   2   9
TORSDOF 3
ENDMDL
MODEL 5
REMARK VINA RESULT:      -6.5      1.640      2.251
REMARK  Name = 
REMARK  3 active torsions:
REMARK  status: ('A' for Active; 'I' for Inactive)
REMARK    1  A    between atoms: C_2  and  C_3
REMARK    2  A    between atoms: C_2  and  C_10
REMARK    3  A    between atoms: C_3  and  N_4
REMARK                            x       y       z     vdW  Elec       q    Type
REMARK                         _______ _______ _______ _____ _____    ______ ____
ROOT
ATOM      1  O   UNL     1       2.379   3.124  16.609  0.00  0.00    +0.000 OA
ATOM      2  C   UNL     1       3.016   3.720  17.478  0.00  0.00    +0.000 C 
ENDROOT
BRANCH   2   3
ATOM      3  C   UNL     1       2.625   3.497  18.898  0.00  0.00    +0.000 A 
ATOM      4  C   UNL     1       3.408   2.740  19.778  0.00  0.00    +0.000 A 
ATOM      5  C   UNL     1       3.015   2.596  21.112  0.00  0.00    +0.000 A 
ATOM      6  C   UNL     1       1.845   3.204  21.570  0.00  0.00    +0.000 A 
ATOM      7  C   UNL     1       1.052   3.938  20.688  0.00  0.00    +0.000 A 
ATOM      8  C   UNL     1       1.433   4.077  19.356  0.00  0.00    +0.000 A 
ENDBRANCH   2   3
BRANCH   2   9
ATOM      9  C   UNL     1       4.162   4.710  17.211  0.00  0.00    +0.000 C 
BRANCH   9  10
ATOM     10  N   UNL     1       5.482   4.052  17.113  0.00  0.00    +0.000 NA
ATOM     11  C   UNL     1       6.571   4.788  17.793  0.00  0.00    +0.000 C 
ATOM     12  C   UNL     1       7.106   6.016  17.034  0.00  0.00    +0.000 C 
ATOM     13  O   UNL     1       7.442   5.723  15.674  0.00  0.00    +0.000 OA
ATOM     14  C   UNL     1       6.353   5.101  14.985  0.00  0.00    +0.000 C 
ATOM     15  C   UNL     1       5.886   3.830  15.710  0.00  0.00    +0.000 C 
ENDBRANCH   9  10
ENDBRANCH   2   9
TORSDOF 3
ENDMDL
MODEL 6
REMARK VINA RESULT:      -6.4      1.588      1.685
REMARK  Name = 
REMARK  3 active torsions:
REMARK  status: ('A' for Active; 'I' for Inactive)
REMARK    1  A    between atoms: C_2  and  C_3
REMARK    2  A    between atoms: C_2  and  C_10
REMARK    3  A    between atoms: C_3  and  N_4
REMARK                            x       y       z     vdW  Elec       q    Type
REMARK                         _______ _______ _______ _____ _____    ______ ____
ROOT
ATOM      1  O   UNL     1       2.378   3.196  16.635  0.00  0.00    +0.000 OA
ATOM      2  C   UNL     1       3.157   3.489  17.543  0.00  0.00    +0.000 C 
ENDROOT
BRANCH   2   3
ATOM      3  C   UNL     1       2.656   3.397  18.942  0.00  0.00    +0.000 A 
ATOM      4  C   UNL     1       1.431   3.952  19.336  0.00  0.00    +0.000 A 
ATOM      5  C   UNL     1       0.990   3.801  20.654  0.00  0.00    +0.000 A 
ATOM      6  C   UNL     1       1.765   3.102  21.580  0.00  0.00    +0.000 A 
ATOM      7  C   UNL     1       2.997   2.571  21.195  0.00  0.00    +0.000 A 
ATOM      8  C   UNL     1       3.446   2.725  19.886  0.00  0.00    +0.000 A 
ENDBRANCH   2   3
BRANCH   2   9
ATOM      9  C   UNL     1       4.601   3.981  17.344  0.00  0.00    +0.000 C 
BRANCH   9  10
ATOM     10  N   UNL     1       4.708   5.068  16.349  0.00  0.00    +0.000 NA
ATOM     11  C   UNL     1       5.455   4.693  15.128  0.00  0.00    +0.000 C 
ATOM     12  C   UNL     1       6.987   4.657  15.281  0.00  0.00    +0.000 C 
ATOM     13  O   UNL     1       7.511   5.852  15.870  0.00  0.00    +0.000 OA
ATOM     14  C   UNL     1       6.858   6.162  17.105  0.00  0.00    +0.000 C 
ATOM     15  C   UNL     1       5.338   6.278  16.918  0.00  0.00    +0.000 C 
ENDBRANCH   9  10
ENDBRANCH   2   9
TORSDOF 3
ENDMDL
MODEL 7
REMARK VINA RESULT:      -6.4      1.616      1.872
REMARK  Name = 
REMARK  3 active torsions:
REMARK  status: ('A' for Active; 'I' for Inactive)
REMARK    1  A    between atoms: C_2  and  C_3
REMARK    2  A    between atoms: C_2  and  C_10
REMARK    3  A    between atoms: C_3  and  N_4
REMARK                            x       y       z     vdW  Elec       q    Type
REMARK                         _______ _______ _______ _____ _____    ______ ____
ROOT
ATOM      1  O   UNL     1       2.137   3.196  16.652  0.00  0.00    +0.000 OA
ATOM      2  C   UNL     1       3.018   3.272  17.509  0.00  0.00    +0.000 C 
ENDROOT
BRANCH   2   3
ATOM      3  C   UNL     1       2.602   3.217  18.938  0.00  0.00    +0.000 A 
ATOM      4  C   UNL     1       3.375   2.583  19.917  0.00  0.00    +0.000 A 
ATOM      5  C   UNL     1       2.957   2.595  21.252  0.00  0.00    +0.000 A 
ATOM      6  C   UNL     1       1.771   3.237  21.611  0.00  0.00    +0.000 A 
ATOM      7  C   UNL     1       0.987   3.848  20.631  0.00  0.00    +0.000 A 
ATOM      8  C   UNL     1       1.393   3.830  19.299  0.00  0.00    +0.000 A 
ENDBRANCH   2   3
BRANCH   2   9
ATOM      9  C   UNL     1       4.517   3.460  17.220  0.00  0.00    +0.000 C 
BRANCH   9  10
ATOM     10  N   UNL     1       4.944   4.874  17.280  0.00  0.00    +0.000 NA
ATOM     11  C   UNL     1       5.259   5.463  15.959  0.00  0.00    +0.000 C 
ATOM     12  C   UNL     1       6.621   5.057  15.368  0.00  0.00    +0.000 C 
ATOM     13  O   UNL     1       7.699   5.237  16.292  0.00  0.00    +0.000 OA
ATOM     14  C   UNL     1       7.441   4.582  17.538  0.00  0.00    +0.000 C 
ATOM     15  C   UNL     1       6.119   5.060  18.156  0.00  0.00    +0.000 C 
ENDBRANCH   9  10
ENDBRANCH   2   9
TORSDOF 3
ENDMDL
MODEL 8
REMARK VINA RESULT:      -6.4      2.025      2.807
REMARK  Name = 
REMARK  3 active torsions:
REMARK  status: ('A' for Active; 'I' for Inactive)
REMARK    1  A    between atoms: C_2  and  C_3
REMARK    2  A    between atoms: C_2  and  C_10
REMARK    3  A    between atoms: C_3  and  N_4
REMARK                            x       y       z     vdW  Elec       q    Type
REMARK                         _______ _______ _______ _____ _____    ______ ____
ROOT
ATOM      1  O   UNL     1       5.428   2.650  20.042  0.00  0.00    +0.000 OA
ATOM      2  C   UNL     1       4.745   3.515  19.492  0.00  0.00    +0.000 C 
ENDROOT
BRANCH   2   3
ATOM      3  C   UNL     1       3.264   3.363  19.540  0.00  0.00    +0.000 A 
ATOM      4  C   UNL     1       2.579   3.085  20.729  0.00  0.00    +0.000 A 
ATOM      5  C   UNL     1       1.184   2.994  20.724  0.00  0.00    +0.000 A 
ATOM      6  C   UNL     1       0.471   3.177  19.539  0.00  0.00    +0.000 A 
ATOM      7  C   UNL     1       1.155   3.429  18.349  0.00  0.00    +0.000 A 
ATOM      8  C   UNL     1       2.545   3.513  18.345  0.00  0.00    +0.000 A 
ENDBRANCH   2   3
BRANCH   2   9
ATOM      9  C   UNL     1       5.304   4.724  18.723  0.00  0.00    +0.000 C 
BRANCH   9  10
ATOM     10  N   UNL     1       6.737   4.585  18.391  0.00  0.00    +0.000 NA
ATOM     11  C   UNL     1       7.560   5.751  18.783  0.00  0.00    +0.000 C 
ATOM     12  C   UNL     1       7.445   6.976  17.857  0.00  0.00    +0.000 C 
ATOM     13  O   UNL     1       7.631   6.644  16.477  0.00  0.00    +0.000 OA
ATOM     14  C   UNL     1       6.763   5.582  16.069  0.00  0.00    +0.000 C 
ATOM     15  C   UNL     1       6.950   4.338  16.950  0.00  0.00    +0.000 C 
ENDBRANCH   9  10
ENDBRANCH   2   9
TORSDOF 3
ENDMDL
MODEL 9
REMARK VINA RESULT:      -6.4      1.790      1.997
REMARK  Name = 
REMARK  3 active torsions:
REMARK  status: ('A' for Active; 'I' for Inactive)
REMARK    1  A    between atoms: C_2  and  C_3
REMARK    2  A    between atoms: C_2  and  C_10
REMARK    3  A    between atoms: C_3  and  N_4
REMARK                            x       y       z     vdW  Elec       q    Type
REMARK                         _______ _______ _______ _____ _____    ______ ____
ROOT
ATOM      1  O   UNL     1       5.361   2.976  19.686  0.00  0.00    +0.000 OA
ATOM      2  C   UNL     1       4.583   3.881  19.385  0.00  0.00    +0.000 C 
ENDROOT
BRANCH   2   3
ATOM      3  C   UNL     1       3.125   3.574  19.395  0.00  0.00    +0.000 A 
ATOM      4  C   UNL     1       2.563   2.590  18.573  0.00  0.00    +0.000 A 
ATOM      5  C   UNL     1       1.195   2.314  18.651  0.00  0.00    +0.000 A 
ATOM      6  C   UNL     1       0.386   3.016  19.547  0.00  0.00    +0.000 A 
ATOM      7  C   UNL     1       0.941   4.014  20.349  0.00  0.00    +0.000 A 
ATOM      8  C   UNL     1       2.301   4.300  20.268  0.00  0.00    +0.000 A 
ENDBRANCH   2   3
BRANCH   2   9
ATOM      9  C   UNL     1       4.999   5.300  18.960  0.00  0.00    +0.000 C 
BRANCH   9  10
ATOM     10  N   UNL     1       4.876   5.526  17.505  0.00  0.00    +0.000 NA
ATOM     11  C   UNL     1       5.559   4.505  16.679  0.00  0.00    +0.000 C 
ATOM     12  C   UNL     1       7.089   4.649  16.591  0.00  0.00    +0.000 C 
ATOM     13  O   UNL     1       7.500   5.973  16.234  0.00  0.00    +0.000 OA
ATOM     14  C   UNL     1       6.919   6.956  17.096  0.00  0.00    +0.000 C 
ATOM     15  C   UNL     1       5.387   6.853  17.107  0.00  0.00    +0.000 C 
ENDBRANCH   9  10
ENDBRANCH   2   9
TORSDOF 3
ENDMDL
