MODEL 1
REMARK VINA RESULT:      -7.7      0.000      0.000
REMARK  Name = 
REMARK  10 active torsions:
REMARK  status: ('A' for Active; 'I' for Inactive)
REMARK    1  A    between atoms: C_1  and  N_2
REMARK    2  A    between atoms: N_2  and  C_3
REMARK    3  A    between atoms: N_2  and  C_4
REMARK    4  A    between atoms: C_4  and  C_5
REMARK    5  A    between atoms: C_5  and  C_6
REMARK    6  A    between atoms: C_6  and  O_7
REMARK    7  A    between atoms: C_6  and  C_20
REMARK    8  A    between atoms: O_7  and  C_8
REMARK    9  A    between atoms: C_8  and  C_10
REMARK   10  A    between atoms: N_18  and  C_19
REMARK                            x       y       z     vdW  Elec       q    Type
REMARK                         _______ _______ _______ _____ _____    ______ ____
ROOT
ATOM      1  C   UNL     1       3.258   5.865  19.567  0.00  0.00    +0.000 C 
ENDROOT
BRANCH   1   2
ATOM      2  C   UNL     1       2.512   7.190  19.366  0.00  0.00    +0.000 A 
ATOM      3  C   UNL     1       1.767   7.795  20.394  0.00  0.00    +0.000 A 
ATOM      4  C   UNL     1       1.068   8.984  20.178  0.00  0.00    +0.000 A 
ATOM      5  C   UNL     1       1.100   9.584  18.925  0.00  0.00    +0.000 A 
ATOM      6 CL   UNL     1       0.223  11.041  18.659  0.00  0.00    +0.000 Cl
ATOM      7  C   UNL     1       1.830   9.007  17.888  0.00  0.00    +0.000 A 
ATOM      8  C   UNL     1       2.535   7.818  18.107  0.00  0.00    +0.000 A 
ENDBRANCH   1   2
BRANCH   1   9
ATOM      9  C   UNL     1       2.516   4.813  20.423  0.00  0.00    +0.000 C 
BRANCH   9  10
ATOM     10  C   UNL     1       1.571   3.899  19.640  0.00  0.00    +0.000 C 
BRANCH  10  12
ATOM     11  C   UNL     1       2.345   2.172  18.101  0.00  0.00    +0.000 C 
ATOM     12  N   UNL     1       2.039   2.511  19.493  0.00  0.00    +0.000 NA
ATOM     13  C   UNL     1       3.236   2.317  20.318  0.00  0.00    +0.000 C 
ENDBRANCH  10  12
ENDBRANCH   9  10
ENDBRANCH   1   9
BRANCH   1  14
ATOM     14  O   UNL     1       3.694   5.327  18.294  0.00  0.00    +0.000 OA
BRANCH  14  15
ATOM     15  C   UNL     1       4.972   4.868  18.227  0.00  0.00    +0.000 C 
ATOM     16  O   UNL     1       5.669   4.598  19.196  0.00  0.00    +0.000 OA
BRANCH  15  17
ATOM     17  C   UNL     1       5.407   4.731  16.855  0.00  0.00    +0.000 A 
ATOM     18  C   UNL     1       4.929   3.920  15.837  0.00  0.00    +0.000 A 
ATOM     19  C   UNL     1       5.730   4.125  14.679  0.00  0.00    +0.000 A 
ATOM     20  C   UNL     1       5.737   3.570  13.384  0.00  0.00    +0.000 A 
ATOM     21  C   UNL     1       6.706   3.981  12.461  0.00  0.00    +0.000 A 
ATOM     22  C   UNL     1       7.651   4.941  12.807  0.00  0.00    +0.000 A 
ATOM     23  C   UNL     1       7.653   5.517  14.079  0.00  0.00    +0.000 A 
ATOM     24  C   UNL     1       6.687   5.088  15.004  0.00  0.00    +0.000 A 
ATOM     25  N   UNL     1       6.461   5.451  16.316  0.00  0.00    +0.000 N 
ATOM     26  C   UNL     1       7.238   6.430  17.054  0.00  0.00    +0.000 C 
ENDBRANCH  15  17
ENDBRANCH  14  15
ENDBRANCH   1  14
TORSDOF 7
ENDMDL
MODEL 2
REMARK VINA RESULT:      -7.7      0.620      1.163
REMARK  Name = 
REMARK  10 active torsions:
REMARK  status: ('A' for Active; 'I' for Inactive)
REMARK    1  A    between atoms: C_1  and  N_2
REMARK    2  A    between atoms: N_2  and  C_3
REMARK    3  A    between atoms: N_2  and  C_4
REMARK    4  A    between atoms: C_4  and  C_5
REMARK    5  A    between atoms: C_5  and  C_6
REMARK    6  A    between atoms: C_6  and  O_7
REMARK    7  A    between atoms: C_6  and  C_20
REMARK    8  A    between atoms: O_7  and  C_8
REMARK    9  A    between atoms: C_8  and  C_10
REMARK   10  A    between atoms: N_18  and  C_19
REMARK                            x       y       z     vdW  Elec       q    Type
REMARK                         _______ _______ _______ _____ _____    ______ ____
ROOT
ATOM      1  C   UNL     1       3.227   5.981  19.272  0.00  0.00    +0.000 C 
ENDROOT
BRANCH   1   2
ATOM      2  C   UNL     1       2.395   7.270  19.267  0.00  0.00    +0.000 A 
ATOM      3  C   UNL     1       2.246   8.062  18.114  0.00  0.00    +0.000 A 
ATOM      4  C   UNL     1       1.512   9.248  18.142  0.00  0.00    +0.000 A 
ATOM      5  C   UNL     1       0.917   9.664  19.327  0.00  0.00    +0.000 A 
ATOM      6 CL   UNL     1       0.027  11.136  19.359  0.00  0.00    +0.000 Cl
ATOM      7  C   UNL     1       1.047   8.899  20.484  0.00  0.00    +0.000 A 
ATOM      8  C   UNL     1       1.780   7.706  20.454  0.00  0.00    +0.000 A 
ENDBRANCH   1   2
BRANCH   1   9
ATOM      9  C   UNL     1       2.463   4.699  18.869  0.00  0.00    +0.000 C 
BRANCH   9  10
ATOM     10  C   UNL     1       2.362   3.639  19.967  0.00  0.00    +0.000 C 
BRANCH  10  12
ATOM     11  C   UNL     1       0.811   2.237  18.711  0.00  0.00    +0.000 C 
ATOM     12  N   UNL     1       2.054   2.283  19.486  0.00  0.00    +0.000 NA
ATOM     13  C   UNL     1       3.165   1.803  18.656  0.00  0.00    +0.000 C 
ENDBRANCH  10  12
ENDBRANCH   9  10
ENDBRANCH   1   9
BRANCH   1  14
ATOM     14  O   UNL     1       4.443   6.158  18.503  0.00  0.00    +0.000 OA
BRANCH  14  15
ATOM     15  C   UNL     1       5.234   5.063  18.345  0.00  0.00    +0.000 C 
ATOM     16  O   UNL     1       5.627   4.348  19.258  0.00  0.00    +0.000 OA
BRANCH  15  17
ATOM     17  C   UNL     1       5.552   4.844  16.953  0.00  0.00    +0.000 A 
ATOM     18  C   UNL     1       4.957   4.014  16.014  0.00  0.00    +0.000 A 
ATOM     19  C   UNL     1       5.673   4.126  14.790  0.00  0.00    +0.000 A 
ATOM     20  C   UNL     1       5.550   3.514  13.526  0.00  0.00    +0.000 A 
ATOM     21  C   UNL     1       6.461   3.834  12.512  0.00  0.00    +0.000 A 
ATOM     22  C   UNL     1       7.475   4.759  12.738  0.00  0.00    +0.000 A 
ATOM     23  C   UNL     1       7.606   5.390  13.977  0.00  0.00    +0.000 A 
ATOM     24  C   UNL     1       6.696   5.052  14.993  0.00  0.00    +0.000 A 
ATOM     25  N   UNL     1       6.593   5.485  16.300  0.00  0.00    +0.000 N 
ATOM     26  C   UNL     1       7.471   6.454  16.927  0.00  0.00    +0.000 C 
ENDBRANCH  15  17
ENDBRANCH  14  15
ENDBRANCH   1  14
TORSDOF 7
ENDMDL
MODEL 3
REMARK VINA RESULT:      -7.6      0.786      1.014
REMARK  Name = 
REMARK  10 active torsions:
REMARK  status: ('A' for Active; 'I' for Inactive)
REMARK    1  A    between atoms: C_1  and  N_2
REMARK    2  A    between atoms: N_2  and  C_3
REMARK    3  A    between atoms: N_2  and  C_4
REMARK    4  A    between atoms: C_4  and  C_5
REMARK    5  A    between atoms: C_5  and  C_6
REMARK    6  A    between atoms: C_6  and  O_7
REMARK    7  A    between atoms: C_6  and  C_20
REMARK    8  A    between atoms: O_7  and  C_8
REMARK    9  A    between atoms: C_8  and  C_10
REMARK   10  A    between atoms: N_18  and  C_19
REMARK                            x       y       z     vdW  Elec       q    Type
REMARK                         _______ _______ _______ _____ _____    ______ ____
ROOT
ATOM      1  C   UNL     1       3.015   5.978  18.753  0.00  0.00    +0.000 C 
ENDROOT
BRANCH   1   2
ATOM      2  C   UNL     1       2.298   7.294  19.079  0.00  0.00    +0.000 A 
ATOM      3  C   UNL     1       1.800   7.578  20.363  0.00  0.00    +0.000 A 
ATOM      4  C   UNL     1       1.121   8.768  20.629  0.00  0.00    +0.000 A 
ATOM      5  C   UNL     1       0.926   9.693  19.611  0.00  0.00    +0.000 A 
ATOM      6 CL   UNL     1       0.074  11.152  19.941  0.00  0.00    +0.000 Cl
ATOM      7  C   UNL     1       1.409   9.439  18.329  0.00  0.00    +0.000 A 
ATOM      8  C   UNL     1       2.095   8.247  18.065  0.00  0.00    +0.000 A 
ENDBRANCH   1   2
BRANCH   1   9
ATOM      9  C   UNL     1       2.162   4.931  18.000  0.00  0.00    +0.000 C 
BRANCH   9  10
ATOM     10  C   UNL     1       2.069   3.566  18.685  0.00  0.00    +0.000 C 
BRANCH  10  12
ATOM     11  C   UNL     1       1.221   3.391  20.965  0.00  0.00    +0.000 C 
ATOM     12  N   UNL     1       2.404   3.574  20.118  0.00  0.00    +0.000 NA
ATOM     13  C   UNL     1       3.371   2.506  20.394  0.00  0.00    +0.000 C 
ENDBRANCH  10  12
ENDBRANCH   9  10
ENDBRANCH   1   9
BRANCH   1  14
ATOM     14  O   UNL     1       4.276   6.237  18.088  0.00  0.00    +0.000 OA
BRANCH  14  15
ATOM     15  C   UNL     1       5.150   5.199  18.004  0.00  0.00    +0.000 C 
ATOM     16  O   UNL     1       5.568   4.558  18.959  0.00  0.00    +0.000 OA
BRANCH  15  17
ATOM     17  C   UNL     1       5.524   4.940  16.632  0.00  0.00    +0.000 A 
ATOM     18  C   UNL     1       4.962   4.089  15.691  0.00  0.00    +0.000 A 
ATOM     19  C   UNL     1       5.729   4.163  14.496  0.00  0.00    +0.000 A 
ATOM     20  C   UNL     1       5.654   3.518  13.244  0.00  0.00    +0.000 A 
ATOM     21  C   UNL     1       6.609   3.804  12.262  0.00  0.00    +0.000 A 
ATOM     22  C   UNL     1       7.620   4.728  12.505  0.00  0.00    +0.000 A 
ATOM     23  C   UNL     1       7.704   5.391  13.731  0.00  0.00    +0.000 A 
ATOM     24  C   UNL     1       6.751   5.087  14.717  0.00  0.00    +0.000 A 
ATOM     25  N   UNL     1       6.597   5.555  16.006  0.00  0.00    +0.000 N 
ATOM     26  C   UNL     1       7.456   6.535  16.644  0.00  0.00    +0.000 C 
ENDBRANCH  15  17
ENDBRANCH  14  15
ENDBRANCH   1  14
TORSDOF 7
ENDMDL
MODEL 4
REMARK VINA RESULT:      -7.4      0.890      1.554
REMARK  Name = 
REMARK  10 active torsions:
REMARK  status: ('A' for Active; 'I' for Inactive)
REMARK    1  A    between atoms: C_1  and  N_2
REMARK    2  A    between atoms: N_2  and  C_3
REMARK    3  A    between atoms: N_2  and  C_4
REMARK    4  A    between atoms: C_4  and  C_5
REMARK    5  A    between atoms: C_5  and  C_6
REMARK    6  A    between atoms: C_6  and  O_7
REMARK    7  A    between atoms: C_6  and  C_20
REMARK    8  A    between atoms: O_7  and  C_8
REMARK    9  A    between atoms: C_8  and  C_10
REMARK   10  A    between atoms: N_18  and  C_19
REMARK                            x       y       z     vdW  Elec       q    Type
REMARK                         _______ _______ _______ _____ _____    ______ ____
ROOT
ATOM      1  C   UNL     1       3.464   5.441  19.135  0.00  0.00    +0.000 C 
ENDROOT
BRANCH   1   2
ATOM      2  C   UNL     1       2.591   6.671  19.413  0.00  0.00    +0.000 A 
ATOM      3  C   UNL     1       2.450   7.716  18.482  0.00  0.00    +0.000 A 
ATOM      4  C   UNL     1       1.677   8.842  18.771  0.00  0.00    +0.000 A 
ATOM      5  C   UNL     1       1.036   8.942  19.999  0.00  0.00    +0.000 A 
ATOM      6 CL   UNL     1       0.098  10.340  20.356  0.00  0.00    +0.000 Cl
ATOM      7  C   UNL     1       1.158   7.922  20.940  0.00  0.00    +0.000 A 
ATOM      8  C   UNL     1       1.929   6.790  20.647  0.00  0.00    +0.000 A 
ENDBRANCH   1   2
BRANCH   1   9
ATOM      9  C   UNL     1       2.705   4.195  18.622  0.00  0.00    +0.000 C 
BRANCH   9  10
ATOM     10  C   UNL     1       2.877   2.940  19.481  0.00  0.00    +0.000 C 
BRANCH  10  12
ATOM     11  C   UNL     1       1.598   2.747  21.548  0.00  0.00    +0.000 C 
ATOM     12  N   UNL     1       1.641   2.454  20.113  0.00  0.00    +0.000 NA
ATOM     13  C   UNL     1       0.486   3.074  19.454  0.00  0.00    +0.000 C 
ENDBRANCH  10  12
ENDBRANCH   9  10
ENDBRANCH   1   9
BRANCH   1  14
ATOM     14  O   UNL     1       4.580   5.792  18.280  0.00  0.00    +0.000 OA
BRANCH  14  15
ATOM     15  C   UNL     1       5.529   4.836  18.086  0.00  0.00    +0.000 C 
ATOM     16  O   UNL     1       6.058   4.187  18.977  0.00  0.00    +0.000 OA
BRANCH  15  17
ATOM     17  C   UNL     1       5.833   4.679  16.681  0.00  0.00    +0.000 A 
ATOM     18  C   UNL     1       5.317   3.798  15.743  0.00  0.00    +0.000 A 
ATOM     19  C   UNL     1       5.979   4.015  14.503  0.00  0.00    +0.000 A 
ATOM     20  C   UNL     1       5.897   3.412  13.231  0.00  0.00    +0.000 A 
ATOM     21  C   UNL     1       6.735   3.855  12.201  0.00  0.00    +0.000 A 
ATOM     22  C   UNL     1       7.635   4.893  12.418  0.00  0.00    +0.000 A 
ATOM     23  C   UNL     1       7.723   5.516  13.665  0.00  0.00    +0.000 A 
ATOM     24  C   UNL     1       6.889   5.055  14.698  0.00  0.00    +0.000 A 
ATOM     25  N   UNL     1       6.770   5.451  16.014  0.00  0.00    +0.000 N 
ATOM     26  C   UNL     1       7.542   6.510  16.637  0.00  0.00    +0.000 C 
ENDBRANCH  15  17
ENDBRANCH  14  15
ENDBRANCH   1  14
TORSDOF 7
ENDMDL
MODEL 5
REMARK VINA RESULT:      -7.4      3.285      7.756
REMARK  Name = 
REMARK  10 active torsions:
REMARK  status: ('A' for Active; 'I' for Inactive)
REMARK    1  A    between atoms: C_1  and  N_2
REMARK    2  A    between atoms: N_2  and  C_3
REMARK    3  A    between atoms: N_2  and  C_4
REMARK    4  A    between atoms: C_4  and  C_5
REMARK    5  A    between atoms: C_5  and  C_6
REMARK    6  A    between atoms: C_6  and  O_7
REMARK    7  A    between atoms: C_6  and  C_20
REMARK    8  A    between atoms: O_7  and  C_8
REMARK    9  A    between atoms: C_8  and  C_10
REMARK   10  A    between atoms: N_18  and  C_19
REMARK                            x       y       z     vdW  Elec       q    Type
REMARK                         _______ _______ _______ _____ _____    ______ ____
ROOT
ATOM      1  C   UNL     1       2.830   6.211  18.674  0.00  0.00    +0.000 C 
ENDROOT
BRANCH   1   2
ATOM      2  C   UNL     1       3.798   5.724  17.588  0.00  0.00    +0.000 A 
ATOM      3  C   UNL     1       4.641   6.603  16.886  0.00  0.00    +0.000 A 
ATOM      4  C   UNL     1       5.489   6.142  15.878  0.00  0.00    +0.000 A 
ATOM      5  C   UNL     1       5.504   4.791  15.554  0.00  0.00    +0.000 A 
ATOM      6 CL   UNL     1       6.539   4.230  14.299  0.00  0.00    +0.000 Cl
ATOM      7  C   UNL     1       4.680   3.896  16.233  0.00  0.00    +0.000 A 
ATOM      8  C   UNL     1       3.833   4.360  17.248  0.00  0.00    +0.000 A 
ENDBRANCH   1   2
BRANCH   1   9
ATOM      9  C   UNL     1       2.829   5.381  19.979  0.00  0.00    +0.000 C 
BRANCH   9  10
ATOM     10  C   UNL     1       1.595   4.497  20.176  0.00  0.00    +0.000 C 
BRANCH  10  12
ATOM     11  C   UNL     1       3.324   2.782  20.311  0.00  0.00    +0.000 C 
ATOM     12  N   UNL     1       1.888   3.067  20.364  0.00  0.00    +0.000 NA
ATOM     13  C   UNL     1       1.351   2.631  21.657  0.00  0.00    +0.000 C 
ENDBRANCH  10  12
ENDBRANCH   9  10
ENDBRANCH   1   9
BRANCH   1  14
ATOM     14  O   UNL     1       3.019   7.626  18.926  0.00  0.00    +0.000 OA
BRANCH  14  15
ATOM     15  C   UNL     1       2.029   8.460  18.511  0.00  0.00    +0.000 C 
ATOM     16  O   UNL     1       1.757   8.694  17.341  0.00  0.00    +0.000 OA
BRANCH  15  17
ATOM     17  C   UNL     1       1.327   9.039  19.634  0.00  0.00    +0.000 A 
ATOM     18  C   UNL     1       0.827   8.446  20.784  0.00  0.00    +0.000 A 
ATOM     19  C   UNL     1       0.177   9.442  21.564  0.00  0.00    +0.000 A 
ATOM     20  C   UNL     1      -0.524   9.424  22.787  0.00  0.00    +0.000 A 
ATOM     21  C   UNL     1      -1.082  10.609  23.280  0.00  0.00    +0.000 A 
ATOM     22  C   UNL     1      -0.939  11.804  22.581  0.00  0.00    +0.000 A 
ATOM     23  C   UNL     1      -0.236  11.848  21.376  0.00  0.00    +0.000 A 
ATOM     24  C   UNL     1       0.310  10.652  20.881  0.00  0.00    +0.000 A 
ATOM     25  N   UNL     1       1.022  10.387  19.729  0.00  0.00    +0.000 N 
ATOM     26  C   UNL     1       1.379  11.373  18.726  0.00  0.00    +0.000 C 
ENDBRANCH  15  17
ENDBRANCH  14  15
ENDBRANCH   1  14
TORSDOF 7
ENDMDL
MODEL 6
REMARK VINA RESULT:      -7.2      0.869      1.197
REMARK  Name = 
REMARK  10 active torsions:
REMARK  status: ('A' for Active; 'I' for Inactive)
REMARK    1  A    between atoms: C_1  and  N_2
REMARK    2  A    between atoms: N_2  and  C_3
REMARK    3  A    between atoms: N_2  and  C_4
REMARK    4  A    between atoms: C_4  and  C_5
REMARK    5  A    between atoms: C_5  and  C_6
REMARK    6  A    between atoms: C_6  and  O_7
REMARK    7  A    between atoms: C_6  and  C_20
REMARK    8  A    between atoms: O_7  and  C_8
REMARK    9  A    between atoms: C_8  and  C_10
REMARK   10  A    between atoms: N_18  and  C_19
REMARK                            x       y       z     vdW  Elec       q    Type
REMARK                         _______ _______ _______ _____ _____    ______ ____
ROOT
ATOM      1  C   UNL     1       3.911   5.168  19.368  0.00  0.00    +0.000 C 
ENDROOT
BRANCH   1   2
ATOM      2  C   UNL     1       3.139   6.481  19.182  0.00  0.00    +0.000 A 
ATOM      3  C   UNL     1       2.285   6.995  20.173  0.00  0.00    +0.000 A 
ATOM      4  C   UNL     1       1.566   8.174  19.969  0.00  0.00    +0.000 A 
ATOM      5  C   UNL     1       1.689   8.857  18.765  0.00  0.00    +0.000 A 
ATOM      6 CL   UNL     1       0.789  10.301  18.512  0.00  0.00    +0.000 Cl
ATOM      7  C   UNL     1       2.529   8.371  17.765  0.00  0.00    +0.000 A 
ATOM      8  C   UNL     1       3.253   7.190  17.973  0.00  0.00    +0.000 A 
ENDBRANCH   1   2
BRANCH   1   9
ATOM      9  C   UNL     1       3.232   4.127  20.288  0.00  0.00    +0.000 C 
BRANCH   9  10
ATOM     10  C   UNL     1       3.050   2.741  19.665  0.00  0.00    +0.000 C 
BRANCH  10  12
ATOM     11  C   UNL     1       0.979   2.795  20.952  0.00  0.00    +0.000 C 
ATOM     12  N   UNL     1       1.717   2.149  19.863  0.00  0.00    +0.000 NA
ATOM     13  C   UNL     1       0.949   2.264  18.618  0.00  0.00    +0.000 C 
ENDBRANCH  10  12
ENDBRANCH   9  10
ENDBRANCH   1   9
BRANCH   1  14
ATOM     14  O   UNL     1       4.276   4.607  18.083  0.00  0.00    +0.000 OA
BRANCH  14  15
ATOM     15  C   UNL     1       5.593   4.332  17.885  0.00  0.00    +0.000 C 
ATOM     16  O   UNL     1       6.402   4.111  18.777  0.00  0.00    +0.000 OA
BRANCH  15  17
ATOM     17  C   UNL     1       5.922   4.328  16.478  0.00  0.00    +0.000 A 
ATOM     18  C   UNL     1       5.513   3.478  15.461  0.00  0.00    +0.000 A 
ATOM     19  C   UNL     1       6.156   3.871  14.254  0.00  0.00    +0.000 A 
ATOM     20  C   UNL     1       6.149   3.372  12.936  0.00  0.00    +0.000 A 
ATOM     21  C   UNL     1       6.939   3.991  11.960  0.00  0.00    +0.000 A 
ATOM     22  C   UNL     1       7.717   5.100  12.277  0.00  0.00    +0.000 A 
ATOM     23  C   UNL     1       7.727   5.620  13.572  0.00  0.00    +0.000 A 
ATOM     24  C   UNL     1       6.943   4.985  14.549  0.00  0.00    +0.000 A 
ATOM     25  N   UNL     1       6.772   5.253  15.892  0.00  0.00    +0.000 N 
ATOM     26  C   UNL     1       7.418   6.333  16.613  0.00  0.00    +0.000 C 
ENDBRANCH  15  17
ENDBRANCH  14  15
ENDBRANCH   1  14
TORSDOF 7
ENDMDL
MODEL 7
REMARK VINA RESULT:      -7.2      3.216      7.750
REMARK  Name = 
REMARK  10 active torsions:
REMARK  status: ('A' for Active; 'I' for Inactive)
REMARK    1  A    between atoms: C_1  and  N_2
REMARK    2  A    between atoms: N_2  and  C_3
REMARK    3  A    between atoms: N_2  and  C_4
REMARK    4  A    between atoms: C_4  and  C_5
REMARK    5  A    between atoms: C_5  and  C_6
REMARK    6  A    between atoms: C_6  and  O_7
REMARK    7  A    between atoms: C_6  and  C_20
REMARK    8  A    between atoms: O_7  and  C_8
REMARK    9  A    between atoms: C_8  and  C_10
REMARK   10  A    between atoms: N_18  and  C_19
REMARK                            x       y       z     vdW  Elec       q    Type
REMARK                         _______ _______ _______ _____ _____    ______ ____
ROOT
ATOM      1  C   UNL     1       2.391   5.578  18.120  0.00  0.00    +0.000 C 
ENDROOT
BRANCH   1   2
ATOM      2  C   UNL     1       3.894   5.286  18.034  0.00  0.00    +0.000 A 
ATOM      3  C   UNL     1       4.507   4.852  16.844  0.00  0.00    +0.000 A 
ATOM      4  C   UNL     1       5.871   4.560  16.798  0.00  0.00    +0.000 A 
ATOM      5  C   UNL     1       6.644   4.693  17.945  0.00  0.00    +0.000 A 
ATOM      6 CL   UNL     1       8.322   4.316  17.886  0.00  0.00    +0.000 Cl
ATOM      7  C   UNL     1       6.064   5.121  19.137  0.00  0.00    +0.000 A 
ATOM      8  C   UNL     1       4.697   5.419  19.181  0.00  0.00    +0.000 A 
ENDBRANCH   1   2
BRANCH   1   9
ATOM      9  C   UNL     1       1.475   4.333  18.126  0.00  0.00    +0.000 C 
BRANCH   9  10
ATOM     10  C   UNL     1       1.069   3.841  19.517  0.00  0.00    +0.000 C 
BRANCH  10  12
ATOM     11  C   UNL     1       1.676   2.652  21.558  0.00  0.00    +0.000 C 
ATOM     12  N   UNL     1       2.142   3.173  20.270  0.00  0.00    +0.000 NA
ATOM     13  C   UNL     1       2.684   2.073  19.465  0.00  0.00    +0.000 C 
ENDBRANCH  10  12
ENDBRANCH   9  10
ENDBRANCH   1   9
BRANCH   1  14
ATOM     14  O   UNL     1       2.109   6.470  19.227  0.00  0.00    +0.000 OA
BRANCH  14  15
ATOM     15  C   UNL     1       2.168   7.805  18.970  0.00  0.00    +0.000 C 
ATOM     16  O   UNL     1       2.779   8.310  18.038  0.00  0.00    +0.000 OA
BRANCH  15  17
ATOM     17  C   UNL     1       1.410   8.559  19.942  0.00  0.00    +0.000 A 
ATOM     18  C   UNL     1       1.262   8.372  21.309  0.00  0.00    +0.000 A 
ATOM     19  C   UNL     1       0.370   9.361  21.808  0.00  0.00    +0.000 A 
ATOM     20  C   UNL     1      -0.165   9.641  23.082  0.00  0.00    +0.000 A 
ATOM     21  C   UNL     1      -1.065  10.702  23.235  0.00  0.00    +0.000 A 
ATOM     22  C   UNL     1      -1.425  11.488  22.145  0.00  0.00    +0.000 A 
ATOM     23  C   UNL     1      -0.895  11.239  20.877  0.00  0.00    +0.000 A 
ATOM     24  C   UNL     1      -0.003  10.163  20.730  0.00  0.00    +0.000 A 
ATOM     25  N   UNL     1       0.650   9.671  19.618  0.00  0.00    +0.000 N 
ATOM     26  C   UNL     1       0.537  10.215  18.278  0.00  0.00    +0.000 C 
ENDBRANCH  15  17
ENDBRANCH  14  15
ENDBRANCH   1  14
TORSDOF 7
ENDMDL
MODEL 8
REMARK VINA RESULT:      -7.1      2.753      7.077
REMARK  Name = 
REMARK  10 active torsions:
REMARK  status: ('A' for Active; 'I' for Inactive)
REMARK    1  A    between atoms: C_1  and  N_2
REMARK    2  A    between atoms: N_2  and  C_3
REMARK    3  A    between atoms: N_2  and  C_4
REMARK    4  A    between atoms: C_4  and  C_5
REMARK    5  A    between atoms: C_5  and  C_6
REMARK    6  A    between atoms: C_6  and  O_7
REMARK    7  A    between atoms: C_6  and  C_20
REMARK    8  A    between atoms: O_7  and  C_8
REMARK    9  A    between atoms: C_8  and  C_10
REMARK   10  A    between atoms: N_18  and  C_19
REMARK                            x       y       z     vdW  Elec       q    Type
REMARK                         _______ _______ _______ _____ _____    ______ ____
ROOT
ATOM      1  C   UNL     1       4.366   4.491  18.215  0.00  0.00    +0.000 C 
ENDROOT
BRANCH   1   2
ATOM      2  C   UNL     1       5.273   4.641  16.987  0.00  0.00    +0.000 A 
ATOM      3  C   UNL     1       6.560   5.201  17.069  0.00  0.00    +0.000 A 
ATOM      4  C   UNL     1       7.354   5.359  15.932  0.00  0.00    +0.000 A 
ATOM      5  C   UNL     1       6.870   4.962  14.692  0.00  0.00    +0.000 A 
ATOM      6 CL   UNL     1       7.847   5.174  13.291  0.00  0.00    +0.000 Cl
ATOM      7  C   UNL     1       5.598   4.404  14.580  0.00  0.00    +0.000 A 
ATOM      8  C   UNL     1       4.804   4.241  15.722  0.00  0.00    +0.000 A 
ENDBRANCH   1   2
BRANCH   1   9
ATOM      9  C   UNL     1       4.989   3.725  19.405  0.00  0.00    +0.000 C 
BRANCH   9  10
ATOM     10  C   UNL     1       4.141   2.568  19.938  0.00  0.00    +0.000 C 
BRANCH  10  12
ATOM     11  C   UNL     1       1.832   2.053  19.345  0.00  0.00    +0.000 C 
ATOM     12  N   UNL     1       2.722   2.893  20.152  0.00  0.00    +0.000 NA
ATOM     13  C   UNL     1       2.397   2.725  21.572  0.00  0.00    +0.000 C 
ENDBRANCH  10  12
ENDBRANCH   9  10
ENDBRANCH   1   9
BRANCH   1  14
ATOM     14  O   UNL     1       3.830   5.778  18.612  0.00  0.00    +0.000 OA
BRANCH  14  15
ATOM     15  C   UNL     1       2.489   5.953  18.472  0.00  0.00    +0.000 C 
ATOM     16  O   UNL     1       1.777   5.316  17.707  0.00  0.00    +0.000 OA
BRANCH  15  17
ATOM     17  C   UNL     1       2.003   6.992  19.352  0.00  0.00    +0.000 A 
ATOM     18  C   UNL     1       1.611   6.934  20.681  0.00  0.00    +0.000 A 
ATOM     19  C   UNL     1       1.168   8.225  21.081  0.00  0.00    +0.000 A 
ATOM     20  C   UNL     1       0.641   8.751  22.278  0.00  0.00    +0.000 A 
ATOM     21  C   UNL     1       0.267  10.099  22.334  0.00  0.00    +0.000 A 
ATOM     22  C   UNL     1       0.423  10.924  21.225  0.00  0.00    +0.000 A 
ATOM     23  C   UNL     1       0.958  10.429  20.034  0.00  0.00    +0.000 A 
ATOM     24  C   UNL     1       1.318   9.072  19.981  0.00  0.00    +0.000 A 
ATOM     25  N   UNL     1       1.839   8.310  18.956  0.00  0.00    +0.000 N 
ATOM     26  C   UNL     1       2.147   8.803  17.627  0.00  0.00    +0.000 C 
ENDBRANCH  15  17
ENDBRANCH  14  15
ENDBRANCH   1  14
TORSDOF 7
ENDMDL
MODEL 9
REMARK VINA RESULT:      -7.1      0.970      2.013
REMARK  Name = 
REMARK  10 active torsions:
REMARK  status: ('A' for Active; 'I' for Inactive)
REMARK    1  A    between atoms: C_1  and  N_2
REMARK    2  A    between atoms: N_2  and  C_3
REMARK    3  A    between atoms: N_2  and  C_4
REMARK    4  A    between atoms: C_4  and  C_5
REMARK    5  A    between atoms: C_5  and  C_6
REMARK    6  A    between atoms: C_6  and  O_7
REMARK    7  A    between atoms: C_6  and  C_20
REMARK    8  A    between atoms: O_7  and  C_8
REMARK    9  A    between atoms: C_8  and  C_10
REMARK   10  A    between atoms: N_18  and  C_19
REMARK                            x       y       z     vdW  Elec       q    Type
REMARK                         _______ _______ _______ _____ _____    ______ ____
ROOT
ATOM      1  C   UNL     1       3.105   6.250  18.859  0.00  0.00    +0.000 C 
ENDROOT
BRANCH   1   2
ATOM      2  C   UNL     1       2.315   7.547  19.076  0.00  0.00    +0.000 A 
ATOM      3  C   UNL     1       2.152   8.504  18.059  0.00  0.00    +0.000 A 
ATOM      4  C   UNL     1       1.458   9.693  18.289  0.00  0.00    +0.000 A 
ATOM      5  C   UNL     1       0.918   9.944  19.544  0.00  0.00    +0.000 A 
ATOM      6 CL   UNL     1       0.077  11.419  19.827  0.00  0.00    +0.000 Cl
ATOM      7  C   UNL     1       1.063   9.014  20.571  0.00  0.00    +0.000 A 
ATOM      8  C   UNL     1       1.756   7.819  20.337  0.00  0.00    +0.000 A 
ENDBRANCH   1   2
BRANCH   1   9
ATOM      9  C   UNL     1       2.265   5.032  18.410  0.00  0.00    +0.000 C 
BRANCH   9  10
ATOM     10  C   UNL     1       1.705   4.181  19.551  0.00  0.00    +0.000 C 
BRANCH  10  12
ATOM     11  C   UNL     1       2.118   3.228  21.758  0.00  0.00    +0.000 C 
ATOM     12  N   UNL     1       2.715   3.685  20.500  0.00  0.00    +0.000 NA
ATOM     13  C   UNL     1       3.456   2.580  19.881  0.00  0.00    +0.000 C 
ENDBRANCH  10  12
ENDBRANCH   9  10
ENDBRANCH   1   9
BRANCH   1  14
ATOM     14  O   UNL     1       4.239   6.485  17.988  0.00  0.00    +0.000 OA
BRANCH  14  15
ATOM     15  C   UNL     1       5.258   5.586  18.051  0.00  0.00    +0.000 C 
ATOM     16  O   UNL     1       5.702   5.106  19.086  0.00  0.00    +0.000 OA
BRANCH  15  17
ATOM     17  C   UNL     1       5.753   5.263  16.732  0.00  0.00    +0.000 A 
ATOM     18  C   UNL     1       6.807   5.801  16.010  0.00  0.00    +0.000 A 
ATOM     19  C   UNL     1       6.857   5.167  14.738  0.00  0.00    +0.000 A 
ATOM     20  C   UNL     1       7.676   5.320  13.601  0.00  0.00    +0.000 A 
ATOM     21  C   UNL     1       7.436   4.536  12.466  0.00  0.00    +0.000 A 
ATOM     22  C   UNL     1       6.407   3.600  12.458  0.00  0.00    +0.000 A 
ATOM     23  C   UNL     1       5.594   3.420  13.578  0.00  0.00    +0.000 A 
ATOM     24  C   UNL     1       5.832   4.221  14.707  0.00  0.00    +0.000 A 
ATOM     25  N   UNL     1       5.191   4.285  15.927  0.00  0.00    +0.000 N 
ATOM     26  C   UNL     1       4.057   3.466  16.315  0.00  0.00    +0.000 C 
ENDBRANCH  15  17
ENDBRANCH  14  15
ENDBRANCH   1  14
TORSDOF 7
ENDMDL
