MODEL 1
REMARK VINA RESULT:      -7.8      0.000      0.000
REMARK  Name = 
REMARK  7 active torsions:
REMARK  status: ('A' for Active; 'I' for Inactive)
REMARK    1  A    between atoms: C_2  and  O_3
REMARK    2  A    between atoms: C_2  and  C_4
REMARK    3  A    between atoms: C_8  and  O_9
REMARK    4  A    between atoms: O_9  and  S_10
REMARK    5  A    between atoms: S_10  and  C_13
REMARK    6  A    between atoms: C_13  and  C_14
REMARK    7  A    between atoms: C_14  and  C_15
REMARK                            x       y       z     vdW  Elec       q    Type
REMARK                         _______ _______ _______ _____ _____    ______ ____
ROOT
ATOM      1  O   UNL     1       6.441   4.636  15.966  0.00  0.00    +0.000 OA
ENDROOT
BRANCH   1   6
ATOM      2  C   UNL     1       6.107   3.541  12.442  0.00  0.00    +0.000 A 
ATOM      3  C   UNL     1       7.114   4.318  11.858  0.00  0.00    +0.000 A 
ATOM      4  C   UNL     1       7.893   5.153  12.658  0.00  0.00    +0.000 A 
ATOM      5  C   UNL     1       7.653   5.229  14.033  0.00  0.00    +0.000 A 
ATOM      6  C   UNL     1       6.617   4.493  14.609  0.00  0.00    +0.000 A 
ATOM      7  C   UNL     1       5.850   3.639  13.816  0.00  0.00    +0.000 A 
BRANCH   2   9
ATOM      8  O   UNL     1       4.176   2.939  11.190  0.00  0.00    +0.000 OA
ATOM      9  C   UNL     1       5.258   2.620  11.646  0.00  0.00    +0.000 C 
BRANCH   9  10
ATOM     10  O   UNL     1       5.776   1.379  11.527  0.00  0.00    +0.000 OA
ATOM     11  H   UNL     1       6.505   1.298  10.884  0.00  0.00    +0.000 HD
ENDBRANCH   9  10
ENDBRANCH   2   9
ENDBRANCH   1   6
BRANCH   1  12
ATOM     12  S   UNL     1       5.502   5.833  16.569  0.00  0.00    +0.000 S 
ATOM     13  O   UNL     1       6.056   6.291  17.828  0.00  0.00    +0.000 OA
ATOM     14  O   UNL     1       5.166   6.755  15.502  0.00  0.00    +0.000 OA
BRANCH  12  15
ATOM     15  C   UNL     1       4.049   4.862  16.916  0.00  0.00    +0.000 C 
BRANCH  15  16
ATOM     16  C   UNL     1       3.100   5.601  17.843  0.00  0.00    +0.000 C 
BRANCH  16  17
ATOM     17  C   UNL     1       2.290   4.667  18.705  0.00  0.00    +0.000 A 
ATOM     18  C   UNL     1       1.711   3.517  18.153  0.00  0.00    +0.000 A 
ATOM     19  C   UNL     1       0.978   2.640  18.955  0.00  0.00    +0.000 A 
ATOM     20  C   UNL     1       0.814   2.908  20.312  0.00  0.00    +0.000 A 
ATOM     21  C   UNL     1       1.381   4.052  20.870  0.00  0.00    +0.000 A 
ATOM     22  C   UNL     1       2.114   4.931  20.070  0.00  0.00    +0.000 A 
ENDBRANCH  16  17
ENDBRANCH  15  16
ENDBRANCH  12  15
ENDBRANCH   1  12
TORSDOF 7
ENDMDL
MODEL 2
REMARK VINA RESULT:      -7.7      0.586      1.203
REMARK  Name = 
REMARK  7 active torsions:
REMARK  status: ('A' for Active; 'I' for Inactive)
REMARK    1  A    between atoms: C_2  and  O_3
REMARK    2  A    between atoms: C_2  and  C_4
REMARK    3  A    between atoms: C_8  and  O_9
REMARK    4  A    between atoms: O_9  and  S_10
REMARK    5  A    between atoms: S_10  and  C_13
REMARK    6  A    between atoms: C_13  and  C_14
REMARK    7  A    between atoms: C_14  and  C_15
REMARK                            x       y       z     vdW  Elec       q    Type
REMARK                         _______ _______ _______ _____ _____    ______ ____
ROOT
ATOM      1  O   UNL     1       5.928   4.808  15.924  0.00  0.00    +0.000 OA
ENDROOT
BRANCH   1   6
ATOM      2  C   UNL     1       6.027   3.503  12.458  0.00  0.00    +0.000 A 
ATOM      3  C   UNL     1       7.144   4.196  11.977  0.00  0.00    +0.000 A 
ATOM      4  C   UNL     1       7.847   5.047  12.830  0.00  0.00    +0.000 A 
ATOM      5  C   UNL     1       7.424   5.223  14.150  0.00  0.00    +0.000 A 
ATOM      6  C   UNL     1       6.282   4.570  14.616  0.00  0.00    +0.000 A 
ATOM      7  C   UNL     1       5.589   3.700  13.774  0.00  0.00    +0.000 A 
BRANCH   2   9
ATOM      8  O   UNL     1       4.179   2.859  11.107  0.00  0.00    +0.000 OA
ATOM      9  C   UNL     1       5.250   2.569  11.606  0.00  0.00    +0.000 C 
BRANCH   9  10
ATOM     10  O   UNL     1       5.819   1.351  11.486  0.00  0.00    +0.000 OA
ATOM     11  H   UNL     1       6.397   1.092  12.227  0.00  0.00    +0.000 HD
ENDBRANCH   9  10
ENDBRANCH   2   9
ENDBRANCH   1   6
BRANCH   1  12
ATOM     12  S   UNL     1       5.496   6.308  16.417  0.00  0.00    +0.000 S 
ATOM     13  O   UNL     1       6.503   6.825  17.322  0.00  0.00    +0.000 OA
ATOM     14  O   UNL     1       5.033   7.068  15.273  0.00  0.00    +0.000 OA
BRANCH  12  15
ATOM     15  C   UNL     1       4.063   5.854  17.374  0.00  0.00    +0.000 C 
BRANCH  15  16
ATOM     16  C   UNL     1       3.957   4.347  17.530  0.00  0.00    +0.000 C 
BRANCH  16  17
ATOM     17  C   UNL     1       2.955   3.944  18.580  0.00  0.00    +0.000 A 
ATOM     18  C   UNL     1       3.135   4.329  19.915  0.00  0.00    +0.000 A 
ATOM     19  C   UNL     1       2.197   3.972  20.885  0.00  0.00    +0.000 A 
ATOM     20  C   UNL     1       1.075   3.227  20.531  0.00  0.00    +0.000 A 
ATOM     21  C   UNL     1       0.890   2.835  19.207  0.00  0.00    +0.000 A 
ATOM     22  C   UNL     1       1.827   3.188  18.234  0.00  0.00    +0.000 A 
ENDBRANCH  16  17
ENDBRANCH  15  16
ENDBRANCH  12  15
ENDBRANCH   1  12
TORSDOF 7
ENDMDL
MODEL 3
REMARK VINA RESULT:      -7.6      0.955      1.650
REMARK  Name = 
REMARK  7 active torsions:
REMARK  status: ('A' for Active; 'I' for Inactive)
REMARK    1  A    between atoms: C_2  and  O_3
REMARK    2  A    between atoms: C_2  and  C_4
REMARK    3  A    between atoms: C_8  and  O_9
REMARK    4  A    between atoms: O_9  and  S_10
REMARK    5  A    between atoms: S_10  and  C_13
REMARK    6  A    between atoms: C_13  and  C_14
REMARK    7  A    between atoms: C_14  and  C_15
REMARK                            x       y       z     vdW  Elec       q    Type
REMARK                         _______ _______ _______ _____ _____    ______ ____
ROOT
ATOM      1  O   UNL     1       5.760   5.140  15.798  0.00  0.00    +0.000 OA
ENDROOT
BRANCH   1   6
ATOM      2  C   UNL     1       6.072   3.530  12.475  0.00  0.00    +0.000 A 
ATOM      3  C   UNL     1       7.220   4.179  12.007  0.00  0.00    +0.000 A 
ATOM      4  C   UNL     1       7.872   5.104  12.823  0.00  0.00    +0.000 A 
ATOM      5  C   UNL     1       7.367   5.396  14.093  0.00  0.00    +0.000 A 
ATOM      6  C   UNL     1       6.194   4.786  14.542  0.00  0.00    +0.000 A 
ATOM      7  C   UNL     1       5.553   3.844  13.738  0.00  0.00    +0.000 A 
BRANCH   2   9
ATOM      8  O   UNL     1       4.245   2.723  11.185  0.00  0.00    +0.000 OA
ATOM      9  C   UNL     1       5.346   2.523  11.662  0.00  0.00    +0.000 C 
BRANCH   9  10
ATOM     10  O   UNL     1       6.001   1.348  11.552  0.00  0.00    +0.000 OA
ATOM     11  H   UNL     1       5.836   0.862  10.722  0.00  0.00    +0.000 HD
ENDBRANCH   9  10
ENDBRANCH   2   9
ENDBRANCH   1   6
BRANCH   1  12
ATOM     12  S   UNL     1       6.805   5.228  17.054  0.00  0.00    +0.000 S 
ATOM     13  O   UNL     1       7.874   4.269  16.858  0.00  0.00    +0.000 OA
ATOM     14  O   UNL     1       7.072   6.621  17.352  0.00  0.00    +0.000 OA
BRANCH  12  15
ATOM     15  C   UNL     1       5.721   4.608  18.326  0.00  0.00    +0.000 C 
BRANCH  15  16
ATOM     16  C   UNL     1       4.474   3.978  17.730  0.00  0.00    +0.000 C 
BRANCH  16  17
ATOM     17  C   UNL     1       3.294   4.038  18.665  0.00  0.00    +0.000 A 
ATOM     18  C   UNL     1       3.326   4.867  19.793  0.00  0.00    +0.000 A 
ATOM     19  C   UNL     1       2.225   4.938  20.649  0.00  0.00    +0.000 A 
ATOM     20  C   UNL     1       1.086   4.179  20.386  0.00  0.00    +0.000 A 
ATOM     21  C   UNL     1       1.047   3.347  19.269  0.00  0.00    +0.000 A 
ATOM     22  C   UNL     1       2.148   3.273  18.412  0.00  0.00    +0.000 A 
ENDBRANCH  16  17
ENDBRANCH  15  16
ENDBRANCH  12  15
ENDBRANCH   1  12
TORSDOF 7
ENDMDL
MODEL 4
REMARK VINA RESULT:      -7.6      1.309      2.014
REMARK  Name = 
REMARK  7 active torsions:
REMARK  status: ('A' for Active; 'I' for Inactive)
REMARK    1  A    between atoms: C_2  and  O_3
REMARK    2  A    between atoms: C_2  and  C_4
REMARK    3  A    between atoms: C_8  and  O_9
REMARK    4  A    between atoms: O_9  and  S_10
REMARK    5  A    between atoms: S_10  and  C_13
REMARK    6  A    between atoms: C_13  and  C_14
REMARK    7  A    between atoms: C_14  and  C_15
REMARK                            x       y       z     vdW  Elec       q    Type
REMARK                         _______ _______ _______ _____ _____    ______ ____
ROOT
ATOM      1  O   UNL     1       5.953   5.262  15.726  0.00  0.00    +0.000 OA
ENDROOT
BRANCH   1   6
ATOM      2  C   UNL     1       6.063   3.558  12.439  0.00  0.00    +0.000 A 
ATOM      3  C   UNL     1       7.199   4.169  11.895  0.00  0.00    +0.000 A 
ATOM      4  C   UNL     1       7.911   5.100  12.652  0.00  0.00    +0.000 A 
ATOM      5  C   UNL     1       7.476   5.437  13.937  0.00  0.00    +0.000 A 
ATOM      6  C   UNL     1       6.316   4.866  14.461  0.00  0.00    +0.000 A 
ATOM      7  C   UNL     1       5.615   3.917  13.716  0.00  0.00    +0.000 A 
BRANCH   2   9
ATOM      8  O   UNL     1       5.718   1.454  11.386  0.00  0.00    +0.000 OA
ATOM      9  C   UNL     1       5.277   2.546  11.691  0.00  0.00    +0.000 C 
BRANCH   9  10
ATOM     10  O   UNL     1       4.048   2.975  11.334  0.00  0.00    +0.000 OA
ATOM     11  H   UNL     1       3.314   2.598  11.854  0.00  0.00    +0.000 HD
ENDBRANCH   9  10
ENDBRANCH   2   9
ENDBRANCH   1   6
BRANCH   1  12
ATOM     12  S   UNL     1       7.083   5.529  16.880  0.00  0.00    +0.000 S 
ATOM     13  O   UNL     1       7.940   4.366  16.991  0.00  0.00    +0.000 OA
ATOM     14  O   UNL     1       7.624   6.864  16.713  0.00  0.00    +0.000 OA
BRANCH  12  15
ATOM     15  C   UNL     1       5.998   5.564  18.292  0.00  0.00    +0.000 C 
BRANCH  15  16
ATOM     16  C   UNL     1       5.561   4.164  18.687  0.00  0.00    +0.000 C 
BRANCH  16  17
ATOM     17  C   UNL     1       4.092   3.929  18.451  0.00  0.00    +0.000 A 
ATOM     18  C   UNL     1       3.249   4.997  18.118  0.00  0.00    +0.000 A 
ATOM     19  C   UNL     1       1.891   4.776  17.878  0.00  0.00    +0.000 A 
ATOM     20  C   UNL     1       1.365   3.490  17.975  0.00  0.00    +0.000 A 
ATOM     21  C   UNL     1       2.195   2.422  18.311  0.00  0.00    +0.000 A 
ATOM     22  C   UNL     1       3.553   2.640  18.552  0.00  0.00    +0.000 A 
ENDBRANCH  16  17
ENDBRANCH  15  16
ENDBRANCH  12  15
ENDBRANCH   1  12
TORSDOF 7
ENDMDL
MODEL 5
REMARK VINA RESULT:      -7.6      1.219      1.551
REMARK  Name = 
REMARK  7 active torsions:
REMARK  status: ('A' for Active; 'I' for Inactive)
REMARK    1  A    between atoms: C_2  and  O_3
REMARK    2  A    between atoms: C_2  and  C_4
REMARK    3  A    between atoms: C_8  and  O_9
REMARK    4  A    between atoms: O_9  and  S_10
REMARK    5  A    between atoms: S_10  and  C_13
REMARK    6  A    between atoms: C_13  and  C_14
REMARK    7  A    between atoms: C_14  and  C_15
REMARK                            x       y       z     vdW  Elec       q    Type
REMARK                         _______ _______ _______ _____ _____    ______ ____
ROOT
ATOM      1  O   UNL     1       6.754   4.620  15.989  0.00  0.00    +0.000 OA
ENDROOT
BRANCH   1   6
ATOM      2  C   UNL     1       6.174   3.579  12.481  0.00  0.00    +0.000 A 
ATOM      3  C   UNL     1       7.094   4.413  11.834  0.00  0.00    +0.000 A 
ATOM      4  C   UNL     1       7.900   5.267  12.586  0.00  0.00    +0.000 A 
ATOM      5  C   UNL     1       7.773   5.305  13.977  0.00  0.00    +0.000 A 
ATOM      6  C   UNL     1       6.822   4.511  14.620  0.00  0.00    +0.000 A 
ATOM      7  C   UNL     1       6.030   3.639  13.873  0.00  0.00    +0.000 A 
BRANCH   2   9
ATOM      8  O   UNL     1       4.186   2.926  11.350  0.00  0.00    +0.000 OA
ATOM      9  C   UNL     1       5.303   2.636  11.737  0.00  0.00    +0.000 C 
BRANCH   9  10
ATOM     10  O   UNL     1       5.847   1.410  11.582  0.00  0.00    +0.000 OA
ATOM     11  H   UNL     1       5.203   0.686  11.474  0.00  0.00    +0.000 HD
ENDBRANCH   9  10
ENDBRANCH   2   9
ENDBRANCH   1   6
BRANCH   1  12
ATOM     12  S   UNL     1       6.409   6.053  16.702  0.00  0.00    +0.000 S 
ATOM     13  O   UNL     1       7.616   6.849  16.791  0.00  0.00    +0.000 OA
ATOM     14  O   UNL     1       5.185   6.581  16.133  0.00  0.00    +0.000 OA
BRANCH  12  15
ATOM     15  C   UNL     1       6.021   5.437  18.329  0.00  0.00    +0.000 C 
BRANCH  15  16
ATOM     16  C   UNL     1       4.578   5.728  18.700  0.00  0.00    +0.000 C 
BRANCH  16  17
ATOM     17  C   UNL     1       3.675   4.542  18.481  0.00  0.00    +0.000 A 
ATOM     18  C   UNL     1       2.330   4.729  18.140  0.00  0.00    +0.000 A 
ATOM     19  C   UNL     1       1.498   3.630  17.917  0.00  0.00    +0.000 A 
ATOM     20  C   UNL     1       2.002   2.337  18.039  0.00  0.00    +0.000 A 
ATOM     21  C   UNL     1       3.337   2.140  18.384  0.00  0.00    +0.000 A 
ATOM     22  C   UNL     1       4.172   3.237  18.608  0.00  0.00    +0.000 A 
ENDBRANCH  16  17
ENDBRANCH  15  16
ENDBRANCH  12  15
ENDBRANCH   1  12
TORSDOF 7
ENDMDL
MODEL 6
REMARK VINA RESULT:      -7.6      0.952      1.500
REMARK  Name = 
REMARK  7 active torsions:
REMARK  status: ('A' for Active; 'I' for Inactive)
REMARK    1  A    between atoms: C_2  and  O_3
REMARK    2  A    between atoms: C_2  and  C_4
REMARK    3  A    between atoms: C_8  and  O_9
REMARK    4  A    between atoms: O_9  and  S_10
REMARK    5  A    between atoms: S_10  and  C_13
REMARK    6  A    between atoms: C_13  and  C_14
REMARK    7  A    between atoms: C_14  and  C_15
REMARK                            x       y       z     vdW  Elec       q    Type
REMARK                         _______ _______ _______ _____ _____    ______ ____
ROOT
ATOM      1  O   UNL     1       5.907   5.290  15.759  0.00  0.00    +0.000 OA
ENDROOT
BRANCH   1   6
ATOM      2  C   UNL     1       6.105   3.587  12.474  0.00  0.00    +0.000 A 
ATOM      3  C   UNL     1       7.256   4.198  11.962  0.00  0.00    +0.000 A 
ATOM      4  C   UNL     1       7.947   5.129  12.738  0.00  0.00    +0.000 A 
ATOM      5  C   UNL     1       7.478   5.466  14.011  0.00  0.00    +0.000 A 
ATOM      6  C   UNL     1       6.304   4.894  14.503  0.00  0.00    +0.000 A 
ATOM      7  C   UNL     1       5.623   3.946  13.740  0.00  0.00    +0.000 A 
BRANCH   2   9
ATOM      8  O   UNL     1       5.802   1.499  11.377  0.00  0.00    +0.000 OA
ATOM      9  C   UNL     1       5.339   2.576  11.705  0.00  0.00    +0.000 C 
BRANCH   9  10
ATOM     10  O   UNL     1       4.102   2.988  11.358  0.00  0.00    +0.000 OA
ATOM     11  H   UNL     1       3.583   2.342  10.842  0.00  0.00    +0.000 HD
ENDBRANCH   9  10
ENDBRANCH   2   9
ENDBRANCH   1   6
BRANCH   1  12
ATOM     12  S   UNL     1       6.925   5.176  17.036  0.00  0.00    +0.000 S 
ATOM     13  O   UNL     1       7.897   4.132  16.784  0.00  0.00    +0.000 OA
ATOM     14  O   UNL     1       7.323   6.509  17.444  0.00  0.00    +0.000 OA
BRANCH  12  15
ATOM     15  C   UNL     1       5.754   4.575  18.237  0.00  0.00    +0.000 C 
BRANCH  15  16
ATOM     16  C   UNL     1       4.435   4.203  17.585  0.00  0.00    +0.000 C 
BRANCH  16  17
ATOM     17  C   UNL     1       3.291   4.181  18.565  0.00  0.00    +0.000 A 
ATOM     18  C   UNL     1       2.169   3.378  18.327  0.00  0.00    +0.000 A 
ATOM     19  C   UNL     1       1.118   3.342  19.245  0.00  0.00    +0.000 A 
ATOM     20  C   UNL     1       1.178   4.111  20.405  0.00  0.00    +0.000 A 
ATOM     21  C   UNL     1       2.288   4.918  20.649  0.00  0.00    +0.000 A 
ATOM     22  C   UNL     1       3.340   4.956  19.732  0.00  0.00    +0.000 A 
ENDBRANCH  16  17
ENDBRANCH  15  16
ENDBRANCH  12  15
ENDBRANCH   1  12
TORSDOF 7
ENDMDL
MODEL 7
REMARK VINA RESULT:      -7.6      1.119      1.437
REMARK  Name = 
REMARK  7 active torsions:
REMARK  status: ('A' for Active; 'I' for Inactive)
REMARK    1  A    between atoms: C_2  and  O_3
REMARK    2  A    between atoms: C_2  and  C_4
REMARK    3  A    between atoms: C_8  and  O_9
REMARK    4  A    between atoms: O_9  and  S_10
REMARK    5  A    between atoms: S_10  and  C_13
REMARK    6  A    between atoms: C_13  and  C_14
REMARK    7  A    between atoms: C_14  and  C_15
REMARK                            x       y       z     vdW  Elec       q    Type
REMARK                         _______ _______ _______ _____ _____    ______ ____
ROOT
ATOM      1  O   UNL     1       7.095   4.822  15.858  0.00  0.00    +0.000 OA
ENDROOT
BRANCH   1   6
ATOM      2  C   UNL     1       6.286   3.681  12.427  0.00  0.00    +0.000 A 
ATOM      3  C   UNL     1       7.157   4.497  11.696  0.00  0.00    +0.000 A 
ATOM      4  C   UNL     1       8.008   5.374  12.368  0.00  0.00    +0.000 A 
ATOM      5  C   UNL     1       7.974   5.452  13.763  0.00  0.00    +0.000 A 
ATOM      6  C   UNL     1       7.071   4.674  14.491  0.00  0.00    +0.000 A 
ATOM      7  C   UNL     1       6.235   3.780  13.823  0.00  0.00    +0.000 A 
BRANCH   2   9
ATOM      8  O   UNL     1       4.252   3.009  11.394  0.00  0.00    +0.000 OA
ATOM      9  C   UNL     1       5.371   2.715  11.770  0.00  0.00    +0.000 C 
BRANCH   9  10
ATOM     10  O   UNL     1       5.879   1.467  11.683  0.00  0.00    +0.000 OA
ATOM     11  H   UNL     1       5.390   0.865  11.091  0.00  0.00    +0.000 HD
ENDBRANCH   9  10
ENDBRANCH   2   9
ENDBRANCH   1   6
BRANCH   1  12
ATOM     12  S   UNL     1       6.367   6.099  16.577  0.00  0.00    +0.000 S 
ATOM     13  O   UNL     1       7.352   7.128  16.842  0.00  0.00    +0.000 OA
ATOM     14  O   UNL     1       5.126   6.388  15.886  0.00  0.00    +0.000 OA
BRANCH  12  15
ATOM     15  C   UNL     1       5.949   5.312  18.121  0.00  0.00    +0.000 C 
BRANCH  15  16
ATOM     16  C   UNL     1       4.527   5.643  18.542  0.00  0.00    +0.000 C 
BRANCH  16  17
ATOM     17  C   UNL     1       3.593   4.472  18.387  0.00  0.00    +0.000 A 
ATOM     18  C   UNL     1       4.100   3.178  18.210  0.00  0.00    +0.000 A 
ATOM     19  C   UNL     1       3.235   2.090  18.087  0.00  0.00    +0.000 A 
ATOM     20  C   UNL     1       1.856   2.285  18.135  0.00  0.00    +0.000 A 
ATOM     21  C   UNL     1       1.341   3.569  18.306  0.00  0.00    +0.000 A 
ATOM     22  C   UNL     1       2.204   4.660  18.428  0.00  0.00    +0.000 A 
ENDBRANCH  16  17
ENDBRANCH  15  16
ENDBRANCH  12  15
ENDBRANCH   1  12
TORSDOF 7
ENDMDL
MODEL 8
REMARK VINA RESULT:      -7.6      0.882      1.045
REMARK  Name = 
REMARK  7 active torsions:
REMARK  status: ('A' for Active; 'I' for Inactive)
REMARK    1  A    between atoms: C_2  and  O_3
REMARK    2  A    between atoms: C_2  and  C_4
REMARK    3  A    between atoms: C_8  and  O_9
REMARK    4  A    between atoms: O_9  and  S_10
REMARK    5  A    between atoms: S_10  and  C_13
REMARK    6  A    between atoms: C_13  and  C_14
REMARK    7  A    between atoms: C_14  and  C_15
REMARK                            x       y       z     vdW  Elec       q    Type
REMARK                         _______ _______ _______ _____ _____    ______ ____
ROOT
ATOM      1  O   UNL     1       6.442   4.752  15.996  0.00  0.00    +0.000 OA
ENDROOT
BRANCH   1   6
ATOM      2  C   UNL     1       6.180   3.588  12.488  0.00  0.00    +0.000 A 
ATOM      3  C   UNL     1       7.156   4.399  11.898  0.00  0.00    +0.000 A 
ATOM      4  C   UNL     1       7.892   5.280  12.689  0.00  0.00    +0.000 A 
ATOM      5  C   UNL     1       7.640   5.367  14.061  0.00  0.00    +0.000 A 
ATOM      6  C   UNL     1       6.633   4.595  14.643  0.00  0.00    +0.000 A 
ATOM      7  C   UNL     1       5.910   3.696  13.858  0.00  0.00    +0.000 A 
BRANCH   2   9
ATOM      8  O   UNL     1       4.273   2.871  11.261  0.00  0.00    +0.000 OA
ATOM      9  C   UNL     1       5.378   2.617  11.702  0.00  0.00    +0.000 C 
BRANCH   9  10
ATOM     10  O   UNL     1       5.968   1.410  11.575  0.00  0.00    +0.000 OA
ATOM     11  H   UNL     1       6.884   1.434  11.242  0.00  0.00    +0.000 HD
ENDBRANCH   9  10
ENDBRANCH   2   9
ENDBRANCH   1   6
BRANCH   1  12
ATOM     12  S   UNL     1       5.439   5.909  16.574  0.00  0.00    +0.000 S 
ATOM     13  O   UNL     1       5.985   6.448  17.803  0.00  0.00    +0.000 OA
ATOM     14  O   UNL     1       5.024   6.766  15.481  0.00  0.00    +0.000 OA
BRANCH  12  15
ATOM     15  C   UNL     1       4.058   4.861  16.986  0.00  0.00    +0.000 C 
BRANCH  15  16
ATOM     16  C   UNL     1       4.432   3.849  18.054  0.00  0.00    +0.000 C 
BRANCH  16  17
ATOM     17  C   UNL     1       3.359   3.688  19.099  0.00  0.00    +0.000 A 
ATOM     18  C   UNL     1       2.131   4.348  18.960  0.00  0.00    +0.000 A 
ATOM     19  C   UNL     1       1.129   4.184  19.919  0.00  0.00    +0.000 A 
ATOM     20  C   UNL     1       1.347   3.365  21.024  0.00  0.00    +0.000 A 
ATOM     21  C   UNL     1       2.568   2.709  21.175  0.00  0.00    +0.000 A 
ATOM     22  C   UNL     1       3.573   2.872  20.218  0.00  0.00    +0.000 A 
ENDBRANCH  16  17
ENDBRANCH  15  16
ENDBRANCH  12  15
ENDBRANCH   1  12
TORSDOF 7
ENDMDL
MODEL 9
REMARK VINA RESULT:      -7.5      0.969      1.299
REMARK  Name = 
REMARK  7 active torsions:
REMARK  status: ('A' for Active; 'I' for Inactive)
REMARK    1  A    between atoms: C_2  and  O_3
REMARK    2  A    between atoms: C_2  and  C_4
REMARK    3  A    between atoms: C_8  and  O_9
REMARK    4  A    between atoms: O_9  and  S_10
REMARK    5  A    between atoms: S_10  and  C_13
REMARK    6  A    between atoms: C_13  and  C_14
REMARK    7  A    between atoms: C_14  and  C_15
REMARK                            x       y       z     vdW  Elec       q    Type
REMARK                         _______ _______ _______ _____ _____    ______ ____
ROOT
ATOM      1  O   UNL     1       5.283   5.241  15.744  0.00  0.00    +0.000 OA
ENDROOT
BRANCH   1   6
ATOM      2  C   UNL     1       5.937   3.515  12.531  0.00  0.00    +0.000 A 
ATOM      3  C   UNL     1       7.179   4.075  12.212  0.00  0.00    +0.000 A 
ATOM      4  C   UNL     1       7.774   4.980  13.091  0.00  0.00    +0.000 A 
ATOM      5  C   UNL     1       7.121   5.342  14.272  0.00  0.00    +0.000 A 
ATOM      6  C   UNL     1       5.860   4.822  14.568  0.00  0.00    +0.000 A 
ATOM      7  C   UNL     1       5.272   3.899  13.703  0.00  0.00    +0.000 A 
BRANCH   2   9
ATOM      8  O   UNL     1       4.173   2.728  11.143  0.00  0.00    +0.000 OA
ATOM      9  C   UNL     1       5.263   2.532  11.647  0.00  0.00    +0.000 C 
BRANCH   9  10
ATOM     10  O   UNL     1       5.949   1.379  11.503  0.00  0.00    +0.000 OA
ATOM     11  H   UNL     1       6.916   1.483  11.429  0.00  0.00    +0.000 HD
ENDBRANCH   9  10
ENDBRANCH   2   9
ENDBRANCH   1   6
BRANCH   1  12
ATOM     12  S   UNL     1       5.489   4.393  17.129  0.00  0.00    +0.000 S 
ATOM     13  O   UNL     1       4.692   3.184  17.075  0.00  0.00    +0.000 OA
ATOM     14  O   UNL     1       6.899   4.365  17.462  0.00  0.00    +0.000 OA
BRANCH  12  15
ATOM     15  C   UNL     1       4.697   5.536  18.243  0.00  0.00    +0.000 C 
BRANCH  15  16
ATOM     16  C   UNL     1       3.195   5.573  18.022  0.00  0.00    +0.000 C 
BRANCH  16  17
ATOM     17  C   UNL     1       2.446   4.705  18.998  0.00  0.00    +0.000 A 
ATOM     18  C   UNL     1       1.521   3.759  18.539  0.00  0.00    +0.000 A 
ATOM     19  C   UNL     1       0.841   2.940  19.442  0.00  0.00    +0.000 A 
ATOM     20  C   UNL     1       1.076   3.062  20.810  0.00  0.00    +0.000 A 
ATOM     21  C   UNL     1       1.991   4.004  21.277  0.00  0.00    +0.000 A 
ATOM     22  C   UNL     1       2.672   4.825  20.376  0.00  0.00    +0.000 A 
ENDBRANCH  16  17
ENDBRANCH  15  16
ENDBRANCH  12  15
ENDBRANCH   1  12
TORSDOF 7
ENDMDL
