MODEL 1
REMARK VINA RESULT:      -7.3      0.000      0.000
REMARK  Name = 
REMARK  4 active torsions:
REMARK  status: ('A' for Active; 'I' for Inactive)
REMARK    1  A    between atoms: C_1  and  S_2
REMARK    2  A    between atoms: S_2  and  C_5
REMARK    3  A    between atoms: C_12  and  C_14
REMARK    4  A    between atoms: C_14  and  N_15
REMARK                            x       y       z     vdW  Elec       q    Type
REMARK                         _______ _______ _______ _____ _____    ______ ____
ROOT
ATOM      1  C   UNL     1      -2.399  12.470  22.141  0.00  0.00    +0.000 A 
ATOM      2  C   UNL     1      -2.592  12.921  20.834  0.00  0.00    +0.000 A 
ATOM      3  C   UNL     1      -1.774  12.439  19.803  0.00  0.00    +0.000 A 
ATOM      4  C   UNL     1      -0.781  11.475  20.089  0.00  0.00    +0.000 A 
ATOM      5  N   UNL     1       0.021  10.812  19.167  0.00  0.00    +0.000 NA
ATOM      6  C   UNL     1       0.707   9.882  19.786  0.00  0.00    +0.000 A 
ATOM      7  N   UNL     1       1.457   8.939  19.136  0.00  0.00    +0.000 N 
ATOM      8  C   UNL     1       1.917   7.763  19.691  0.00  0.00    +0.000 C 
ATOM      9  O   UNL     1       1.683   7.339  20.821  0.00  0.00    +0.000 OA
ATOM     10  S   UNL     1       0.674   9.948  21.491  0.00  0.00    +0.000 S 
ATOM     11  C   UNL     1      -0.592  11.094  21.417  0.00  0.00    +0.000 A 
ATOM     12  C   UNL     1      -1.369  11.589  22.469  0.00  0.00    +0.000 A 
ATOM     13  H   UNL     1       1.569   9.065  18.134  0.00  0.00    +0.000 HD
ENDROOT
BRANCH   1  15
ATOM     14  C   UNL     1      -4.938  13.571  22.524  0.00  0.00    +0.000 C 
ATOM     15  S   UNL     1      -3.524  12.977  23.424  0.00  0.00    +0.000 S 
ATOM     16  O   UNL     1      -2.893  14.086  24.122  0.00  0.00    +0.000 OA
ATOM     17  O   UNL     1      -3.939  11.784  24.141  0.00  0.00    +0.000 OA
ENDBRANCH   1  15
BRANCH   8  18
ATOM     18  C   UNL     1       2.735   6.900  18.726  0.00  0.00    +0.000 C 
BRANCH  18  19
ATOM     19  N   UNL     1       2.656   5.447  19.020  0.00  0.00    +0.000 NA
ATOM     20  C   UNL     1       2.129   4.697  17.869  0.00  0.00    +0.000 C 
ATOM     21  C   UNL     1       1.373   3.452  18.342  0.00  0.00    +0.000 C 
ATOM     22  C   UNL     1       2.247   2.269  18.743  0.00  0.00    +0.000 C 
ATOM     23  C   UNL     1       3.284   2.574  19.819  0.00  0.00    +0.000 C 
ATOM     24  C   UNL     1       4.362   3.526  19.321  0.00  0.00    +0.000 C 
ATOM     25  C   UNL     1       4.001   5.009  19.441  0.00  0.00    +0.000 C 
ENDBRANCH  18  19
ENDBRANCH   8  18
TORSDOF 3
ENDMDL
MODEL 2
REMARK VINA RESULT:      -7.2      1.758      2.244
REMARK  Name = 
REMARK  4 active torsions:
REMARK  status: ('A' for Active; 'I' for Inactive)
REMARK    1  A    between atoms: C_1  and  S_2
REMARK    2  A    between atoms: S_2  and  C_5
REMARK    3  A    between atoms: C_12  and  C_14
REMARK    4  A    between atoms: C_14  and  N_15
REMARK                            x       y       z     vdW  Elec       q    Type
REMARK                         _______ _______ _______ _____ _____    ______ ____
ROOT
ATOM      1  C   UNL     1      -1.446  12.088  21.989  0.00  0.00    +0.000 A 
ATOM      2  C   UNL     1      -1.181  11.296  23.107  0.00  0.00    +0.000 A 
ATOM      3  C   UNL     1      -0.503  10.079  22.953  0.00  0.00    +0.000 A 
ATOM      4  C   UNL     1      -0.066   9.678  21.671  0.00  0.00    +0.000 A 
ATOM      5  N   UNL     1       0.720   8.571  21.371  0.00  0.00    +0.000 NA
ATOM      6  C   UNL     1       1.053   8.612  20.103  0.00  0.00    +0.000 A 
ATOM      7  N   UNL     1       1.965   7.763  19.536  0.00  0.00    +0.000 N 
ATOM      8  C   UNL     1       2.595   7.962  18.325  0.00  0.00    +0.000 C 
ATOM      9  O   UNL     1       2.495   8.946  17.594  0.00  0.00    +0.000 OA
ATOM     10  S   UNL     1       0.222   9.762  19.155  0.00  0.00    +0.000 S 
ATOM     11  C   UNL     1      -0.400  10.478  20.578  0.00  0.00    +0.000 A 
ATOM     12  C   UNL     1      -1.108  11.677  20.700  0.00  0.00    +0.000 A 
ATOM     13  H   UNL     1       2.290   6.997  20.117  0.00  0.00    +0.000 HD
ENDROOT
BRANCH   1  15
ATOM     14  C   UNL     1      -1.449  14.292  23.707  0.00  0.00    +0.000 C 
ATOM     15  S   UNL     1      -2.184  13.695  22.201  0.00  0.00    +0.000 S 
ATOM     16  O   UNL     1      -3.607  13.480  22.409  0.00  0.00    +0.000 OA
ATOM     17  O   UNL     1      -1.708  14.543  21.123  0.00  0.00    +0.000 OA
ENDBRANCH   1  15
BRANCH   8  18
ATOM     18  C   UNL     1       3.566   6.844  17.939  0.00  0.00    +0.000 C 
BRANCH  18  19
ATOM     19  N   UNL     1       3.261   5.545  18.588  0.00  0.00    +0.000 NA
ATOM     20  C   UNL     1       2.464   4.680  17.703  0.00  0.00    +0.000 C 
ATOM     21  C   UNL     1       1.558   3.760  18.529  0.00  0.00    +0.000 C 
ATOM     22  C   UNL     1       2.245   2.543  19.139  0.00  0.00    +0.000 C 
ATOM     23  C   UNL     1       3.449   2.861  20.020  0.00  0.00    +0.000 C 
ATOM     24  C   UNL     1       4.610   3.430  19.218  0.00  0.00    +0.000 C 
ATOM     25  C   UNL     1       4.546   4.943  18.996  0.00  0.00    +0.000 C 
ENDBRANCH  18  19
ENDBRANCH   8  18
TORSDOF 3
ENDMDL
MODEL 3
REMARK VINA RESULT:      -7.1      2.109      3.166
REMARK  Name = 
REMARK  4 active torsions:
REMARK  status: ('A' for Active; 'I' for Inactive)
REMARK    1  A    between atoms: C_1  and  S_2
REMARK    2  A    between atoms: S_2  and  C_5
REMARK    3  A    between atoms: C_12  and  C_14
REMARK    4  A    between atoms: C_14  and  N_15
REMARK                            x       y       z     vdW  Elec       q    Type
REMARK                         _______ _______ _______ _____ _____    ______ ____
ROOT
ATOM      1  C   UNL     1      -0.860  11.424  21.169  0.00  0.00    +0.000 A 
ATOM      2  C   UNL     1      -0.661  11.794  19.838  0.00  0.00    +0.000 A 
ATOM      3  C   UNL     1       0.193  11.036  19.025  0.00  0.00    +0.000 A 
ATOM      4  C   UNL     1       0.822   9.885  19.550  0.00  0.00    +0.000 A 
ATOM      5  N   UNL     1       1.591   8.966  18.846  0.00  0.00    +0.000 NA
ATOM      6  C   UNL     1       1.872   7.953  19.630  0.00  0.00    +0.000 A 
ATOM      7  N   UNL     1       2.465   6.800  19.188  0.00  0.00    +0.000 N 
ATOM      8  C   UNL     1       2.480   5.599  19.867  0.00  0.00    +0.000 C 
ATOM      9  O   UNL     1       1.921   5.347  20.933  0.00  0.00    +0.000 OA
ATOM     10  S   UNL     1       1.514   8.172  21.284  0.00  0.00    +0.000 S 
ATOM     11  C   UNL     1       0.633   9.586  20.900  0.00  0.00    +0.000 A 
ATOM     12  C   UNL     1      -0.184  10.348  21.741  0.00  0.00    +0.000 A 
ATOM     13  H   UNL     1       2.805   6.806  18.231  0.00  0.00    +0.000 HD
ENDROOT
BRANCH   1  15
ATOM     14  C   UNL     1      -1.198  13.808  22.587  0.00  0.00    +0.000 C 
ATOM     15  S   UNL     1      -2.048  12.305  22.161  0.00  0.00    +0.000 S 
ATOM     16  O   UNL     1      -2.263  11.513  23.361  0.00  0.00    +0.000 OA
ATOM     17  O   UNL     1      -3.159  12.667  21.298  0.00  0.00    +0.000 OA
ENDBRANCH   1  15
BRANCH   8  18
ATOM     18  C   UNL     1       3.221   4.480  19.132  0.00  0.00    +0.000 C 
BRANCH  18  19
ATOM     19  N   UNL     1       4.248   4.974  18.182  0.00  0.00    +0.000 NA
ATOM     20  C   UNL     1       5.601   4.866  18.752  0.00  0.00    +0.000 C 
ATOM     21  C   UNL     1       6.507   5.967  18.193  0.00  0.00    +0.000 C 
ATOM     22  C   UNL     1       7.053   5.715  16.792  0.00  0.00    +0.000 C 
ATOM     23  C   UNL     1       5.992   5.454  15.729  0.00  0.00    +0.000 C 
ATOM     24  C   UNL     1       5.265   4.136  15.957  0.00  0.00    +0.000 C 
ATOM     25  C   UNL     1       4.081   4.225  16.921  0.00  0.00    +0.000 C 
ENDBRANCH  18  19
ENDBRANCH   8  18
TORSDOF 3
ENDMDL
MODEL 4
REMARK VINA RESULT:      -7.1      2.710      9.357
REMARK  Name = 
REMARK  4 active torsions:
REMARK  status: ('A' for Active; 'I' for Inactive)
REMARK    1  A    between atoms: C_1  and  S_2
REMARK    2  A    between atoms: S_2  and  C_5
REMARK    3  A    between atoms: C_12  and  C_14
REMARK    4  A    between atoms: C_14  and  N_15
REMARK                            x       y       z     vdW  Elec       q    Type
REMARK                         _______ _______ _______ _____ _____    ______ ____
ROOT
ATOM      1  C   UNL     1       3.096   6.384  19.021  0.00  0.00    +0.000 A 
ATOM      2  C   UNL     1       3.225   7.243  17.928  0.00  0.00    +0.000 A 
ATOM      3  C   UNL     1       2.507   8.446  17.899  0.00  0.00    +0.000 A 
ATOM      4  C   UNL     1       1.681   8.795  18.990  0.00  0.00    +0.000 A 
ATOM      5  N   UNL     1       1.006   9.998  19.168  0.00  0.00    +0.000 NA
ATOM      6  C   UNL     1       0.475  10.018  20.367  0.00  0.00    +0.000 A 
ATOM      7  N   UNL     1      -0.106  11.130  20.916  0.00  0.00    +0.000 N 
ATOM      8  C   UNL     1      -0.374  11.311  22.257  0.00  0.00    +0.000 C 
ATOM      9  O   UNL     1      -0.085  10.547  23.177  0.00  0.00    +0.000 OA
ATOM     10  S   UNL     1       0.480   8.531  21.205  0.00  0.00    +0.000 S 
ATOM     11  C   UNL     1       1.544   7.881  20.035  0.00  0.00    +0.000 A 
ATOM     12  C   UNL     1       2.220   6.658  20.070  0.00  0.00    +0.000 A 
ATOM     13  H   UNL     1      -0.227  11.927  20.298  0.00  0.00    +0.000 HD
ENDROOT
BRANCH   1  15
ATOM     14  C   UNL     1       4.097   4.297  17.456  0.00  0.00    +0.000 C 
ATOM     15  S   UNL     1       4.111   4.925  19.121  0.00  0.00    +0.000 S 
ATOM     16  O   UNL     1       3.421   3.992  19.996  0.00  0.00    +0.000 OA
ATOM     17  O   UNL     1       5.469   5.352  19.409  0.00  0.00    +0.000 OA
ENDBRANCH   1  15
BRANCH   8  18
ATOM     18  C   UNL     1      -1.031  12.654  22.583  0.00  0.00    +0.000 C 
BRANCH  18  19
ATOM     19  N   UNL     1      -2.509  12.579  22.696  0.00  0.00    +0.000 NA
ATOM     20  C   UNL     1      -2.988  13.263  23.908  0.00  0.00    +0.000 C 
ATOM     21  C   UNL     1      -4.274  12.606  24.420  0.00  0.00    +0.000 C 
ATOM     22  C   UNL     1      -5.546  12.988  23.672  0.00  0.00    +0.000 C 
ATOM     23  C   UNL     1      -5.506  12.735  22.169  0.00  0.00    +0.000 C 
ATOM     24  C   UNL     1      -4.514  13.647  21.461  0.00  0.00    +0.000 C 
ATOM     25  C   UNL     1      -3.075  13.128  21.448  0.00  0.00    +0.000 C 
ENDBRANCH  18  19
ENDBRANCH   8  18
TORSDOF 3
ENDMDL
MODEL 5
REMARK VINA RESULT:      -7.0      2.018      2.972
REMARK  Name = 
REMARK  4 active torsions:
REMARK  status: ('A' for Active; 'I' for Inactive)
REMARK    1  A    between atoms: C_1  and  S_2
REMARK    2  A    between atoms: S_2  and  C_5
REMARK    3  A    between atoms: C_12  and  C_14
REMARK    4  A    between atoms: C_14  and  N_15
REMARK                            x       y       z     vdW  Elec       q    Type
REMARK                         _______ _______ _______ _____ _____    ______ ____
ROOT
ATOM      1  C   UNL     1      -1.463  11.795  21.271  0.00  0.00    +0.000 A 
ATOM      2  C   UNL     1      -1.194  12.295  19.995  0.00  0.00    +0.000 A 
ATOM      3  C   UNL     1      -0.248  11.655  19.182  0.00  0.00    +0.000 A 
ATOM      4  C   UNL     1       0.403  10.491  19.648  0.00  0.00    +0.000 A 
ATOM      5  N   UNL     1       1.266   9.677  18.922  0.00  0.00    +0.000 NA
ATOM      6  C   UNL     1       1.545   8.610  19.631  0.00  0.00    +0.000 A 
ATOM      7  N   UNL     1       2.226   7.531  19.133  0.00  0.00    +0.000 N 
ATOM      8  C   UNL     1       2.258   6.275  19.702  0.00  0.00    +0.000 C 
ATOM      9  O   UNL     1       1.642   5.900  20.698  0.00  0.00    +0.000 OA
ATOM     10  S   UNL     1       1.064   8.659  21.267  0.00  0.00    +0.000 S 
ATOM     11  C   UNL     1       0.139  10.060  20.948  0.00  0.00    +0.000 A 
ATOM     12  C   UNL     1      -0.772  10.702  21.792  0.00  0.00    +0.000 A 
ATOM     13  H   UNL     1       2.630   7.641  18.207  0.00  0.00    +0.000 HD
ENDROOT
BRANCH   1  15
ATOM     14  C   UNL     1      -2.109  14.125  22.672  0.00  0.00    +0.000 C 
ATOM     15  S   UNL     1      -2.761  12.525  22.248  0.00  0.00    +0.000 S 
ATOM     16  O   UNL     1      -2.885  11.718  23.451  0.00  0.00    +0.000 OA
ATOM     17  O   UNL     1      -3.900  12.741  21.374  0.00  0.00    +0.000 OA
ENDBRANCH   1  15
BRANCH   8  18
ATOM     18  C   UNL     1       3.105   5.263  18.925  0.00  0.00    +0.000 C 
BRANCH  18  19
ATOM     19  N   UNL     1       4.476   5.745  18.625  0.00  0.00    +0.000 NA
ATOM     20  C   UNL     1       5.493   4.790  19.092  0.00  0.00    +0.000 C 
ATOM     21  C   UNL     1       6.782   5.524  19.473  0.00  0.00    +0.000 C 
ATOM     22  C   UNL     1       7.671   5.935  18.304  0.00  0.00    +0.000 C 
ATOM     23  C   UNL     1       6.984   6.796  17.249  0.00  0.00    +0.000 C 
ATOM     24  C   UNL     1       5.911   6.026  16.492  0.00  0.00    +0.000 C 
ATOM     25  C   UNL     1       4.542   6.012  17.175  0.00  0.00    +0.000 C 
ENDBRANCH  18  19
ENDBRANCH   8  18
TORSDOF 3
ENDMDL
MODEL 6
REMARK VINA RESULT:      -7.0      1.653      2.094
REMARK  Name = 
REMARK  4 active torsions:
REMARK  status: ('A' for Active; 'I' for Inactive)
REMARK    1  A    between atoms: C_1  and  S_2
REMARK    2  A    between atoms: S_2  and  C_5
REMARK    3  A    between atoms: C_12  and  C_14
REMARK    4  A    between atoms: C_14  and  N_15
REMARK                            x       y       z     vdW  Elec       q    Type
REMARK                         _______ _______ _______ _____ _____    ______ ____
ROOT
ATOM      1  C   UNL     1      -1.472  12.458  21.558  0.00  0.00    +0.000 A 
ATOM      2  C   UNL     1      -1.179  11.778  22.741  0.00  0.00    +0.000 A 
ATOM      3  C   UNL     1      -0.492  10.557  22.692  0.00  0.00    +0.000 A 
ATOM      4  C   UNL     1      -0.076  10.038  21.445  0.00  0.00    +0.000 A 
ATOM      5  N   UNL     1       0.715   8.913  21.238  0.00  0.00    +0.000 NA
ATOM      6  C   UNL     1       1.024   8.835  19.966  0.00  0.00    +0.000 A 
ATOM      7  N   UNL     1       1.933   7.943  19.465  0.00  0.00    +0.000 N 
ATOM      8  C   UNL     1       2.538   8.029  18.228  0.00  0.00    +0.000 C 
ATOM      9  O   UNL     1       2.415   8.938  17.408  0.00  0.00    +0.000 OA
ATOM     10  S   UNL     1       0.164   9.882  18.928  0.00  0.00    +0.000 S 
ATOM     11  C   UNL     1      -0.437  10.727  20.288  0.00  0.00    +0.000 A 
ATOM     12  C   UNL     1      -1.154  11.927  20.308  0.00  0.00    +0.000 A 
ATOM     13  H   UNL     1       2.276   7.238  20.111  0.00  0.00    +0.000 HD
ENDROOT
BRANCH   1  15
ATOM     14  C   UNL     1      -3.850  13.801  20.969  0.00  0.00    +0.000 C 
ATOM     15  S   UNL     1      -2.221  14.072  21.629  0.00  0.00    +0.000 S 
ATOM     16  O   UNL     1      -1.467  14.925  20.725  0.00  0.00    +0.000 OA
ATOM     17  O   UNL     1      -2.377  14.422  23.030  0.00  0.00    +0.000 OA
ENDBRANCH   1  15
BRANCH   8  18
ATOM     18  C   UNL     1       3.512   6.886  17.932  0.00  0.00    +0.000 C 
BRANCH  18  19
ATOM     19  N   UNL     1       3.169   5.621  18.627  0.00  0.00    +0.000 NA
ATOM     20  C   UNL     1       2.381   4.731  17.759  0.00  0.00    +0.000 C 
ATOM     21  C   UNL     1       1.439   3.861  18.598  0.00  0.00    +0.000 C 
ATOM     22  C   UNL     1       2.089   2.661  19.277  0.00  0.00    +0.000 C 
ATOM     23  C   UNL     1       3.274   2.998  20.176  0.00  0.00    +0.000 C 
ATOM     24  C   UNL     1       4.466   3.514  19.382  0.00  0.00    +0.000 C 
ATOM     25  C   UNL     1       4.432   5.017  19.095  0.00  0.00    +0.000 C 
ENDBRANCH  18  19
ENDBRANCH   8  18
TORSDOF 3
ENDMDL
MODEL 7
REMARK VINA RESULT:      -7.0      2.030      3.064
REMARK  Name = 
REMARK  4 active torsions:
REMARK  status: ('A' for Active; 'I' for Inactive)
REMARK    1  A    between atoms: C_1  and  S_2
REMARK    2  A    between atoms: S_2  and  C_5
REMARK    3  A    between atoms: C_12  and  C_14
REMARK    4  A    between atoms: C_14  and  N_15
REMARK                            x       y       z     vdW  Elec       q    Type
REMARK                         _______ _______ _______ _____ _____    ______ ____
ROOT
ATOM      1  C   UNL     1      -0.806  11.682  20.683  0.00  0.00    +0.000 A 
ATOM      2  C   UNL     1      -0.407  12.025  19.389  0.00  0.00    +0.000 A 
ATOM      3  C   UNL     1       0.499  11.207  18.701  0.00  0.00    +0.000 A 
ATOM      4  C   UNL     1       0.978  10.025  19.309  0.00  0.00    +0.000 A 
ATOM      5  N   UNL     1       1.776   9.053  18.717  0.00  0.00    +0.000 NA
ATOM      6  C   UNL     1       1.885   8.032  19.534  0.00  0.00    +0.000 A 
ATOM      7  N   UNL     1       2.459   6.841  19.179  0.00  0.00    +0.000 N 
ATOM      8  C   UNL     1       2.308   5.649  19.856  0.00  0.00    +0.000 C 
ATOM      9  O   UNL     1       1.596   5.443  20.838  0.00  0.00    +0.000 OA
ATOM     10  S   UNL     1       1.323   8.291  21.124  0.00  0.00    +0.000 S 
ATOM     11  C   UNL     1       0.591   9.753  20.621  0.00  0.00    +0.000 A 
ATOM     12  C   UNL     1      -0.282  10.572  21.343  0.00  0.00    +0.000 A 
ATOM     13  H   UNL     1       2.924   6.815  18.276  0.00  0.00    +0.000 HD
ENDROOT
BRANCH   1  15
ATOM     14  C   UNL     1      -3.418  12.620  20.355  0.00  0.00    +0.000 C 
ATOM     15  S   UNL     1      -2.060  12.645  21.504  0.00  0.00    +0.000 S 
ATOM     16  O   UNL     1      -1.544  13.999  21.615  0.00  0.00    +0.000 OA
ATOM     17  O   UNL     1      -2.479  11.907  22.682  0.00  0.00    +0.000 OA
ENDBRANCH   1  15
BRANCH   8  18
ATOM     18  C   UNL     1       3.069   4.478  19.230  0.00  0.00    +0.000 C 
BRANCH  18  19
ATOM     19  N   UNL     1       4.196   4.900  18.363  0.00  0.00    +0.000 NA
ATOM     20  C   UNL     1       5.494   4.607  18.991  0.00  0.00    +0.000 C 
ATOM     21  C   UNL     1       6.549   5.624  18.544  0.00  0.00    +0.000 C 
ATOM     22  C   UNL     1       7.139   5.387  17.159  0.00  0.00    +0.000 C 
ATOM     23  C   UNL     1       6.116   5.307  16.031  0.00  0.00    +0.000 C 
ATOM     24  C   UNL     1       5.235   4.071  16.144  0.00  0.00    +0.000 C 
ATOM     25  C   UNL     1       4.016   4.244  17.053  0.00  0.00    +0.000 C 
ENDBRANCH  18  19
ENDBRANCH   8  18
TORSDOF 3
ENDMDL
MODEL 8
REMARK VINA RESULT:      -6.9      2.098      3.149
REMARK  Name = 
REMARK  4 active torsions:
REMARK  status: ('A' for Active; 'I' for Inactive)
REMARK    1  A    between atoms: C_1  and  S_2
REMARK    2  A    between atoms: S_2  and  C_5
REMARK    3  A    between atoms: C_12  and  C_14
REMARK    4  A    between atoms: C_14  and  N_15
REMARK                            x       y       z     vdW  Elec       q    Type
REMARK                         _______ _______ _______ _____ _____    ______ ____
ROOT
ATOM      1  C   UNL     1      -0.908  11.833  20.797  0.00  0.00    +0.000 A 
ATOM      2  C   UNL     1      -0.603  12.223  19.491  0.00  0.00    +0.000 A 
ATOM      3  C   UNL     1       0.278  11.450  18.722  0.00  0.00    +0.000 A 
ATOM      4  C   UNL     1       0.826  10.266  19.263  0.00  0.00    +0.000 A 
ATOM      5  N   UNL     1       1.610   9.334  18.593  0.00  0.00    +0.000 NA
ATOM      6  C   UNL     1       1.798   8.294  19.371  0.00  0.00    +0.000 A 
ATOM      7  N   UNL     1       2.379   7.130  18.945  0.00  0.00    +0.000 N 
ATOM      8  C   UNL     1       2.304   5.915  19.595  0.00  0.00    +0.000 C 
ATOM      9  O   UNL     1       1.662   5.662  20.614  0.00  0.00    +0.000 OA
ATOM     10  S   UNL     1       1.333   8.493  21.000  0.00  0.00    +0.000 S 
ATOM     11  C   UNL     1       0.533   9.946  20.589  0.00  0.00    +0.000 A 
ATOM     12  C   UNL     1      -0.313  10.720  21.389  0.00  0.00    +0.000 A 
ATOM     13  H   UNL     1       2.785   7.143  18.014  0.00  0.00    +0.000 HD
ENDROOT
BRANCH   1  15
ATOM     14  C   UNL     1      -2.260  11.819  23.242  0.00  0.00    +0.000 C 
ATOM     15  S   UNL     1      -2.131  12.737  21.724  0.00  0.00    +0.000 S 
ATOM     16  O   UNL     1      -3.379  12.633  20.987  0.00  0.00    +0.000 OA
ATOM     17  O   UNL     1      -1.564  14.034  22.052  0.00  0.00    +0.000 OA
ENDBRANCH   1  15
BRANCH   8  18
ATOM     18  C   UNL     1       3.054   4.784  18.887  0.00  0.00    +0.000 C 
BRANCH  18  19
ATOM     19  N   UNL     1       4.389   5.186  18.379  0.00  0.00    +0.000 NA
ATOM     20  C   UNL     1       5.468   4.590  19.183  0.00  0.00    +0.000 C 
ATOM     21  C   UNL     1       6.698   5.503  19.187  0.00  0.00    +0.000 C 
ATOM     22  C   UNL     1       7.564   5.440  17.934  0.00  0.00    +0.000 C 
ATOM     23  C   UNL     1       6.826   5.724  16.630  0.00  0.00    +0.000 C 
ATOM     24  C   UNL     1       5.817   4.635  16.295  0.00  0.00    +0.000 C 
ATOM     25  C   UNL     1       4.447   4.817  16.951  0.00  0.00    +0.000 C 
ENDBRANCH  18  19
ENDBRANCH   8  18
TORSDOF 3
ENDMDL
MODEL 9
REMARK VINA RESULT:      -6.9      2.470      3.677
REMARK  Name = 
REMARK  4 active torsions:
REMARK  status: ('A' for Active; 'I' for Inactive)
REMARK    1  A    between atoms: C_1  and  S_2
REMARK    2  A    between atoms: S_2  and  C_5
REMARK    3  A    between atoms: C_12  and  C_14
REMARK    4  A    between atoms: C_14  and  N_15
REMARK                            x       y       z     vdW  Elec       q    Type
REMARK                         _______ _______ _______ _____ _____    ______ ____
ROOT
ATOM      1  C   UNL     1       0.052  10.980  20.628  0.00  0.00    +0.000 A 
ATOM      2  C   UNL     1       0.212  11.443  19.320  0.00  0.00    +0.000 A 
ATOM      3  C   UNL     1       0.909  10.664  18.386  0.00  0.00    +0.000 A 
ATOM      4  C   UNL     1       1.417   9.402  18.767  0.00  0.00    +0.000 A 
ATOM      5  N   UNL     1       2.017   8.464  17.934  0.00  0.00    +0.000 NA
ATOM      6  C   UNL     1       2.214   7.357  18.608  0.00  0.00    +0.000 A 
ATOM      7  N   UNL     1       2.626   6.186  18.030  0.00  0.00    +0.000 N 
ATOM      8  C   UNL     1       2.531   4.935  18.604  0.00  0.00    +0.000 C 
ATOM      9  O   UNL     1       2.013   4.657  19.685  0.00  0.00    +0.000 OA
ATOM     10  S   UNL     1       1.993   7.467  20.296  0.00  0.00    +0.000 S 
ATOM     11  C   UNL     1       1.278   9.006  20.097  0.00  0.00    +0.000 A 
ATOM     12  C   UNL     1       0.620   9.782  21.057  0.00  0.00    +0.000 A 
ATOM     13  H   UNL     1       2.903   6.238  17.054  0.00  0.00    +0.000 HD
ENDROOT
BRANCH   1  15
ATOM     14  C   UNL     1      -1.212  10.759  23.110  0.00  0.00    +0.000 C 
ATOM     15  S   UNL     1      -0.948  11.905  21.775  0.00  0.00    +0.000 S 
ATOM     16  O   UNL     1      -2.213  12.172  21.109  0.00  0.00    +0.000 OA
ATOM     17  O   UNL     1      -0.134  12.990  22.293  0.00  0.00    +0.000 OA
ENDBRANCH   1  15
BRANCH   8  18
ATOM     18  C   UNL     1       3.075   3.806  17.726  0.00  0.00    +0.000 C 
BRANCH  18  19
ATOM     19  N   UNL     1       4.527   3.921  17.445  0.00  0.00    +0.000 NA
ATOM     20  C   UNL     1       4.771   4.549  16.137  0.00  0.00    +0.000 C 
ATOM     21  C   UNL     1       6.076   4.028  15.527  0.00  0.00    +0.000 C 
ATOM     22  C   UNL     1       7.352   4.644  16.087  0.00  0.00    +0.000 C 
ATOM     23  C   UNL     1       7.510   4.527  17.599  0.00  0.00    +0.000 C 
ATOM     24  C   UNL     1       6.478   5.358  18.349  0.00  0.00    +0.000 C 
ATOM     25  C   UNL     1       5.139   4.652  18.572  0.00  0.00    +0.000 C 
ENDBRANCH  18  19
ENDBRANCH   8  18
TORSDOF 3
ENDMDL
