MODEL 1
REMARK VINA RESULT:      -6.1      0.000      0.000
REMARK  Name = 
REMARK  2 active torsions:
REMARK  status: ('A' for Active; 'I' for Inactive)
REMARK    1  A    between atoms: C_1  and  N_2
REMARK    2  A    between atoms: C_6  and  O_7
REMARK                            x       y       z     vdW  Elec       q    Type
REMARK                         _______ _______ _______ _____ _____    ______ ____
ROOT
ATOM      1  C   UNL     1       2.483   7.322  18.770  0.00  0.00    +0.000 C 
ATOM      2  N   UNL     1       3.083   6.026  18.481  0.00  0.00    +0.000 N 
ATOM      3  C   UNL     1       4.133   5.985  17.567  0.00  0.00    +0.000 C 
ATOM      4  O   UNL     1       4.701   6.994  17.147  0.00  0.00    +0.000 OA
ATOM      5  C   UNL     1       4.451   4.640  16.971  0.00  0.00    +0.000 C 
ATOM      6  C   UNL     1       4.396   3.512  17.974  0.00  0.00    +0.000 C 
ATOM      7  C   UNL     1       3.256   3.632  18.943  0.00  0.00    +0.000 A 
ATOM      8  C   UNL     1       2.852   2.495  19.667  0.00  0.00    +0.000 A 
ATOM      9  C   UNL     1       1.812   2.569  20.587  0.00  0.00    +0.000 A 
ATOM     10  C   UNL     1       1.165   3.780  20.797  0.00  0.00    +0.000 A 
ATOM     11  C   UNL     1       1.567   4.918  20.089  0.00  0.00    +0.000 A 
ATOM     12  C   UNL     1       2.617   4.863  19.159  0.00  0.00    +0.000 A 
ENDROOT
BRANCH   6  13
ATOM     13  O   UNL     1       5.638   3.417  18.674  0.00  0.00    +0.000 OA
ATOM     14  H   UNL     1       5.894   4.315  18.944  0.00  0.00    +0.000 HD
ENDBRANCH   6  13
TORSDOF 1
ENDMDL
MODEL 2
REMARK VINA RESULT:      -6.1      2.209      4.614
REMARK  Name = 
REMARK  2 active torsions:
REMARK  status: ('A' for Active; 'I' for Inactive)
REMARK    1  A    between atoms: C_1  and  N_2
REMARK    2  A    between atoms: C_6  and  O_7
REMARK                            x       y       z     vdW  Elec       q    Type
REMARK                         _______ _______ _______ _____ _____    ______ ____
ROOT
ATOM      1  C   UNL     1       4.459   2.133  20.078  0.00  0.00    +0.000 C 
ATOM      2  N   UNL     1       3.531   3.255  20.022  0.00  0.00    +0.000 N 
ATOM      3  C   UNL     1       2.500   3.294  20.957  0.00  0.00    +0.000 C 
ATOM      4  O   UNL     1       2.449   2.547  21.935  0.00  0.00    +0.000 OA
ATOM      5  C   UNL     1       1.336   4.192  20.635  0.00  0.00    +0.000 C 
ATOM      6  C   UNL     1       1.749   5.519  20.043  0.00  0.00    +0.000 C 
ATOM      7  C   UNL     1       2.881   5.407  19.063  0.00  0.00    +0.000 A 
ATOM      8  C   UNL     1       3.113   6.464  18.164  0.00  0.00    +0.000 A 
ATOM      9  C   UNL     1       4.161   6.407  17.252  0.00  0.00    +0.000 A 
ATOM     10  C   UNL     1       4.992   5.294  17.230  0.00  0.00    +0.000 A 
ATOM     11  C   UNL     1       4.775   4.243  18.127  0.00  0.00    +0.000 A 
ATOM     12  C   UNL     1       3.723   4.285  19.056  0.00  0.00    +0.000 A 
ENDROOT
BRANCH   6  13
ATOM     13  O   UNL     1       2.081   6.439  21.085  0.00  0.00    +0.000 OA
ATOM     14  H   UNL     1       1.514   6.238  21.848  0.00  0.00    +0.000 HD
ENDBRANCH   6  13
TORSDOF 1
ENDMDL
MODEL 3
REMARK VINA RESULT:      -6.0      2.018      4.586
REMARK  Name = 
REMARK  2 active torsions:
REMARK  status: ('A' for Active; 'I' for Inactive)
REMARK    1  A    between atoms: C_1  and  N_2
REMARK    2  A    between atoms: C_6  and  O_7
REMARK                            x       y       z     vdW  Elec       q    Type
REMARK                         _______ _______ _______ _____ _____    ______ ____
ROOT
ATOM      1  C   UNL     1       3.534   1.624  18.154  0.00  0.00    +0.000 C 
ATOM      2  N   UNL     1       3.137   2.996  18.442  0.00  0.00    +0.000 N 
ATOM      3  C   UNL     1       2.215   3.205  19.465  0.00  0.00    +0.000 C 
ATOM      4  O   UNL     1       1.873   2.323  20.253  0.00  0.00    +0.000 OA
ATOM      5  C   UNL     1       1.511   4.535  19.470  0.00  0.00    +0.000 C 
ATOM      6  C   UNL     1       2.421   5.697  19.146  0.00  0.00    +0.000 C 
ATOM      7  C   UNL     1       3.406   5.394  18.054  0.00  0.00    +0.000 A 
ATOM      8  C   UNL     1       4.039   6.461  17.392  0.00  0.00    +0.000 A 
ATOM      9  C   UNL     1       4.971   6.224  16.387  0.00  0.00    +0.000 A 
ATOM     10  C   UNL     1       5.282   4.917  16.035  0.00  0.00    +0.000 A 
ATOM     11  C   UNL     1       4.664   3.849  16.695  0.00  0.00    +0.000 A 
ATOM     12  C   UNL     1       3.724   4.071  17.714  0.00  0.00    +0.000 A 
ENDROOT
BRANCH   6  13
ATOM     13  O   UNL     1       3.101   6.131  20.326  0.00  0.00    +0.000 OA
ATOM     14  H   UNL     1       3.103   5.390  20.954  0.00  0.00    +0.000 HD
ENDBRANCH   6  13
TORSDOF 1
ENDMDL
MODEL 4
REMARK VINA RESULT:      -5.9      2.121      3.980
REMARK  Name = 
REMARK  2 active torsions:
REMARK  status: ('A' for Active; 'I' for Inactive)
REMARK    1  A    between atoms: C_1  and  N_2
REMARK    2  A    between atoms: C_6  and  O_7
REMARK                            x       y       z     vdW  Elec       q    Type
REMARK                         _______ _______ _______ _____ _____    ______ ____
ROOT
ATOM      1  C   UNL     1       3.875   3.654  17.217  0.00  0.00    +0.000 C 
ATOM      2  N   UNL     1       3.033   3.673  18.406  0.00  0.00    +0.000 N 
ATOM      3  C   UNL     1       2.710   2.452  18.992  0.00  0.00    +0.000 C 
ATOM      4  O   UNL     1       3.249   1.390  18.679  0.00  0.00    +0.000 OA
ATOM      5  C   UNL     1       1.533   2.450  19.930  0.00  0.00    +0.000 C 
ATOM      6  C   UNL     1       1.487   3.657  20.837  0.00  0.00    +0.000 C 
ATOM      7  C   UNL     1       1.872   4.934  20.147  0.00  0.00    +0.000 A 
ATOM      8  C   UNL     1       1.514   6.162  20.735  0.00  0.00    +0.000 A 
ATOM      9  C   UNL     1       1.867   7.367  20.137  0.00  0.00    +0.000 A 
ATOM     10  C   UNL     1       2.583   7.359  18.947  0.00  0.00    +0.000 A 
ATOM     11  C   UNL     1       2.952   6.143  18.361  0.00  0.00    +0.000 A 
ATOM     12  C   UNL     1       2.607   4.917  18.953  0.00  0.00    +0.000 A 
ENDROOT
BRANCH   6  13
ATOM     13  O   UNL     1       2.313   3.441  21.984  0.00  0.00    +0.000 OA
ATOM     14  H   UNL     1       3.114   3.980  21.876  0.00  0.00    +0.000 HD
ENDBRANCH   6  13
TORSDOF 1
ENDMDL
MODEL 5
REMARK VINA RESULT:      -5.9      2.008      3.867
REMARK  Name = 
REMARK  2 active torsions:
REMARK  status: ('A' for Active; 'I' for Inactive)
REMARK    1  A    between atoms: C_1  and  N_2
REMARK    2  A    between atoms: C_6  and  O_7
REMARK                            x       y       z     vdW  Elec       q    Type
REMARK                         _______ _______ _______ _____ _____    ______ ____
ROOT
ATOM      1  C   UNL     1       2.338   6.921  19.586  0.00  0.00    +0.000 C 
ATOM      2  N   UNL     1       2.699   5.602  19.084  0.00  0.00    +0.000 N 
ATOM      3  C   UNL     1       2.091   4.494  19.669  0.00  0.00    +0.000 C 
ATOM      4  O   UNL     1       1.135   4.579  20.441  0.00  0.00    +0.000 OA
ATOM      5  C   UNL     1       2.763   3.166  19.448  0.00  0.00    +0.000 C 
ATOM      6  C   UNL     1       3.272   2.979  18.038  0.00  0.00    +0.000 C 
ATOM      7  C   UNL     1       3.892   4.218  17.460  0.00  0.00    +0.000 A 
ATOM      8  C   UNL     1       4.734   4.102  16.339  0.00  0.00    +0.000 A 
ATOM      9  C   UNL     1       5.314   5.227  15.763  0.00  0.00    +0.000 A 
ATOM     10  C   UNL     1       5.055   6.482  16.299  0.00  0.00    +0.000 A 
ATOM     11  C   UNL     1       4.211   6.609  17.406  0.00  0.00    +0.000 A 
ATOM     12  C   UNL     1       3.615   5.484  17.999  0.00  0.00    +0.000 A 
ENDROOT
BRANCH   6  13
ATOM     13  O   UNL     1       2.219   2.508  17.194  0.00  0.00    +0.000 OA
ATOM     14  H   UNL     1       1.420   2.425  17.739  0.00  0.00    +0.000 HD
ENDBRANCH   6  13
TORSDOF 1
ENDMDL
MODEL 6
REMARK VINA RESULT:      -5.9      2.167      3.862
REMARK  Name = 
REMARK  2 active torsions:
REMARK  status: ('A' for Active; 'I' for Inactive)
REMARK    1  A    between atoms: C_1  and  N_2
REMARK    2  A    between atoms: C_6  and  O_7
REMARK                            x       y       z     vdW  Elec       q    Type
REMARK                         _______ _______ _______ _____ _____    ______ ____
ROOT
ATOM      1  C   UNL     1       1.854   5.808  20.511  0.00  0.00    +0.000 C 
ATOM      2  N   UNL     1       2.365   4.666  19.765  0.00  0.00    +0.000 N 
ATOM      3  C   UNL     1       1.928   3.397  20.140  0.00  0.00    +0.000 C 
ATOM      4  O   UNL     1       0.999   3.210  20.926  0.00  0.00    +0.000 OA
ATOM      5  C   UNL     1       2.758   2.236  19.664  0.00  0.00    +0.000 C 
ATOM      6  C   UNL     1       3.234   2.382  18.238  0.00  0.00    +0.000 C 
ATOM      7  C   UNL     1       3.665   3.779  17.895  0.00  0.00    +0.000 A 
ATOM      8  C   UNL     1       4.472   3.985  16.762  0.00  0.00    +0.000 A 
ATOM      9  C   UNL     1       4.879   5.265  16.400  0.00  0.00    +0.000 A 
ATOM     10  C   UNL     1       4.480   6.354  17.165  0.00  0.00    +0.000 A 
ATOM     11  C   UNL     1       3.668   6.159  18.288  0.00  0.00    +0.000 A 
ATOM     12  C   UNL     1       3.246   4.874  18.666  0.00  0.00    +0.000 A 
ENDROOT
BRANCH   6  13
ATOM     13  O   UNL     1       2.220   1.937  17.334  0.00  0.00    +0.000 OA
ATOM     14  H   UNL     1       1.829   2.724  16.920  0.00  0.00    +0.000 HD
ENDBRANCH   6  13
TORSDOF 1
ENDMDL
MODEL 7
REMARK VINA RESULT:      -5.8      1.669      1.916
REMARK  Name = 
REMARK  2 active torsions:
REMARK  status: ('A' for Active; 'I' for Inactive)
REMARK    1  A    between atoms: C_1  and  N_2
REMARK    2  A    between atoms: C_6  and  O_7
REMARK                            x       y       z     vdW  Elec       q    Type
REMARK                         _______ _______ _______ _____ _____    ______ ____
ROOT
ATOM      1  C   UNL     1       3.383   7.738  17.634  0.00  0.00    +0.000 C 
ATOM      2  N   UNL     1       4.117   6.507  17.371  0.00  0.00    +0.000 N 
ATOM      3  C   UNL     1       5.451   6.614  16.987  0.00  0.00    +0.000 C 
ATOM      4  O   UNL     1       6.087   7.667  17.046  0.00  0.00    +0.000 OA
ATOM      5  C   UNL     1       6.057   5.405  16.326  0.00  0.00    +0.000 C 
ATOM      6  C   UNL     1       5.653   4.102  16.974  0.00  0.00    +0.000 C 
ATOM      7  C   UNL     1       4.209   4.064  17.386  0.00  0.00    +0.000 A 
ATOM      8  C   UNL     1       3.604   2.820  17.640  0.00  0.00    +0.000 A 
ATOM      9  C   UNL     1       2.274   2.744  18.041  0.00  0.00    +0.000 A 
ATOM     10  C   UNL     1       1.536   3.910  18.196  0.00  0.00    +0.000 A 
ATOM     11  C   UNL     1       2.133   5.152  17.956  0.00  0.00    +0.000 A 
ATOM     12  C   UNL     1       3.475   5.248  17.553  0.00  0.00    +0.000 A 
ENDROOT
BRANCH   6  13
ATOM     13  O   UNL     1       6.498   3.827  18.093  0.00  0.00    +0.000 OA
ATOM     14  H   UNL     1       7.272   4.410  18.028  0.00  0.00    +0.000 HD
ENDBRANCH   6  13
TORSDOF 1
ENDMDL
MODEL 8
REMARK VINA RESULT:      -5.8      2.482      3.383
REMARK  Name = 
REMARK  2 active torsions:
REMARK  status: ('A' for Active; 'I' for Inactive)
REMARK    1  A    between atoms: C_1  and  N_2
REMARK    2  A    between atoms: C_6  and  O_7
REMARK                            x       y       z     vdW  Elec       q    Type
REMARK                         _______ _______ _______ _____ _____    ______ ____
ROOT
ATOM      1  C   UNL     1       7.003   7.034  17.123  0.00  0.00    +0.000 C 
ATOM      2  N   UNL     1       6.128   5.873  17.023  0.00  0.00    +0.000 N 
ATOM      3  C   UNL     1       6.695   4.664  16.629  0.00  0.00    +0.000 C 
ATOM      4  O   UNL     1       7.910   4.483  16.552  0.00  0.00    +0.000 OA
ATOM      5  C   UNL     1       5.743   3.609  16.131  0.00  0.00    +0.000 C 
ATOM      6  C   UNL     1       4.473   3.516  16.943  0.00  0.00    +0.000 C 
ATOM      7  C   UNL     1       3.931   4.855  17.356  0.00  0.00    +0.000 A 
ATOM      8  C   UNL     1       2.590   4.950  17.768  0.00  0.00    +0.000 A 
ATOM      9  C   UNL     1       2.055   6.168  18.175  0.00  0.00    +0.000 A 
ATOM     10  C   UNL     1       2.855   7.303  18.176  0.00  0.00    +0.000 A 
ATOM     11  C   UNL     1       4.193   7.215  17.778  0.00  0.00    +0.000 A 
ATOM     12  C   UNL     1       4.750   5.994  17.367  0.00  0.00    +0.000 A 
ENDROOT
BRANCH   6  13
ATOM     13  O   UNL     1       4.682   2.688  18.089  0.00  0.00    +0.000 OA
ATOM     14  H   UNL     1       3.820   2.322  18.348  0.00  0.00    +0.000 HD
ENDBRANCH   6  13
TORSDOF 1
ENDMDL
MODEL 9
REMARK VINA RESULT:      -5.7      1.301      1.796
REMARK  Name = 
REMARK  2 active torsions:
REMARK  status: ('A' for Active; 'I' for Inactive)
REMARK    1  A    between atoms: C_1  and  N_2
REMARK    2  A    between atoms: C_6  and  O_7
REMARK                            x       y       z     vdW  Elec       q    Type
REMARK                         _______ _______ _______ _____ _____    ______ ____
ROOT
ATOM      1  C   UNL     1       4.346   7.033  17.098  0.00  0.00    +0.000 C 
ATOM      2  N   UNL     1       4.164   5.668  17.574  0.00  0.00    +0.000 N 
ATOM      3  C   UNL     1       4.871   4.656  16.932  0.00  0.00    +0.000 C 
ATOM      4  O   UNL     1       5.776   4.873  16.125  0.00  0.00    +0.000 OA
ATOM      5  C   UNL     1       4.369   3.252  17.139  0.00  0.00    +0.000 C 
ATOM      6  C   UNL     1       3.947   2.970  18.562  0.00  0.00    +0.000 C 
ATOM      7  C   UNL     1       3.212   4.113  19.202  0.00  0.00    +0.000 A 
ATOM      8  C   UNL     1       2.438   3.869  20.351  0.00  0.00    +0.000 A 
ATOM      9  C   UNL     1       1.756   4.903  20.984  0.00  0.00    +0.000 A 
ATOM     10  C   UNL     1       1.843   6.193  20.477  0.00  0.00    +0.000 A 
ATOM     11  C   UNL     1       2.618   6.447  19.340  0.00  0.00    +0.000 A 
ATOM     12  C   UNL     1       3.316   5.416  18.691  0.00  0.00    +0.000 A 
ENDROOT
BRANCH   6  13
ATOM     13  O   UNL     1       5.083   2.605  19.348  0.00  0.00    +0.000 OA
ATOM     14  H   UNL     1       4.756   2.178  20.157  0.00  0.00    +0.000 HD
ENDBRANCH   6  13
TORSDOF 1
ENDMDL
