MODEL 1
REMARK VINA RESULT:      -7.8      0.000      0.000
REMARK  Name = 
REMARK  6 active torsions:
REMARK  status: ('A' for Active; 'I' for Inactive)
REMARK    1  A    between atoms: C_1  and  C_2
REMARK    2  A    between atoms: C_6  and  S_7
REMARK    3  A    between atoms: S_7  and  N_10
REMARK    4  A    between atoms: N_13  and  C_14
REMARK    5  A    between atoms: C_14  and  C_15
REMARK    6  A    between atoms: C_15  and  C_18
REMARK                            x       y       z     vdW  Elec       q    Type
REMARK                         _______ _______ _______ _____ _____    ______ ____
ROOT
ATOM      1  N   UNL     1       3.186   4.779  17.539  0.00  0.00    +0.000 NA
ATOM      2  C   UNL     1       3.421   5.881  18.506  0.00  0.00    +0.000 C 
ATOM      3  C   UNL     1       4.608   5.555  19.437  0.00  0.00    +0.000 C 
ATOM      4  N   UNL     1       5.801   4.924  18.825  0.00  0.00    +0.000 NA
ATOM      5  C   UNL     1       5.532   4.096  17.638  0.00  0.00    +0.000 C 
ATOM      6  C   UNL     1       4.402   4.577  16.727  0.00  0.00    +0.000 C 
ENDROOT
BRANCH   1   7
ATOM      7  S   UNL     1       2.319   3.398  18.031  0.00  0.00    +0.000 S 
ATOM      8  O   UNL     1       2.992   2.235  17.488  0.00  0.00    +0.000 OA
ATOM      9  O   UNL     1       0.923   3.659  17.743  0.00  0.00    +0.000 OA
BRANCH   7  15
ATOM     10  C   UNL     1       4.608   1.947  20.434  0.00  0.00    +0.000 C 
ATOM     11  C   UNL     1       3.248   2.518  20.591  0.00  0.00    +0.000 A 
ATOM     12  N   UNL     1       2.638   2.499  21.819  0.00  0.00    +0.000 N 
ATOM     13  N   UNL     1       1.398   2.997  21.827  0.00  0.00    +0.000 NA
ATOM     14  C   UNL     1       1.187   3.329  20.554  0.00  0.00    +0.000 A 
ATOM     15  C   UNL     1       2.313   3.107  19.740  0.00  0.00    +0.000 A 
ATOM     16  H   UNL     1       3.008   2.128  22.689  0.00  0.00    +0.000 HD
ENDBRANCH   7  15
ENDBRANCH   1   7
BRANCH   4  17
ATOM     17  C   UNL     1       6.937   5.862  18.703  0.00  0.00    +0.000 C 
BRANCH  17  18
ATOM     18  C   UNL     1       6.977   6.800  17.469  0.00  0.00    +0.000 C 
ATOM     19  F   UNL     1       7.264   6.084  16.345  0.00  0.00    +0.000 F 
ATOM     20  F   UNL     1       5.747   7.354  17.260  0.00  0.00    +0.000 F 
BRANCH  18  21
ATOM     21  C   UNL     1       7.975   7.922  17.644  0.00  0.00    +0.000 C 
ATOM     22  F   UNL     1       7.329   9.118  17.702  0.00  0.00    +0.000 F 
ATOM     23  F   UNL     1       8.656   7.800  18.811  0.00  0.00    +0.000 F 
ENDBRANCH  18  21
ENDBRANCH  17  18
ENDBRANCH   4  17
TORSDOF 5
ENDMDL
MODEL 2
REMARK VINA RESULT:      -7.4      4.043      6.403
REMARK  Name = 
REMARK  6 active torsions:
REMARK  status: ('A' for Active; 'I' for Inactive)
REMARK    1  A    between atoms: C_1  and  C_2
REMARK    2  A    between atoms: C_6  and  S_7
REMARK    3  A    between atoms: S_7  and  N_10
REMARK    4  A    between atoms: N_13  and  C_14
REMARK    5  A    between atoms: C_14  and  C_15
REMARK    6  A    between atoms: C_15  and  C_18
REMARK                            x       y       z     vdW  Elec       q    Type
REMARK                         _______ _______ _______ _____ _____    ______ ____
ROOT
ATOM      1  N   UNL     1       5.074   5.529  16.437  0.00  0.00    +0.000 NA
ATOM      2  C   UNL     1       4.246   4.334  16.138  0.00  0.00    +0.000 C 
ATOM      3  C   UNL     1       4.000   3.499  17.413  0.00  0.00    +0.000 C 
ATOM      4  N   UNL     1       3.702   4.236  18.664  0.00  0.00    +0.000 NA
ATOM      5  C   UNL     1       4.290   5.582  18.753  0.00  0.00    +0.000 C 
ATOM      6  C   UNL     1       4.382   6.362  17.440  0.00  0.00    +0.000 C 
ENDROOT
BRANCH   1   7
ATOM      7  S   UNL     1       6.765   5.371  16.563  0.00  0.00    +0.000 S 
ATOM      8  O   UNL     1       7.330   5.575  15.245  0.00  0.00    +0.000 OA
ATOM      9  O   UNL     1       7.014   4.150  17.305  0.00  0.00    +0.000 OA
BRANCH   7  15
ATOM     10  C   UNL     1       8.186   5.518  19.892  0.00  0.00    +0.000 C 
ATOM     11  C   UNL     1       8.052   6.548  18.832  0.00  0.00    +0.000 A 
ATOM     12  N   UNL     1       8.468   7.832  19.074  0.00  0.00    +0.000 N 
ATOM     13  N   UNL     1       8.252   8.680  18.064  0.00  0.00    +0.000 NA
ATOM     14  C   UNL     1       7.653   7.925  17.144  0.00  0.00    +0.000 A 
ATOM     15  C   UNL     1       7.543   6.578  17.534  0.00  0.00    +0.000 A 
ATOM     16  H   UNL     1       8.880   8.200  19.926  0.00  0.00    +0.000 HD
ENDBRANCH   7  15
ENDBRANCH   1   7
BRANCH   4  17
ATOM     17  C   UNL     1       2.280   4.135  19.054  0.00  0.00    +0.000 C 
BRANCH  17  18
ATOM     18  C   UNL     1       1.836   2.895  19.873  0.00  0.00    +0.000 C 
ATOM     19  F   UNL     1       0.474   2.811  19.895  0.00  0.00    +0.000 F 
ATOM     20  F   UNL     1       2.274   1.752  19.269  0.00  0.00    +0.000 F 
BRANCH  18  21
ATOM     21  C   UNL     1       2.381   2.923  21.282  0.00  0.00    +0.000 C 
ATOM     22  F   UNL     1       2.329   4.188  21.780  0.00  0.00    +0.000 F 
ATOM     23  F   UNL     1       1.635   2.155  22.116  0.00  0.00    +0.000 F 
ENDBRANCH  18  21
ENDBRANCH  17  18
ENDBRANCH   4  17
TORSDOF 5
ENDMDL
MODEL 3
REMARK VINA RESULT:      -7.4      3.702      6.108
REMARK  Name = 
REMARK  6 active torsions:
REMARK  status: ('A' for Active; 'I' for Inactive)
REMARK    1  A    between atoms: C_1  and  C_2
REMARK    2  A    between atoms: C_6  and  S_7
REMARK    3  A    between atoms: S_7  and  N_10
REMARK    4  A    between atoms: N_13  and  C_14
REMARK    5  A    between atoms: C_14  and  C_15
REMARK    6  A    between atoms: C_15  and  C_18
REMARK                            x       y       z     vdW  Elec       q    Type
REMARK                         _______ _______ _______ _____ _____    ______ ____
ROOT
ATOM      1  N   UNL     1       4.268   5.082  16.786  0.00  0.00    +0.000 NA
ATOM      2  C   UNL     1       3.777   3.716  17.094  0.00  0.00    +0.000 C 
ATOM      3  C   UNL     1       4.138   3.311  18.539  0.00  0.00    +0.000 C 
ATOM      4  N   UNL     1       3.984   4.340  19.594  0.00  0.00    +0.000 NA
ATOM      5  C   UNL     1       4.155   5.730  19.142  0.00  0.00    +0.000 C 
ATOM      6  C   UNL     1       3.659   6.041  17.729  0.00  0.00    +0.000 C 
ENDROOT
BRANCH   1   7
ATOM      7  S   UNL     1       5.900   5.314  16.359  0.00  0.00    +0.000 S 
ATOM      8  O   UNL     1       5.975   6.487  15.512  0.00  0.00    +0.000 OA
ATOM      9  O   UNL     1       6.398   4.030  15.907  0.00  0.00    +0.000 OA
BRANCH   7  15
ATOM     10  C   UNL     1       7.604   8.276  17.560  0.00  0.00    +0.000 C 
ATOM     11  C   UNL     1       7.587   6.879  18.060  0.00  0.00    +0.000 A 
ATOM     12  N   UNL     1       8.359   6.533  19.140  0.00  0.00    +0.000 N 
ATOM     13  N   UNL     1       8.297   5.238  19.468  0.00  0.00    +0.000 NA
ATOM     14  C   UNL     1       7.476   4.723  18.555  0.00  0.00    +0.000 A 
ATOM     15  C   UNL     1       6.957   5.695  17.680  0.00  0.00    +0.000 A 
ATOM     16  H   UNL     1       8.976   7.132  19.678  0.00  0.00    +0.000 HD
ENDBRANCH   7  15
ENDBRANCH   1   7
BRANCH   4  17
ATOM     17  C   UNL     1       2.813   4.091  20.460  0.00  0.00    +0.000 C 
BRANCH  17  18
ATOM     18  C   UNL     1       1.406   4.126  19.810  0.00  0.00    +0.000 C 
ATOM     19  F   UNL     1       0.549   4.851  20.585  0.00  0.00    +0.000 F 
ATOM     20  F   UNL     1       1.460   4.768  18.607  0.00  0.00    +0.000 F 
BRANCH  18  21
ATOM     21  C   UNL     1       0.855   2.737  19.578  0.00  0.00    +0.000 C 
ATOM     22  F   UNL     1       0.847   2.453  18.248  0.00  0.00    +0.000 F 
ATOM     23  F   UNL     1       1.634   1.793  20.165  0.00  0.00    +0.000 F 
ENDBRANCH  18  21
ENDBRANCH  17  18
ENDBRANCH   4  17
TORSDOF 5
ENDMDL
MODEL 4
REMARK VINA RESULT:      -7.3      2.963      3.950
REMARK  Name = 
REMARK  6 active torsions:
REMARK  status: ('A' for Active; 'I' for Inactive)
REMARK    1  A    between atoms: C_1  and  C_2
REMARK    2  A    between atoms: C_6  and  S_7
REMARK    3  A    between atoms: S_7  and  N_10
REMARK    4  A    between atoms: N_13  and  C_14
REMARK    5  A    between atoms: C_14  and  C_15
REMARK    6  A    between atoms: C_15  and  C_18
REMARK                            x       y       z     vdW  Elec       q    Type
REMARK                         _______ _______ _______ _____ _____    ______ ____
ROOT
ATOM      1  N   UNL     1       4.601   3.345  18.129  0.00  0.00    +0.000 NA
ATOM      2  C   UNL     1       3.587   3.874  17.182  0.00  0.00    +0.000 C 
ATOM      3  C   UNL     1       2.692   4.930  17.865  0.00  0.00    +0.000 C 
ATOM      4  N   UNL     1       3.353   5.905  18.765  0.00  0.00    +0.000 NA
ATOM      5  C   UNL     1       4.573   5.417  19.428  0.00  0.00    +0.000 C 
ATOM      6  C   UNL     1       5.441   4.457  18.612  0.00  0.00    +0.000 C 
ENDROOT
BRANCH   1   7
ATOM      7  S   UNL     1       4.161   2.136  19.245  0.00  0.00    +0.000 S 
ATOM      8  O   UNL     1       5.210   2.048  20.241  0.00  0.00    +0.000 OA
ATOM      9  O   UNL     1       3.764   0.978  18.469  0.00  0.00    +0.000 OA
BRANCH   7  15
ATOM     10  C   UNL     1       0.599   2.284  18.605  0.00  0.00    +0.000 C 
ATOM     11  C   UNL     1       1.389   2.531  19.836  0.00  0.00    +0.000 A 
ATOM     12  N   UNL     1       0.755   2.939  20.983  0.00  0.00    +0.000 N 
ATOM     13  N   UNL     1       1.575   3.176  22.011  0.00  0.00    +0.000 NA
ATOM     14  C   UNL     1       2.785   2.936  21.508  0.00  0.00    +0.000 A 
ATOM     15  C   UNL     1       2.740   2.482  20.177  0.00  0.00    +0.000 A 
ATOM     16  H   UNL     1      -0.238   3.105  21.116  0.00  0.00    +0.000 HD
ENDBRANCH   7  15
ENDBRANCH   1   7
BRANCH   4  17
ATOM     17  C   UNL     1       3.449   7.252  18.166  0.00  0.00    +0.000 C 
BRANCH  17  18
ATOM     18  C   UNL     1       2.229   8.200  18.308  0.00  0.00    +0.000 C 
ATOM     19  F   UNL     1       2.507   9.410  17.742  0.00  0.00    +0.000 F 
ATOM     20  F   UNL     1       1.162   7.699  17.620  0.00  0.00    +0.000 F 
BRANCH  18  21
ATOM     21  C   UNL     1       1.816   8.380  19.751  0.00  0.00    +0.000 C 
ATOM     22  F   UNL     1       0.732   9.197  19.830  0.00  0.00    +0.000 F 
ATOM     23  F   UNL     1       1.445   7.200  20.309  0.00  0.00    +0.000 F 
ENDBRANCH  18  21
ENDBRANCH  17  18
ENDBRANCH   4  17
TORSDOF 5
ENDMDL
MODEL 5
REMARK VINA RESULT:      -7.3      3.881      6.125
REMARK  Name = 
REMARK  6 active torsions:
REMARK  status: ('A' for Active; 'I' for Inactive)
REMARK    1  A    between atoms: C_1  and  C_2
REMARK    2  A    between atoms: C_6  and  S_7
REMARK    3  A    between atoms: S_7  and  N_10
REMARK    4  A    between atoms: N_13  and  C_14
REMARK    5  A    between atoms: C_14  and  C_15
REMARK    6  A    between atoms: C_15  and  C_18
REMARK                            x       y       z     vdW  Elec       q    Type
REMARK                         _______ _______ _______ _____ _____    ______ ____
ROOT
ATOM      1  N   UNL     1       5.043   5.285  16.001  0.00  0.00    +0.000 NA
ATOM      2  C   UNL     1       4.134   4.112  16.018  0.00  0.00    +0.000 C 
ATOM      3  C   UNL     1       3.841   3.660  17.465  0.00  0.00    +0.000 C 
ATOM      4  N   UNL     1       3.601   4.719  18.474  0.00  0.00    +0.000 NA
ATOM      5  C   UNL     1       4.280   5.999  18.212  0.00  0.00    +0.000 C 
ATOM      6  C   UNL     1       4.416   6.397  16.741  0.00  0.00    +0.000 C 
ENDROOT
BRANCH   1   7
ATOM      7  S   UNL     1       6.720   5.053  16.184  0.00  0.00    +0.000 S 
ATOM      8  O   UNL     1       7.393   5.887  15.209  0.00  0.00    +0.000 OA
ATOM      9  O   UNL     1       6.940   3.621  16.224  0.00  0.00    +0.000 OA
BRANCH   7  15
ATOM     10  C   UNL     1       7.817   8.211  17.579  0.00  0.00    +0.000 C 
ATOM     11  C   UNL     1       7.787   6.841  18.147  0.00  0.00    +0.000 A 
ATOM     12  N   UNL     1       8.286   6.614  19.405  0.00  0.00    +0.000 N 
ATOM     13  N   UNL     1       8.249   5.335  19.789  0.00  0.00    +0.000 NA
ATOM     14  C   UNL     1       7.731   4.706  18.736  0.00  0.00    +0.000 A 
ATOM     15  C   UNL     1       7.373   5.587  17.699  0.00  0.00    +0.000 A 
ATOM     16  H   UNL     1       8.696   7.291  20.041  0.00  0.00    +0.000 HD
ENDBRANCH   7  15
ENDBRANCH   1   7
BRANCH   4  17
ATOM     17  C   UNL     1       2.178   4.820  18.860  0.00  0.00    +0.000 C 
BRANCH  17  18
ATOM     18  C   UNL     1       1.767   4.307  20.265  0.00  0.00    +0.000 C 
ATOM     19  F   UNL     1       2.716   4.647  21.184  0.00  0.00    +0.000 F 
ATOM     20  F   UNL     1       0.615   4.916  20.669  0.00  0.00    +0.000 F 
BRANCH  18  21
ATOM     21  C   UNL     1       1.539   2.812  20.277  0.00  0.00    +0.000 C 
ATOM     22  F   UNL     1       0.889   2.429  19.145  0.00  0.00    +0.000 F 
ATOM     23  F   UNL     1       2.713   2.133  20.290  0.00  0.00    +0.000 F 
ENDBRANCH  18  21
ENDBRANCH  17  18
ENDBRANCH   4  17
TORSDOF 5
ENDMDL
MODEL 6
REMARK VINA RESULT:      -7.3      3.930      6.372
REMARK  Name = 
REMARK  6 active torsions:
REMARK  status: ('A' for Active; 'I' for Inactive)
REMARK    1  A    between atoms: C_1  and  C_2
REMARK    2  A    between atoms: C_6  and  S_7
REMARK    3  A    between atoms: S_7  and  N_10
REMARK    4  A    between atoms: N_13  and  C_14
REMARK    5  A    between atoms: C_14  and  C_15
REMARK    6  A    between atoms: C_15  and  C_18
REMARK                            x       y       z     vdW  Elec       q    Type
REMARK                         _______ _______ _______ _____ _____    ______ ____
ROOT
ATOM      1  N   UNL     1       5.185   5.514  16.254  0.00  0.00    +0.000 NA
ATOM      2  C   UNL     1       4.349   4.291  16.180  0.00  0.00    +0.000 C 
ATOM      3  C   UNL     1       4.050   3.739  17.590  0.00  0.00    +0.000 C 
ATOM      4  N   UNL     1       3.724   4.720  18.651  0.00  0.00    +0.000 NA
ATOM      5  C   UNL     1       4.330   6.051  18.481  0.00  0.00    +0.000 C 
ATOM      6  C   UNL     1       4.475   6.542  17.040  0.00  0.00    +0.000 C 
ENDROOT
BRANCH   1   7
ATOM      7  S   UNL     1       6.869   5.371  16.468  0.00  0.00    +0.000 S 
ATOM      8  O   UNL     1       7.500   5.578  15.180  0.00  0.00    +0.000 OA
ATOM      9  O   UNL     1       7.090   4.154  17.224  0.00  0.00    +0.000 OA
BRANCH   7  15
ATOM     10  C   UNL     1       8.156   5.524  19.850  0.00  0.00    +0.000 C 
ATOM     11  C   UNL     1       8.043   6.558  18.792  0.00  0.00    +0.000 A 
ATOM     12  N   UNL     1       8.425   7.849  19.056  0.00  0.00    +0.000 N 
ATOM     13  N   UNL     1       8.233   8.699  18.043  0.00  0.00    +0.000 NA
ATOM     14  C   UNL     1       7.685   7.938  17.096  0.00  0.00    +0.000 A 
ATOM     15  C   UNL     1       7.586   6.587  17.475  0.00  0.00    +0.000 A 
ATOM     16  H   UNL     1       8.797   8.219  19.925  0.00  0.00    +0.000 HD
ENDBRANCH   7  15
ENDBRANCH   1   7
BRANCH   4  17
ATOM     17  C   UNL     1       2.289   4.714  19.005  0.00  0.00    +0.000 C 
BRANCH  17  18
ATOM     18  C   UNL     1       1.884   4.157  20.394  0.00  0.00    +0.000 C 
ATOM     19  F   UNL     1       2.311   4.997  21.380  0.00  0.00    +0.000 F 
ATOM     20  F   UNL     1       0.524   4.108  20.503  0.00  0.00    +0.000 F 
BRANCH  18  21
ATOM     21  C   UNL     1       2.424   2.764  20.624  0.00  0.00    +0.000 C 
ATOM     22  F   UNL     1       2.511   2.509  21.958  0.00  0.00    +0.000 F 
ATOM     23  F   UNL     1       1.595   1.821  20.110  0.00  0.00    +0.000 F 
ENDBRANCH  18  21
ENDBRANCH  17  18
ENDBRANCH   4  17
TORSDOF 5
ENDMDL
MODEL 7
REMARK VINA RESULT:      -7.2      4.197      6.081
REMARK  Name = 
REMARK  6 active torsions:
REMARK  status: ('A' for Active; 'I' for Inactive)
REMARK    1  A    between atoms: C_1  and  C_2
REMARK    2  A    between atoms: C_6  and  S_7
REMARK    3  A    between atoms: S_7  and  N_10
REMARK    4  A    between atoms: N_13  and  C_14
REMARK    5  A    between atoms: C_14  and  C_15
REMARK    6  A    between atoms: C_15  and  C_18
REMARK                            x       y       z     vdW  Elec       q    Type
REMARK                         _______ _______ _______ _____ _____    ______ ____
ROOT
ATOM      1  N   UNL     1       5.121   5.304  15.927  0.00  0.00    +0.000 NA
ATOM      2  C   UNL     1       4.212   4.132  15.973  0.00  0.00    +0.000 C 
ATOM      3  C   UNL     1       3.893   3.737  17.431  0.00  0.00    +0.000 C 
ATOM      4  N   UNL     1       3.635   4.834  18.394  0.00  0.00    +0.000 NA
ATOM      5  C   UNL     1       4.318   6.103  18.094  0.00  0.00    +0.000 C 
ATOM      6  C   UNL     1       4.480   6.444  16.612  0.00  0.00    +0.000 C 
ENDROOT
BRANCH   1   7
ATOM      7  S   UNL     1       6.794   5.081  16.149  0.00  0.00    +0.000 S 
ATOM      8  O   UNL     1       7.485   5.937  15.206  0.00  0.00    +0.000 OA
ATOM      9  O   UNL     1       7.024   3.650  16.171  0.00  0.00    +0.000 OA
BRANCH   7  15
ATOM     10  C   UNL     1       7.873   8.215  17.611  0.00  0.00    +0.000 C 
ATOM     11  C   UNL     1       7.815   6.839  18.163  0.00  0.00    +0.000 A 
ATOM     12  N   UNL     1       8.273   6.595  19.433  0.00  0.00    +0.000 N 
ATOM     13  N   UNL     1       8.214   5.312  19.802  0.00  0.00    +0.000 NA
ATOM     14  C   UNL     1       7.723   4.699  18.726  0.00  0.00    +0.000 A 
ATOM     15  C   UNL     1       7.404   5.594  17.689  0.00  0.00    +0.000 A 
ATOM     16  H   UNL     1       8.668   7.262  20.088  0.00  0.00    +0.000 HD
ENDBRANCH   7  15
ENDBRANCH   1   7
BRANCH   4  17
ATOM     17  C   UNL     1       2.205   4.948  18.751  0.00  0.00    +0.000 C 
BRANCH  17  18
ATOM     18  C   UNL     1       1.642   3.977  19.821  0.00  0.00    +0.000 C 
ATOM     19  F   UNL     1       0.584   4.550  20.463  0.00  0.00    +0.000 F 
ATOM     20  F   UNL     1       1.154   2.851  19.223  0.00  0.00    +0.000 F 
BRANCH  18  21
ATOM     21  C   UNL     1       2.698   3.561  20.819  0.00  0.00    +0.000 C 
ATOM     22  F   UNL     1       2.243   3.749  22.087  0.00  0.00    +0.000 F 
ATOM     23  F   UNL     1       2.987   2.239  20.711  0.00  0.00    +0.000 F 
ENDBRANCH  18  21
ENDBRANCH  17  18
ENDBRANCH   4  17
TORSDOF 5
ENDMDL
MODEL 8
REMARK VINA RESULT:      -7.2      3.513      4.596
REMARK  Name = 
REMARK  6 active torsions:
REMARK  status: ('A' for Active; 'I' for Inactive)
REMARK    1  A    between atoms: C_1  and  C_2
REMARK    2  A    between atoms: C_6  and  S_7
REMARK    3  A    between atoms: S_7  and  N_10
REMARK    4  A    between atoms: N_13  and  C_14
REMARK    5  A    between atoms: C_14  and  C_15
REMARK    6  A    between atoms: C_15  and  C_18
REMARK                            x       y       z     vdW  Elec       q    Type
REMARK                         _______ _______ _______ _____ _____    ______ ____
ROOT
ATOM      1  N   UNL     1       5.416   5.854  17.935  0.00  0.00    +0.000 NA
ATOM      2  C   UNL     1       6.871   5.792  17.648  0.00  0.00    +0.000 C 
ATOM      3  C   UNL     1       7.217   4.538  16.817  0.00  0.00    +0.000 C 
ATOM      4  N   UNL     1       6.293   4.172  15.718  0.00  0.00    +0.000 NA
ATOM      5  C   UNL     1       4.891   4.573  15.919  0.00  0.00    +0.000 C 
ATOM      6  C   UNL     1       4.671   5.892  16.662  0.00  0.00    +0.000 C 
ENDROOT
BRANCH   1   7
ATOM      7  S   UNL     1       4.768   4.928  19.209  0.00  0.00    +0.000 S 
ATOM      8  O   UNL     1       3.760   5.729  19.873  0.00  0.00    +0.000 OA
ATOM      9  O   UNL     1       5.895   4.382  19.941  0.00  0.00    +0.000 OA
BRANCH   7  15
ATOM     10  C   UNL     1       1.532   4.228  17.739  0.00  0.00    +0.000 C 
ATOM     11  C   UNL     1       2.635   3.331  18.166  0.00  0.00    +0.000 A 
ATOM     12  N   UNL     1       2.482   1.971  18.072  0.00  0.00    +0.000 N 
ATOM     13  N   UNL     1       3.521   1.267  18.530  0.00  0.00    +0.000 NA
ATOM     14  C   UNL     1       4.368   2.202  18.959  0.00  0.00    +0.000 A 
ATOM     15  C   UNL     1       3.904   3.508  18.716  0.00  0.00    +0.000 A 
ATOM     16  H   UNL     1       1.673   1.461  17.730  0.00  0.00    +0.000 HD
ENDBRANCH   7  15
ENDBRANCH   1   7
BRANCH   4  17
ATOM     17  C   UNL     1       6.855   4.470  14.384  0.00  0.00    +0.000 C 
BRANCH  17  18
ATOM     18  C   UNL     1       6.196   3.800  13.150  0.00  0.00    +0.000 C 
ATOM     19  F   UNL     1       6.118   2.451  13.335  0.00  0.00    +0.000 F 
ATOM     20  F   UNL     1       4.910   4.235  13.009  0.00  0.00    +0.000 F 
BRANCH  18  21
ATOM     21  C   UNL     1       6.941   4.111  11.872  0.00  0.00    +0.000 C 
ATOM     22  F   UNL     1       7.923   5.021  12.112  0.00  0.00    +0.000 F 
ATOM     23  F   UNL     1       7.558   3.008  11.378  0.00  0.00    +0.000 F 
ENDBRANCH  18  21
ENDBRANCH  17  18
ENDBRANCH   4  17
TORSDOF 5
ENDMDL
MODEL 9
REMARK VINA RESULT:      -7.2      1.140      1.567
REMARK  Name = 
REMARK  6 active torsions:
REMARK  status: ('A' for Active; 'I' for Inactive)
REMARK    1  A    between atoms: C_1  and  C_2
REMARK    2  A    between atoms: C_6  and  S_7
REMARK    3  A    between atoms: S_7  and  N_10
REMARK    4  A    between atoms: N_13  and  C_14
REMARK    5  A    between atoms: C_14  and  C_15
REMARK    6  A    between atoms: C_15  and  C_18
REMARK                            x       y       z     vdW  Elec       q    Type
REMARK                         _______ _______ _______ _____ _____    ______ ____
ROOT
ATOM      1  N   UNL     1       2.196   3.883  17.326  0.00  0.00    +0.000 NA
ATOM      2  C   UNL     1       2.050   5.210  17.974  0.00  0.00    +0.000 C 
ATOM      3  C   UNL     1       3.310   5.569  18.790  0.00  0.00    +0.000 C 
ATOM      4  N   UNL     1       4.626   5.249  18.188  0.00  0.00    +0.000 NA
ATOM      5  C   UNL     1       4.631   4.098  17.270  0.00  0.00    +0.000 C 
ATOM      6  C   UNL     1       3.368   3.905  16.430  0.00  0.00    +0.000 C 
ENDROOT
BRANCH   1   7
ATOM      7  S   UNL     1       1.915   2.469  18.233  0.00  0.00    +0.000 S 
ATOM      8  O   UNL     1       2.909   1.488  17.846  0.00  0.00    +0.000 OA
ATOM      9  O   UNL     1       0.498   2.181  18.126  0.00  0.00    +0.000 OA
BRANCH   7  15
ATOM     10  C   UNL     1       4.688   2.094  20.532  0.00  0.00    +0.000 C 
ATOM     11  C   UNL     1       3.266   2.452  20.755  0.00  0.00    +0.000 A 
ATOM     12  N   UNL     1       2.806   2.653  22.032  0.00  0.00    +0.000 N 
ATOM     13  N   UNL     1       1.499   2.922  22.111  0.00  0.00    +0.000 NA
ATOM     14  C   UNL     1       1.093   2.872  20.843  0.00  0.00    +0.000 A 
ATOM     15  C   UNL     1       2.147   2.635  19.943  0.00  0.00    +0.000 A 
ATOM     16  H   UNL     1       3.332   2.588  22.898  0.00  0.00    +0.000 HD
ENDBRANCH   7  15
ENDBRANCH   1   7
BRANCH   4  17
ATOM     17  C   UNL     1       5.334   6.452  17.705  0.00  0.00    +0.000 C 
BRANCH  17  18
ATOM     18  C   UNL     1       6.865   6.353  17.476  0.00  0.00    +0.000 C 
ATOM     19  F   UNL     1       7.122   5.743  16.284  0.00  0.00    +0.000 F 
ATOM     20  F   UNL     1       7.409   7.601  17.385  0.00  0.00    +0.000 F 
BRANCH  18  21
ATOM     21  C   UNL     1       7.559   5.618  18.600  0.00  0.00    +0.000 C 
ATOM     22  F   UNL     1       8.161   4.495  18.124  0.00  0.00    +0.000 F 
ATOM     23  F   UNL     1       8.543   6.373  19.151  0.00  0.00    +0.000 F 
ENDBRANCH  18  21
ENDBRANCH  17  18
ENDBRANCH   4  17
TORSDOF 5
ENDMDL
