MODEL 1
REMARK VINA RESULT:      -7.7      0.000      0.000
REMARK  Name = 
REMARK  7 active torsions:
REMARK  status: ('A' for Active; 'I' for Inactive)
REMARK    1  A    between atoms: C_1  and  C_2
REMARK    2  A    between atoms: C_2  and  C_3
REMARK    3  A    between atoms: C_2  and  C_4
REMARK    4  A    between atoms: C_4  and  N_5
REMARK    5  A    between atoms: C_7  and  C_8
REMARK    6  A    between atoms: N_10  and  C_11
REMARK    7  A    between atoms: C_11  and  C_12
REMARK                            x       y       z     vdW  Elec       q    Type
REMARK                         _______ _______ _______ _____ _____    ______ ____
ROOT
ATOM      1  C   UNL     1       1.592   4.321  20.322  0.00  0.00    +0.000 C 
ATOM      2  O   UNL     1       1.290   3.490  21.178  0.00  0.00    +0.000 OA
ATOM      3  N   UNL     1       2.049   5.533  20.753  0.00  0.00    +0.000 N 
ATOM      4  H   UNL     1       2.098   5.594  21.764  0.00  0.00    +0.000 HD
ENDROOT
BRANCH   1   7
ATOM      5  N   UNL     1       3.542   3.737  17.946  0.00  0.00    +0.000 N 
ATOM      6  C   UNL     1       2.500   4.722  17.992  0.00  0.00    +0.000 C 
ATOM      7  C   UNL     1       1.416   4.070  18.827  0.00  0.00    +0.000 C 
ATOM      8  C   UNL     1       1.569   2.587  18.467  0.00  0.00    +0.000 C 
ATOM      9  C   UNL     1       3.042   2.460  18.147  0.00  0.00    +0.000 C 
ATOM     10  O   UNL     1       3.650   1.409  18.015  0.00  0.00    +0.000 OA
BRANCH   5  11
ATOM     11  C   UNL     1       4.894   4.043  17.501  0.00  0.00    +0.000 C 
BRANCH  11  13
ATOM     12  C   UNL     1       5.220   6.057  15.984  0.00  0.00    +0.000 C 
ATOM     13  C   UNL     1       4.950   4.552  16.049  0.00  0.00    +0.000 C 
ATOM     14  C   UNL     1       6.014   3.794  15.256  0.00  0.00    +0.000 C 
ENDBRANCH  11  13
ENDBRANCH   5  11
ENDBRANCH   1   7
BRANCH   3  15
ATOM     15  C   UNL     1       2.500   6.684  19.993  0.00  0.00    +0.000 C 
BRANCH  15  16
ATOM     16  C   UNL     1       1.626   7.912  20.161  0.00  0.00    +0.000 A 
ATOM     17  C   UNL     1       0.908   8.155  21.348  0.00  0.00    +0.000 A 
ATOM     18  C   UNL     1       0.099   9.288  21.486  0.00  0.00    +0.000 A 
ATOM     19  C   UNL     1      -0.016  10.189  20.433  0.00  0.00    +0.000 A 
ATOM     20 CL   UNL     1      -1.019  11.576  20.602  0.00  0.00    +0.000 Cl
ATOM     21  C   UNL     1       0.678   9.974  19.248  0.00  0.00    +0.000 A 
ATOM     22  C   UNL     1       1.492   8.845  19.114  0.00  0.00    +0.000 A 
ATOM     23 CL   UNL     1       2.341   8.653  17.620  0.00  0.00    +0.000 Cl
ENDBRANCH  15  16
ENDBRANCH   3  15
TORSDOF 5
ENDMDL
MODEL 2
REMARK VINA RESULT:      -7.7      1.735      2.034
REMARK  Name = 
REMARK  7 active torsions:
REMARK  status: ('A' for Active; 'I' for Inactive)
REMARK    1  A    between atoms: C_1  and  C_2
REMARK    2  A    between atoms: C_2  and  C_3
REMARK    3  A    between atoms: C_2  and  C_4
REMARK    4  A    between atoms: C_4  and  N_5
REMARK    5  A    between atoms: C_7  and  C_8
REMARK    6  A    between atoms: N_10  and  C_11
REMARK    7  A    between atoms: C_11  and  C_12
REMARK                            x       y       z     vdW  Elec       q    Type
REMARK                         _______ _______ _______ _____ _____    ______ ____
ROOT
ATOM      1  C   UNL     1       2.001   5.711  20.302  0.00  0.00    +0.000 C 
ATOM      2  O   UNL     1       1.974   4.717  21.028  0.00  0.00    +0.000 OA
ATOM      3  N   UNL     1       1.686   6.913  20.869  0.00  0.00    +0.000 N 
ATOM      4  H   UNL     1       1.476   6.834  21.857  0.00  0.00    +0.000 HD
ENDROOT
BRANCH   1   7
ATOM      5  N   UNL     1       4.368   4.584  18.595  0.00  0.00    +0.000 N 
ATOM      6  C   UNL     1       3.768   5.885  18.497  0.00  0.00    +0.000 C 
ATOM      7  C   UNL     1       2.306   5.637  18.809  0.00  0.00    +0.000 C 
ATOM      8  C   UNL     1       2.080   4.231  18.241  0.00  0.00    +0.000 C 
ATOM      9  C   UNL     1       3.438   3.580  18.382  0.00  0.00    +0.000 C 
ATOM     10  O   UNL     1       3.669   2.387  18.251  0.00  0.00    +0.000 OA
BRANCH   5  11
ATOM     11  C   UNL     1       5.809   4.388  18.665  0.00  0.00    +0.000 C 
BRANCH  11  13
ATOM     12  C   UNL     1       7.676   6.112  18.596  0.00  0.00    +0.000 C 
ATOM     13  C   UNL     1       6.597   5.383  17.792  0.00  0.00    +0.000 C 
ATOM     14  C   UNL     1       7.226   4.668  16.598  0.00  0.00    +0.000 C 
ENDBRANCH  11  13
ENDBRANCH   5  11
ENDBRANCH   1   7
BRANCH   3  15
ATOM     15  C   UNL     1       1.658   8.240  20.283  0.00  0.00    +0.000 C 
BRANCH  15  16
ATOM     16  C   UNL     1       0.782   9.224  21.035  0.00  0.00    +0.000 A 
ATOM     17  C   UNL     1       0.271   8.935  22.315  0.00  0.00    +0.000 A 
ATOM     18  C   UNL     1      -0.541   9.849  22.994  0.00  0.00    +0.000 A 
ATOM     19  C   UNL     1      -0.867  11.063  22.397  0.00  0.00    +0.000 A 
ATOM     20 CL   UNL     1      -1.873  12.181  23.229  0.00  0.00    +0.000 Cl
ATOM     21  C   UNL     1      -0.379  11.375  21.134  0.00  0.00    +0.000 A 
ATOM     22  C   UNL     1       0.439  10.463  20.459  0.00  0.00    +0.000 A 
ATOM     23 CL   UNL     1       1.025  10.927  18.900  0.00  0.00    +0.000 Cl
ENDBRANCH  15  16
ENDBRANCH   3  15
TORSDOF 5
ENDMDL
MODEL 3
REMARK VINA RESULT:      -7.6      0.873      1.042
REMARK  Name = 
REMARK  7 active torsions:
REMARK  status: ('A' for Active; 'I' for Inactive)
REMARK    1  A    between atoms: C_1  and  C_2
REMARK    2  A    between atoms: C_2  and  C_3
REMARK    3  A    between atoms: C_2  and  C_4
REMARK    4  A    between atoms: C_4  and  N_5
REMARK    5  A    between atoms: C_7  and  C_8
REMARK    6  A    between atoms: N_10  and  C_11
REMARK    7  A    between atoms: C_11  and  C_12
REMARK                            x       y       z     vdW  Elec       q    Type
REMARK                         _______ _______ _______ _____ _____    ______ ____
ROOT
ATOM      1  C   UNL     1       1.913   4.634  20.542  0.00  0.00    +0.000 C 
ATOM      2  O   UNL     1       2.046   3.850  21.481  0.00  0.00    +0.000 OA
ATOM      3  N   UNL     1       2.182   5.952  20.779  0.00  0.00    +0.000 N 
ATOM      4  H   UNL     1       2.482   6.122  21.733  0.00  0.00    +0.000 HD
ENDROOT
BRANCH   1   7
ATOM      5  N   UNL     1       3.284   3.713  17.885  0.00  0.00    +0.000 N 
ATOM      6  C   UNL     1       2.273   4.721  18.037  0.00  0.00    +0.000 C 
ATOM      7  C   UNL     1       1.407   4.203  19.169  0.00  0.00    +0.000 C 
ATOM      8  C   UNL     1       1.483   2.684  18.974  0.00  0.00    +0.000 C 
ATOM      9  C   UNL     1       2.848   2.483  18.353  0.00  0.00    +0.000 C 
ATOM     10  O   UNL     1       3.417   1.410  18.222  0.00  0.00    +0.000 OA
BRANCH   5  11
ATOM     11  C   UNL     1       4.500   3.930  17.115  0.00  0.00    +0.000 C 
BRANCH  11  13
ATOM     12  C   UNL     1       6.191   5.558  18.090  0.00  0.00    +0.000 C 
ATOM     13  C   UNL     1       4.988   5.390  17.158  0.00  0.00    +0.000 C 
ATOM     14  C   UNL     1       5.340   5.880  15.755  0.00  0.00    +0.000 C 
ENDBRANCH  11  13
ENDBRANCH   5  11
ENDBRANCH   1   7
BRANCH   3  15
ATOM     15  C   UNL     1       2.142   7.088  19.878  0.00  0.00    +0.000 C 
BRANCH  15  16
ATOM     16  C   UNL     1       1.432   8.301  20.450  0.00  0.00    +0.000 A 
ATOM     17  C   UNL     1       1.162   8.422  21.827  0.00  0.00    +0.000 A 
ATOM     18  C   UNL     1       0.500   9.542  22.339  0.00  0.00    +0.000 A 
ATOM     19  C   UNL     1       0.085  10.554  21.480  0.00  0.00    +0.000 A 
ATOM     20 CL   UNL     1      -0.738  11.926  22.110  0.00  0.00    +0.000 Cl
ATOM     21  C   UNL     1       0.335  10.462  20.116  0.00  0.00    +0.000 A 
ATOM     22  C   UNL     1       1.004   9.344  19.606  0.00  0.00    +0.000 A 
ATOM     23 CL   UNL     1       1.299   9.306  17.903  0.00  0.00    +0.000 Cl
ENDBRANCH  15  16
ENDBRANCH   3  15
TORSDOF 5
ENDMDL
MODEL 4
REMARK VINA RESULT:      -7.4      1.598      1.989
REMARK  Name = 
REMARK  7 active torsions:
REMARK  status: ('A' for Active; 'I' for Inactive)
REMARK    1  A    between atoms: C_1  and  C_2
REMARK    2  A    between atoms: C_2  and  C_3
REMARK    3  A    between atoms: C_2  and  C_4
REMARK    4  A    between atoms: C_4  and  N_5
REMARK    5  A    between atoms: C_7  and  C_8
REMARK    6  A    between atoms: N_10  and  C_11
REMARK    7  A    between atoms: C_11  and  C_12
REMARK                            x       y       z     vdW  Elec       q    Type
REMARK                         _______ _______ _______ _____ _____    ______ ____
ROOT
ATOM      1  C   UNL     1       2.582   5.604  19.806  0.00  0.00    +0.000 C 
ATOM      2  O   UNL     1       2.952   4.704  20.561  0.00  0.00    +0.000 OA
ATOM      3  N   UNL     1       2.347   6.831  20.357  0.00  0.00    +0.000 N 
ATOM      4  H   UNL     1       2.528   6.851  21.355  0.00  0.00    +0.000 HD
ENDROOT
BRANCH   1   7
ATOM      5  N   UNL     1       4.299   4.570  17.405  0.00  0.00    +0.000 N 
ATOM      6  C   UNL     1       3.506   5.765  17.454  0.00  0.00    +0.000 C 
ATOM      7  C   UNL     1       2.322   5.382  18.320  0.00  0.00    +0.000 C 
ATOM      8  C   UNL     1       2.130   3.899  17.980  0.00  0.00    +0.000 C 
ATOM      9  C   UNL     1       3.529   3.441  17.635  0.00  0.00    +0.000 C 
ATOM     10  O   UNL     1       3.884   2.278  17.508  0.00  0.00    +0.000 OA
BRANCH   5  11
ATOM     11  C   UNL     1       5.676   4.560  16.930  0.00  0.00    +0.000 C 
BRANCH  11  13
ATOM     12  C   UNL     1       7.065   6.602  17.528  0.00  0.00    +0.000 C 
ATOM     13  C   UNL     1       6.664   5.182  17.933  0.00  0.00    +0.000 C 
ATOM     14  C   UNL     1       6.068   5.187  19.340  0.00  0.00    +0.000 C 
ENDBRANCH  11  13
ENDBRANCH   5  11
ENDBRANCH   1   7
BRANCH   3  15
ATOM     15  C   UNL     1       1.935   8.071  19.728  0.00  0.00    +0.000 C 
BRANCH  15  16
ATOM     16  C   UNL     1       1.051   8.939  20.603  0.00  0.00    +0.000 A 
ATOM     17  C   UNL     1       1.045   8.817  22.006  0.00  0.00    +0.000 A 
ATOM     18  C   UNL     1       0.218   9.619  22.799  0.00  0.00    +0.000 A 
ATOM     19  C   UNL     1      -0.628  10.547  22.201  0.00  0.00    +0.000 A 
ATOM     20 CL   UNL     1      -1.651  11.524  23.178  0.00  0.00    +0.000 Cl
ATOM     21  C   UNL     1      -0.647  10.688  20.819  0.00  0.00    +0.000 A 
ATOM     22  C   UNL     1       0.186   9.891  20.027  0.00  0.00    +0.000 A 
ATOM     23 CL   UNL     1       0.124  10.135  18.316  0.00  0.00    +0.000 Cl
ENDBRANCH  15  16
ENDBRANCH   3  15
TORSDOF 5
ENDMDL
MODEL 5
REMARK VINA RESULT:      -7.3      3.720      5.907
REMARK  Name = 
REMARK  7 active torsions:
REMARK  status: ('A' for Active; 'I' for Inactive)
REMARK    1  A    between atoms: C_1  and  C_2
REMARK    2  A    between atoms: C_2  and  C_3
REMARK    3  A    between atoms: C_2  and  C_4
REMARK    4  A    between atoms: C_4  and  N_5
REMARK    5  A    between atoms: C_7  and  C_8
REMARK    6  A    between atoms: N_10  and  C_11
REMARK    7  A    between atoms: C_11  and  C_12
REMARK                            x       y       z     vdW  Elec       q    Type
REMARK                         _______ _______ _______ _____ _____    ______ ____
ROOT
ATOM      1  C   UNL     1       5.166   5.662  15.993  0.00  0.00    +0.000 C 
ATOM      2  O   UNL     1       4.614   6.158  15.011  0.00  0.00    +0.000 OA
ATOM      3  N   UNL     1       4.814   6.140  17.222  0.00  0.00    +0.000 N 
ATOM      4  H   UNL     1       4.104   6.862  17.170  0.00  0.00    +0.000 HD
ENDROOT
BRANCH   1   7
ATOM      5  N   UNL     1       6.670   4.300  13.612  0.00  0.00    +0.000 N 
ATOM      6  C   UNL     1       6.026   3.651  14.718  0.00  0.00    +0.000 C 
ATOM      7  C   UNL     1       6.252   4.597  15.880  0.00  0.00    +0.000 C 
ATOM      8  C   UNL     1       7.624   5.200  15.553  0.00  0.00    +0.000 C 
ATOM      9  C   UNL     1       7.664   5.166  14.042  0.00  0.00    +0.000 C 
ATOM     10  O   UNL     1       8.482   5.742  13.341  0.00  0.00    +0.000 OA
BRANCH   5  11
ATOM     11  C   UNL     1       6.454   3.897  12.229  0.00  0.00    +0.000 C 
BRANCH  11  13
ATOM     12  C   UNL     1       4.140   3.410  11.298  0.00  0.00    +0.000 C 
ATOM     13  C   UNL     1       5.334   2.851  12.075  0.00  0.00    +0.000 C 
ATOM     14  C   UNL     1       5.866   1.595  11.386  0.00  0.00    +0.000 C 
ENDBRANCH  11  13
ENDBRANCH   5  11
ENDBRANCH   1   7
BRANCH   3  15
ATOM     15  C   UNL     1       5.265   5.740  18.542  0.00  0.00    +0.000 C 
BRANCH  15  16
ATOM     16  C   UNL     1       4.253   4.911  19.311  0.00  0.00    +0.000 A 
ATOM     17  C   UNL     1       4.456   3.541  19.566  0.00  0.00    +0.000 A 
ATOM     18  C   UNL     1       3.511   2.788  20.269  0.00  0.00    +0.000 A 
ATOM     19  C   UNL     1       2.340   3.390  20.719  0.00  0.00    +0.000 A 
ATOM     20 CL   UNL     1       1.176   2.460  21.575  0.00  0.00    +0.000 Cl
ATOM     21  C   UNL     1       2.111   4.740  20.481  0.00  0.00    +0.000 A 
ATOM     22  C   UNL     1       3.060   5.494  19.783  0.00  0.00    +0.000 A 
ATOM     23 CL   UNL     1       2.718   7.171  19.541  0.00  0.00    +0.000 Cl
ENDBRANCH  15  16
ENDBRANCH   3  15
TORSDOF 5
ENDMDL
MODEL 6
REMARK VINA RESULT:      -7.3      1.287      1.611
REMARK  Name = 
REMARK  7 active torsions:
REMARK  status: ('A' for Active; 'I' for Inactive)
REMARK    1  A    between atoms: C_1  and  C_2
REMARK    2  A    between atoms: C_2  and  C_3
REMARK    3  A    between atoms: C_2  and  C_4
REMARK    4  A    between atoms: C_4  and  N_5
REMARK    5  A    between atoms: C_7  and  C_8
REMARK    6  A    between atoms: N_10  and  C_11
REMARK    7  A    between atoms: C_11  and  C_12
REMARK                            x       y       z     vdW  Elec       q    Type
REMARK                         _______ _______ _______ _____ _____    ______ ____
ROOT
ATOM      1  C   UNL     1       1.933   5.306  20.056  0.00  0.00    +0.000 C 
ATOM      2  O   UNL     1       1.828   4.287  20.739  0.00  0.00    +0.000 OA
ATOM      3  N   UNL     1       1.799   6.507  20.691  0.00  0.00    +0.000 N 
ATOM      4  H   UNL     1       1.637   6.405  21.687  0.00  0.00    +0.000 HD
ENDROOT
BRANCH   1   7
ATOM      5  N   UNL     1       4.251   4.365  18.177  0.00  0.00    +0.000 N 
ATOM      6  C   UNL     1       3.559   5.622  18.141  0.00  0.00    +0.000 C 
ATOM      7  C   UNL     1       2.141   5.270  18.545  0.00  0.00    +0.000 C 
ATOM      8  C   UNL     1       1.973   3.858  17.970  0.00  0.00    +0.000 C 
ATOM      9  C   UNL     1       3.379   3.301  18.011  0.00  0.00    +0.000 C 
ATOM     10  O   UNL     1       3.682   2.129  17.845  0.00  0.00    +0.000 OA
BRANCH   5  11
ATOM     11  C   UNL     1       5.704   4.268  18.148  0.00  0.00    +0.000 C 
BRANCH  11  13
ATOM     12  C   UNL     1       5.350   4.306  15.631  0.00  0.00    +0.000 C 
ATOM     13  C   UNL     1       6.305   4.638  16.779  0.00  0.00    +0.000 C 
ATOM     14  C   UNL     1       6.676   6.119  16.740  0.00  0.00    +0.000 C 
ENDBRANCH  11  13
ENDBRANCH   5  11
ENDBRANCH   1   7
BRANCH   3  15
ATOM     15  C   UNL     1       1.897   7.855  20.165  0.00  0.00    +0.000 C 
BRANCH  15  16
ATOM     16  C   UNL     1       1.002   8.856  20.871  0.00  0.00    +0.000 A 
ATOM     17  C   UNL     1       0.844   8.853  22.271  0.00  0.00    +0.000 A 
ATOM     18  C   UNL     1       0.010   9.777  22.907  0.00  0.00    +0.000 A 
ATOM     19  C   UNL     1      -0.691  10.712  22.153  0.00  0.00    +0.000 A 
ATOM     20 CL   UNL     1      -1.724  11.841  22.937  0.00  0.00    +0.000 Cl
ATOM     21  C   UNL     1      -0.558  10.738  20.770  0.00  0.00    +0.000 A 
ATOM     22  C   UNL     1       0.282   9.818  20.135  0.00  0.00    +0.000 A 
ATOM     23 CL   UNL     1       0.416   9.922  18.414  0.00  0.00    +0.000 Cl
ENDBRANCH  15  16
ENDBRANCH   3  15
TORSDOF 5
ENDMDL
MODEL 7
REMARK VINA RESULT:      -7.3      4.077      5.553
REMARK  Name = 
REMARK  7 active torsions:
REMARK  status: ('A' for Active; 'I' for Inactive)
REMARK    1  A    between atoms: C_1  and  C_2
REMARK    2  A    between atoms: C_2  and  C_3
REMARK    3  A    between atoms: C_2  and  C_4
REMARK    4  A    between atoms: C_4  and  N_5
REMARK    5  A    between atoms: C_7  and  C_8
REMARK    6  A    between atoms: N_10  and  C_11
REMARK    7  A    between atoms: C_11  and  C_12
REMARK                            x       y       z     vdW  Elec       q    Type
REMARK                         _______ _______ _______ _____ _____    ______ ____
ROOT
ATOM      1  C   UNL     1       5.312   5.886  17.505  0.00  0.00    +0.000 C 
ATOM      2  O   UNL     1       6.051   6.836  17.762  0.00  0.00    +0.000 OA
ATOM      3  N   UNL     1       3.976   6.046  17.737  0.00  0.00    +0.000 N 
ATOM      4  H   UNL     1       3.750   6.969  18.092  0.00  0.00    +0.000 HD
ENDROOT
BRANCH   1   7
ATOM      5  N   UNL     1       5.858   4.648  14.684  0.00  0.00    +0.000 N 
ATOM      6  C   UNL     1       5.117   4.059  15.763  0.00  0.00    +0.000 C 
ATOM      7  C   UNL     1       5.836   4.543  17.007  0.00  0.00    +0.000 C 
ATOM      8  C   UNL     1       7.292   4.627  16.536  0.00  0.00    +0.000 C 
ATOM      9  C   UNL     1       7.160   4.935  15.061  0.00  0.00    +0.000 C 
ATOM     10  O   UNL     1       8.069   5.297  14.329  0.00  0.00    +0.000 OA
BRANCH   5  11
ATOM     11  C   UNL     1       5.353   4.697  13.319  0.00  0.00    +0.000 C 
BRANCH  11  13
ATOM     12  C   UNL     1       4.373   3.151  11.556  0.00  0.00    +0.000 C 
ATOM     13  C   UNL     1       5.495   3.356  12.576  0.00  0.00    +0.000 C 
ATOM     14  C   UNL     1       6.854   3.267  11.885  0.00  0.00    +0.000 C 
ENDBRANCH  11  13
ENDBRANCH   5  11
ENDBRANCH   1   7
BRANCH   3  15
ATOM     15  C   UNL     1       2.874   5.130  17.510  0.00  0.00    +0.000 C 
BRANCH  15  16
ATOM     16  C   UNL     1       2.400   4.419  18.764  0.00  0.00    +0.000 A 
ATOM     17  C   UNL     1       2.093   5.122  19.945  0.00  0.00    +0.000 A 
ATOM     18  C   UNL     1       1.664   4.453  21.095  0.00  0.00    +0.000 A 
ATOM     19  C   UNL     1       1.548   3.067  21.088  0.00  0.00    +0.000 A 
ATOM     20 CL   UNL     1       1.030   2.245  22.506  0.00  0.00    +0.000 Cl
ATOM     21  C   UNL     1       1.846   2.345  19.938  0.00  0.00    +0.000 A 
ATOM     22  C   UNL     1       2.268   3.016  18.786  0.00  0.00    +0.000 A 
ATOM     23 CL   UNL     1       2.602   2.057  17.387  0.00  0.00    +0.000 Cl
ENDBRANCH  15  16
ENDBRANCH   3  15
TORSDOF 5
ENDMDL
MODEL 8
REMARK VINA RESULT:      -7.2      4.523      6.171
REMARK  Name = 
REMARK  7 active torsions:
REMARK  status: ('A' for Active; 'I' for Inactive)
REMARK    1  A    between atoms: C_1  and  C_2
REMARK    2  A    between atoms: C_2  and  C_3
REMARK    3  A    between atoms: C_2  and  C_4
REMARK    4  A    between atoms: C_4  and  N_5
REMARK    5  A    between atoms: C_7  and  C_8
REMARK    6  A    between atoms: N_10  and  C_11
REMARK    7  A    between atoms: C_11  and  C_12
REMARK                            x       y       z     vdW  Elec       q    Type
REMARK                         _______ _______ _______ _____ _____    ______ ____
ROOT
ATOM      1  C   UNL     1       5.149   6.382  15.628  0.00  0.00    +0.000 C 
ATOM      2  O   UNL     1       5.009   7.002  14.574  0.00  0.00    +0.000 OA
ATOM      3  N   UNL     1       4.555   6.896  16.745  0.00  0.00    +0.000 N 
ATOM      4  H   UNL     1       4.043   7.750  16.555  0.00  0.00    +0.000 HD
ENDROOT
BRANCH   1   7
ATOM      5  N   UNL     1       6.546   4.487  13.568  0.00  0.00    +0.000 N 
ATOM      6  C   UNL     1       5.685   4.108  14.652  0.00  0.00    +0.000 C 
ATOM      7  C   UNL     1       5.998   5.119  15.738  0.00  0.00    +0.000 C 
ATOM      8  C   UNL     1       7.487   5.400  15.509  0.00  0.00    +0.000 C 
ATOM      9  C   UNL     1       7.654   5.185  14.021  0.00  0.00    +0.000 C 
ATOM     10  O   UNL     1       8.633   5.504  13.363  0.00  0.00    +0.000 OA
BRANCH   5  11
ATOM     11  C   UNL     1       6.375   3.977  12.214  0.00  0.00    +0.000 C 
BRANCH  11  13
ATOM     12  C   UNL     1       4.081   3.266  11.383  0.00  0.00    +0.000 C 
ATOM     13  C   UNL     1       5.347   2.834  12.126  0.00  0.00    +0.000 C 
ATOM     14  C   UNL     1       5.961   1.611  11.447  0.00  0.00    +0.000 C 
ENDBRANCH  11  13
ENDBRANCH   5  11
ENDBRANCH   1   7
BRANCH   3  15
ATOM     15  C   UNL     1       4.522   6.384  18.102  0.00  0.00    +0.000 C 
BRANCH  15  16
ATOM     16  C   UNL     1       3.563   5.225  18.298  0.00  0.00    +0.000 A 
ATOM     17  C   UNL     1       2.204   5.318  17.941  0.00  0.00    +0.000 A 
ATOM     18  C   UNL     1       1.330   4.243  18.135  0.00  0.00    +0.000 A 
ATOM     19  C   UNL     1       1.799   3.062  18.701  0.00  0.00    +0.000 A 
ATOM     20 CL   UNL     1       0.720   1.747  18.947  0.00  0.00    +0.000 Cl
ATOM     21  C   UNL     1       3.135   2.942  19.066  0.00  0.00    +0.000 A 
ATOM     22  C   UNL     1       4.009   4.015  18.865  0.00  0.00    +0.000 A 
ATOM     23 CL   UNL     1       5.661   3.788  19.323  0.00  0.00    +0.000 Cl
ENDBRANCH  15  16
ENDBRANCH   3  15
TORSDOF 5
ENDMDL
MODEL 9
REMARK VINA RESULT:      -7.2      1.853      2.360
REMARK  Name = 
REMARK  7 active torsions:
REMARK  status: ('A' for Active; 'I' for Inactive)
REMARK    1  A    between atoms: C_1  and  C_2
REMARK    2  A    between atoms: C_2  and  C_3
REMARK    3  A    between atoms: C_2  and  C_4
REMARK    4  A    between atoms: C_4  and  N_5
REMARK    5  A    between atoms: C_7  and  C_8
REMARK    6  A    between atoms: N_10  and  C_11
REMARK    7  A    between atoms: C_11  and  C_12
REMARK                            x       y       z     vdW  Elec       q    Type
REMARK                         _______ _______ _______ _____ _____    ______ ____
ROOT
ATOM      1  C   UNL     1       1.579   5.357  19.940  0.00  0.00    +0.000 C 
ATOM      2  O   UNL     1       1.048   4.300  20.283  0.00  0.00    +0.000 OA
ATOM      3  N   UNL     1       1.533   6.399  20.821  0.00  0.00    +0.000 N 
ATOM      4  H   UNL     1       1.062   6.157  21.686  0.00  0.00    +0.000 HD
ENDROOT
BRANCH   1   7
ATOM      5  N   UNL     1       4.310   4.546  18.648  0.00  0.00    +0.000 N 
ATOM      6  C   UNL     1       3.702   5.846  18.651  0.00  0.00    +0.000 C 
ATOM      7  C   UNL     1       2.216   5.555  18.569  0.00  0.00    +0.000 C 
ATOM      8  C   UNL     1       2.175   4.279  17.720  0.00  0.00    +0.000 C 
ATOM      9  C   UNL     1       3.488   3.603  18.050  0.00  0.00    +0.000 C 
ATOM     10  O   UNL     1       3.786   2.454  17.763  0.00  0.00    +0.000 OA
BRANCH   5  11
ATOM     11  C   UNL     1       5.704   4.330  19.010  0.00  0.00    +0.000 C 
BRANCH  11  13
ATOM     12  C   UNL     1       7.778   5.786  19.203  0.00  0.00    +0.000 C 
ATOM     13  C   UNL     1       6.671   5.277  18.277  0.00  0.00    +0.000 C 
ATOM     14  C   UNL     1       7.282   4.584  17.061  0.00  0.00    +0.000 C 
ENDBRANCH  11  13
ENDBRANCH   5  11
ENDBRANCH   1   7
BRANCH   3  15
ATOM     15  C   UNL     1       2.085   7.736  20.712  0.00  0.00    +0.000 C 
BRANCH  15  16
ATOM     16  C   UNL     1       1.169   8.723  20.015  0.00  0.00    +0.000 A 
ATOM     17  C   UNL     1       1.316   9.037  18.650  0.00  0.00    +0.000 A 
ATOM     18  C   UNL     1       0.469   9.955  18.022  0.00  0.00    +0.000 A 
ATOM     19  C   UNL     1      -0.533  10.585  18.753  0.00  0.00    +0.000 A 
ATOM     20 CL   UNL     1      -1.567  11.721  17.982  0.00  0.00    +0.000 Cl
ATOM     21  C   UNL     1      -0.701  10.298  20.103  0.00  0.00    +0.000 A 
ATOM     22  C   UNL     1       0.142   9.375  20.728  0.00  0.00    +0.000 A 
ATOM     23 CL   UNL     1      -0.138   9.052  22.403  0.00  0.00    +0.000 Cl
ENDBRANCH  15  16
ENDBRANCH   3  15
TORSDOF 5
ENDMDL
