MODEL 1
REMARK VINA RESULT:      -6.8      0.000      0.000
REMARK  Name = 
REMARK  13 active torsions:
REMARK  status: ('A' for Active; 'I' for Inactive)
REMARK    1  A    between atoms: C_6  and  C_7
REMARK    2  A    between atoms: C_10  and  C_11
REMARK    3  A    between atoms: C_11  and  C_18
REMARK    4  A    between atoms: C_12  and  C_13
REMARK    5  A    between atoms: C_13  and  C_14
REMARK    6  A    between atoms: C_15  and  C_16
REMARK    7  A    between atoms: C_15  and  C_17
REMARK    8  A    between atoms: C_18  and  O_19
REMARK    9  A    between atoms: O_19  and  C_20
REMARK   10  A    between atoms: C_20  and  C_21
REMARK   11  A    between atoms: C_23  and  C_24
REMARK   12  A    between atoms: C_24  and  O_26
REMARK   13  A    between atoms: O_26  and  C_27
REMARK                            x       y       z     vdW  Elec       q    Type
REMARK                         _______ _______ _______ _____ _____    ______ ____
ROOT
ATOM      1  C   UNL     1       4.277   2.507  20.773  0.00  0.00    +0.000 C 
ATOM      2  C   UNL     1       3.877   3.667  20.209  0.00  0.00    +0.000 C 
ATOM      3  C   UNL     1       2.955   4.592  20.991  0.00  0.00    +0.000 C 
ATOM      4  C   UNL     1       1.459   4.509  20.620  0.00  0.00    +0.000 C 
ATOM      5  C   UNL     1       1.084   3.168  20.047  0.00  0.00    +0.000 C 
ATOM      6  C   UNL     1       0.989   2.887  18.735  0.00  0.00    +0.000 C 
ATOM      7  C   UNL     1       0.834   1.462  18.264  0.00  0.00    +0.000 C 
ATOM      8  C   UNL     1       1.049   3.938  17.654  0.00  0.00    +0.000 C 
ATOM      9  C   UNL     1       2.435   4.200  17.058  0.00  0.00    +0.000 C 
ATOM     10  C   UNL     1       3.474   4.982  17.924  0.00  0.00    +0.000 C 
ATOM     11  C   UNL     1       4.379   4.050  18.809  0.00  0.00    +0.000 C 
ENDROOT
BRANCH  10  12
ATOM     12  C   UNL     1       4.285   5.978  17.054  0.00  0.00    +0.000 C 
ATOM     13  C   UNL     1       5.055   5.672  15.982  0.00  0.00    +0.000 C 
BRANCH  13  14
ATOM     14  C   UNL     1       5.094   4.369  15.238  0.00  0.00    +0.000 C 
BRANCH  14  15
ATOM     15  C   UNL     1       6.237   4.122  14.299  0.00  0.00    +0.000 C 
ATOM     16  C   UNL     1       6.029   3.751  13.015  0.00  0.00    +0.000 C 
ATOM     17  C   UNL     1       4.660   3.542  12.409  0.00  0.00    +0.000 C 
ATOM     18  C   UNL     1       7.152   3.527  12.040  0.00  0.00    +0.000 C 
ENDBRANCH  14  15
ENDBRANCH  13  14
BRANCH  12  19
ATOM     19  C   UNL     1       4.143   7.431  17.500  0.00  0.00    +0.000 C 
BRANCH  19  20
ATOM     20  O   UNL     1       2.776   7.838  17.289  0.00  0.00    +0.000 OA
BRANCH  20  21
ATOM     21  C   UNL     1       2.104   8.316  18.372  0.00  0.00    +0.000 C 
ATOM     22  C   UNL     1       1.297   9.531  18.018  0.00  0.00    +0.000 C 
ATOM     23  O   UNL     1       2.134   7.842  19.495  0.00  0.00    +0.000 OA
ENDBRANCH  20  21
ENDBRANCH  19  20
ENDBRANCH  12  19
ENDBRANCH  10  12
BRANCH  11  24
ATOM     24  C   UNL     1       5.794   4.609  19.022  0.00  0.00    +0.000 C 
ATOM     25  O   UNL     1       6.092   5.528  19.774  0.00  0.00    +0.000 OA
BRANCH  24  26
ATOM     26  O   UNL     1       6.687   3.894  18.265  0.00  0.00    +0.000 OA
ATOM     27  C   UNL     1       7.844   4.598  17.811  0.00  0.00    +0.000 C 
ENDBRANCH  24  26
ENDBRANCH  11  24
TORSDOF 8
ENDMDL
MODEL 2
REMARK VINA RESULT:      -6.8      1.848      3.816
REMARK  Name = 
REMARK  13 active torsions:
REMARK  status: ('A' for Active; 'I' for Inactive)
REMARK    1  A    between atoms: C_6  and  C_7
REMARK    2  A    between atoms: C_10  and  C_11
REMARK    3  A    between atoms: C_11  and  C_18
REMARK    4  A    between atoms: C_12  and  C_13
REMARK    5  A    between atoms: C_13  and  C_14
REMARK    6  A    between atoms: C_15  and  C_16
REMARK    7  A    between atoms: C_15  and  C_17
REMARK    8  A    between atoms: C_18  and  O_19
REMARK    9  A    between atoms: O_19  and  C_20
REMARK   10  A    between atoms: C_20  and  C_21
REMARK   11  A    between atoms: C_23  and  C_24
REMARK   12  A    between atoms: C_24  and  O_26
REMARK   13  A    between atoms: O_26  and  C_27
REMARK                            x       y       z     vdW  Elec       q    Type
REMARK                         _______ _______ _______ _____ _____    ______ ____
ROOT
ATOM      1  C   UNL     1       1.355   5.409  18.416  0.00  0.00    +0.000 C 
ATOM      2  C   UNL     1       2.465   4.795  17.955  0.00  0.00    +0.000 C 
ATOM      3  C   UNL     1       2.318   3.593  17.033  0.00  0.00    +0.000 C 
ATOM      4  C   UNL     1       2.475   2.214  17.706  0.00  0.00    +0.000 C 
ATOM      5  C   UNL     1       2.128   2.250  19.171  0.00  0.00    +0.000 C 
ATOM      6  C   UNL     1       3.016   2.368  20.175  0.00  0.00    +0.000 C 
ATOM      7  C   UNL     1       2.551   2.625  21.586  0.00  0.00    +0.000 C 
ATOM      8  C   UNL     1       4.509   2.278  19.976  0.00  0.00    +0.000 C 
ATOM      9  C   UNL     1       5.231   3.610  19.754  0.00  0.00    +0.000 C 
ATOM     10  C   UNL     1       5.057   4.322  18.374  0.00  0.00    +0.000 C 
ATOM     11  C   UNL     1       3.852   5.332  18.340  0.00  0.00    +0.000 C 
ENDROOT
BRANCH  10  12
ATOM     12  C   UNL     1       6.394   4.947  17.898  0.00  0.00    +0.000 C 
ATOM     13  C   UNL     1       7.005   4.736  16.707  0.00  0.00    +0.000 C 
BRANCH  13  14
ATOM     14  C   UNL     1       6.417   4.079  15.493  0.00  0.00    +0.000 C 
BRANCH  14  15
ATOM     15  C   UNL     1       7.105   4.277  14.175  0.00  0.00    +0.000 C 
ATOM     16  C   UNL     1       6.491   3.983  13.005  0.00  0.00    +0.000 C 
ATOM     17  C   UNL     1       5.088   3.429  12.907  0.00  0.00    +0.000 C 
ATOM     18  C   UNL     1       7.140   4.202  11.667  0.00  0.00    +0.000 C 
ENDBRANCH  14  15
ENDBRANCH  13  14
BRANCH  12  19
ATOM     19  C   UNL     1       7.022   5.891  18.919  0.00  0.00    +0.000 C 
BRANCH  19  20
ATOM     20  O   UNL     1       8.091   6.611  18.272  0.00  0.00    +0.000 OA
BRANCH  20  21
ATOM     21  C   UNL     1       7.820   7.885  17.875  0.00  0.00    +0.000 C 
ATOM     22  C   UNL     1       8.608   8.882  18.674  0.00  0.00    +0.000 C 
ATOM     23  O   UNL     1       7.045   8.205  16.991  0.00  0.00    +0.000 OA
ENDBRANCH  20  21
ENDBRANCH  19  20
ENDBRANCH  12  19
ENDBRANCH  10  12
BRANCH  11  24
ATOM     24  C   UNL     1       4.096   6.532  17.412  0.00  0.00    +0.000 C 
ATOM     25  O   UNL     1       4.384   6.467  16.224  0.00  0.00    +0.000 OA
BRANCH  24  26
ATOM     26  O   UNL     1       3.907   7.696  18.111  0.00  0.00    +0.000 OA
ATOM     27  C   UNL     1       2.815   8.518  17.694  0.00  0.00    +0.000 C 
ENDBRANCH  24  26
ENDBRANCH  11  24
TORSDOF 8
ENDMDL
MODEL 3
REMARK VINA RESULT:      -6.5      0.799      1.083
REMARK  Name = 
REMARK  13 active torsions:
REMARK  status: ('A' for Active; 'I' for Inactive)
REMARK    1  A    between atoms: C_6  and  C_7
REMARK    2  A    between atoms: C_10  and  C_11
REMARK    3  A    between atoms: C_11  and  C_18
REMARK    4  A    between atoms: C_12  and  C_13
REMARK    5  A    between atoms: C_13  and  C_14
REMARK    6  A    between atoms: C_15  and  C_16
REMARK    7  A    between atoms: C_15  and  C_17
REMARK    8  A    between atoms: C_18  and  O_19
REMARK    9  A    between atoms: O_19  and  C_20
REMARK   10  A    between atoms: C_20  and  C_21
REMARK   11  A    between atoms: C_23  and  C_24
REMARK   12  A    between atoms: C_24  and  O_26
REMARK   13  A    between atoms: O_26  and  C_27
REMARK                            x       y       z     vdW  Elec       q    Type
REMARK                         _______ _______ _______ _____ _____    ______ ____
ROOT
ATOM      1  C   UNL     1       4.640   2.304  20.385  0.00  0.00    +0.000 C 
ATOM      2  C   UNL     1       4.258   3.511  19.917  0.00  0.00    +0.000 C 
ATOM      3  C   UNL     1       3.506   4.460  20.840  0.00  0.00    +0.000 C 
ATOM      4  C   UNL     1       1.974   4.492  20.656  0.00  0.00    +0.000 C 
ATOM      5  C   UNL     1       1.438   3.205  20.087  0.00  0.00    +0.000 C 
ATOM      6  C   UNL     1       1.164   2.988  18.788  0.00  0.00    +0.000 C 
ATOM      7  C   UNL     1       0.853   1.599  18.290  0.00  0.00    +0.000 C 
ATOM      8  C   UNL     1       1.166   4.080  17.746  0.00  0.00    +0.000 C 
ATOM      9  C   UNL     1       2.484   4.276  16.991  0.00  0.00    +0.000 C 
ATOM     10  C   UNL     1       3.673   4.949  17.747  0.00  0.00    +0.000 C 
ATOM     11  C   UNL     1       4.612   3.922  18.479  0.00  0.00    +0.000 C 
ENDROOT
BRANCH  10  12
ATOM     12  C   UNL     1       4.440   5.927  16.819  0.00  0.00    +0.000 C 
ATOM     13  C   UNL     1       5.134   5.602  15.701  0.00  0.00    +0.000 C 
BRANCH  13  14
ATOM     14  C   UNL     1       5.103   4.294  14.965  0.00  0.00    +0.000 C 
BRANCH  14  15
ATOM     15  C   UNL     1       6.234   3.977  14.033  0.00  0.00    +0.000 C 
ATOM     16  C   UNL     1       6.011   3.600  12.753  0.00  0.00    +0.000 C 
ATOM     17  C   UNL     1       4.634   3.452  12.147  0.00  0.00    +0.000 C 
ATOM     18  C   UNL     1       7.123   3.307  11.784  0.00  0.00    +0.000 C 
ENDBRANCH  14  15
ENDBRANCH  13  14
BRANCH  12  19
ATOM     19  C   UNL     1       4.351   7.384  17.264  0.00  0.00    +0.000 C 
BRANCH  19  20
ATOM     20  O   UNL     1       3.064   7.900  16.867  0.00  0.00    +0.000 OA
BRANCH  20  21
ATOM     21  C   UNL     1       2.405   8.668  17.778  0.00  0.00    +0.000 C 
ATOM     22  C   UNL     1       2.142   7.903  19.043  0.00  0.00    +0.000 C 
ATOM     23  O   UNL     1       2.060   9.826  17.618  0.00  0.00    +0.000 OA
ENDBRANCH  20  21
ENDBRANCH  19  20
ENDBRANCH  12  19
ENDBRANCH  10  12
BRANCH  11  24
ATOM     24  C   UNL     1       6.078   4.376  18.534  0.00  0.00    +0.000 C 
ATOM     25  O   UNL     1       6.976   3.974  17.807  0.00  0.00    +0.000 OA
BRANCH  24  26
ATOM     26  O   UNL     1       6.224   5.333  19.506  0.00  0.00    +0.000 OA
ATOM     27  C   UNL     1       7.556   5.783  19.761  0.00  0.00    +0.000 C 
ENDBRANCH  24  26
ENDBRANCH  11  24
TORSDOF 8
ENDMDL
MODEL 4
REMARK VINA RESULT:      -5.9      2.374      6.138
REMARK  Name = 
REMARK  13 active torsions:
REMARK  status: ('A' for Active; 'I' for Inactive)
REMARK    1  A    between atoms: C_6  and  C_7
REMARK    2  A    between atoms: C_10  and  C_11
REMARK    3  A    between atoms: C_11  and  C_18
REMARK    4  A    between atoms: C_12  and  C_13
REMARK    5  A    between atoms: C_13  and  C_14
REMARK    6  A    between atoms: C_15  and  C_16
REMARK    7  A    between atoms: C_15  and  C_17
REMARK    8  A    between atoms: C_18  and  O_19
REMARK    9  A    between atoms: O_19  and  C_20
REMARK   10  A    between atoms: C_20  and  C_21
REMARK   11  A    between atoms: C_23  and  C_24
REMARK   12  A    between atoms: C_24  and  O_26
REMARK   13  A    between atoms: O_26  and  C_27
REMARK                            x       y       z     vdW  Elec       q    Type
REMARK                         _______ _______ _______ _____ _____    ______ ____
ROOT
ATOM      1  C   UNL     1       5.267   2.916  15.749  0.00  0.00    +0.000 C 
ATOM      2  C   UNL     1       4.826   4.077  16.279  0.00  0.00    +0.000 C 
ATOM      3  C   UNL     1       4.948   5.357  15.465  0.00  0.00    +0.000 C 
ATOM      4  C   UNL     1       6.147   6.261  15.822  0.00  0.00    +0.000 C 
ATOM      5  C   UNL     1       7.289   5.487  16.424  0.00  0.00    +0.000 C 
ATOM      6  C   UNL     1       7.533   5.366  17.742  0.00  0.00    +0.000 C 
ATOM      7  C   UNL     1       8.560   4.384  18.246  0.00  0.00    +0.000 C 
ATOM      8  C   UNL     1       6.805   6.162  18.797  0.00  0.00    +0.000 C 
ATOM      9  C   UNL     1       5.568   5.491  19.401  0.00  0.00    +0.000 C 
ATOM     10  C   UNL     1       4.276   5.404  18.527  0.00  0.00    +0.000 C 
ATOM     11  C   UNL     1       4.184   4.085  17.675  0.00  0.00    +0.000 C 
ENDROOT
BRANCH  10  12
ATOM     12  C   UNL     1       3.009   5.671  19.381  0.00  0.00    +0.000 C 
ATOM     13  C   UNL     1       2.071   6.624  19.159  0.00  0.00    +0.000 C 
BRANCH  13  14
ATOM     14  C   UNL     1       1.898   7.450  17.918  0.00  0.00    +0.000 C 
BRANCH  14  15
ATOM     15  C   UNL     1       2.479   8.832  17.898  0.00  0.00    +0.000 C 
ATOM     16  C   UNL     1       1.706   9.928  18.075  0.00  0.00    +0.000 C 
ATOM     17  C   UNL     1       0.212   9.877  18.295  0.00  0.00    +0.000 C 
ATOM     18  C   UNL     1       2.263  11.324  18.094  0.00  0.00    +0.000 C 
ENDBRANCH  14  15
ENDBRANCH  13  14
BRANCH  12  19
ATOM     19  C   UNL     1       2.862   4.720  20.566  0.00  0.00    +0.000 C 
BRANCH  19  20
ATOM     20  O   UNL     1       1.456   4.531  20.822  0.00  0.00    +0.000 OA
BRANCH  20  21
ATOM     21  C   UNL     1       0.979   3.260  20.714  0.00  0.00    +0.000 C 
ATOM     22  C   UNL     1       1.488   2.392  21.828  0.00  0.00    +0.000 C 
ATOM     23  O   UNL     1       0.235   2.851  19.838  0.00  0.00    +0.000 OA
ENDBRANCH  20  21
ENDBRANCH  19  20
ENDBRANCH  12  19
ENDBRANCH  10  12
BRANCH  11  24
ATOM     24  C   UNL     1       2.742   3.602  17.463  0.00  0.00    +0.000 C 
ATOM     25  O   UNL     1       1.830   4.267  16.988  0.00  0.00    +0.000 OA
BRANCH  24  26
ATOM     26  O   UNL     1       2.635   2.293  17.856  0.00  0.00    +0.000 OA
ATOM     27  C   UNL     1       3.650   1.809  18.738  0.00  0.00    +0.000 C 
ENDBRANCH  24  26
ENDBRANCH  11  24
TORSDOF 8
ENDMDL
MODEL 5
REMARK VINA RESULT:      -5.8      8.381     10.837
REMARK  Name = 
REMARK  13 active torsions:
REMARK  status: ('A' for Active; 'I' for Inactive)
REMARK    1  A    between atoms: C_6  and  C_7
REMARK    2  A    between atoms: C_10  and  C_11
REMARK    3  A    between atoms: C_11  and  C_18
REMARK    4  A    between atoms: C_12  and  C_13
REMARK    5  A    between atoms: C_13  and  C_14
REMARK    6  A    between atoms: C_15  and  C_16
REMARK    7  A    between atoms: C_15  and  C_17
REMARK    8  A    between atoms: C_18  and  O_19
REMARK    9  A    between atoms: O_19  and  C_20
REMARK   10  A    between atoms: C_20  and  C_21
REMARK   11  A    between atoms: C_23  and  C_24
REMARK   12  A    between atoms: C_24  and  O_26
REMARK   13  A    between atoms: O_26  and  C_27
REMARK                            x       y       z     vdW  Elec       q    Type
REMARK                         _______ _______ _______ _____ _____    ______ ____
ROOT
ATOM      1  C   UNL     1      -3.530  12.229  24.121  0.00  0.00    +0.000 C 
ATOM      2  C   UNL     1      -3.079  12.930  23.059  0.00  0.00    +0.000 C 
ATOM      3  C   UNL     1      -3.175  14.449  23.079  0.00  0.00    +0.000 C 
ATOM      4  C   UNL     1      -4.364  15.051  22.301  0.00  0.00    +0.000 C 
ATOM      5  C   UNL     1      -5.523  14.095  22.197  0.00  0.00    +0.000 C 
ATOM      6  C   UNL     1      -5.780  13.303  21.140  0.00  0.00    +0.000 C 
ATOM      7  C   UNL     1      -6.826  12.220  21.228  0.00  0.00    +0.000 C 
ATOM      8  C   UNL     1      -5.051  13.414  19.823  0.00  0.00    +0.000 C 
ATOM      9  C   UNL     1      -3.830  12.505  19.662  0.00  0.00    +0.000 C 
ATOM     10  C   UNL     1      -2.531  12.868  20.449  0.00  0.00    +0.000 C 
ATOM     11  C   UNL     1      -2.450  12.193  21.867  0.00  0.00    +0.000 C 
ENDROOT
BRANCH  10  12
ATOM     12  C   UNL     1      -1.268  12.626  19.581  0.00  0.00    +0.000 C 
ATOM     13  C   UNL     1      -1.026  11.553  18.790  0.00  0.00    +0.000 C 
BRANCH  13  14
ATOM     14  C   UNL     1      -2.009  10.502  18.366  0.00  0.00    +0.000 C 
BRANCH  14  15
ATOM     15  C   UNL     1      -2.002  10.059  16.933  0.00  0.00    +0.000 C 
ATOM     16  C   UNL     1      -2.979  10.430  16.074  0.00  0.00    +0.000 C 
ATOM     17  C   UNL     1      -4.155  11.298  16.459  0.00  0.00    +0.000 C 
ATOM     18  C   UNL     1      -2.983  10.032  14.624  0.00  0.00    +0.000 C 
ENDBRANCH  14  15
ENDBRANCH  13  14
BRANCH  12  19
ATOM     19  C   UNL     1      -0.245  13.755  19.668  0.00  0.00    +0.000 C 
BRANCH  19  20
ATOM     20  O   UNL     1      -0.445  14.635  18.543  0.00  0.00    +0.000 OA
BRANCH  20  21
ATOM     21  C   UNL     1      -0.563  15.963  18.818  0.00  0.00    +0.000 C 
ATOM     22  C   UNL     1      -0.770  16.197  20.286  0.00  0.00    +0.000 C 
ATOM     23  O   UNL     1      -0.512  16.867  18.001  0.00  0.00    +0.000 OA
ENDBRANCH  20  21
ENDBRANCH  19  20
ENDBRANCH  12  19
ENDBRANCH  10  12
BRANCH  11  24
ATOM     24  C   UNL     1      -1.012  11.870  22.301  0.00  0.00    +0.000 C 
ATOM     25  O   UNL     1      -0.227  12.658  22.810  0.00  0.00    +0.000 OA
BRANCH  24  26
ATOM     26  O   UNL     1      -0.749  10.545  22.061  0.00  0.00    +0.000 OA
ATOM     27  C   UNL     1      -0.435   9.742  23.201  0.00  0.00    +0.000 C 
ENDBRANCH  24  26
ENDBRANCH  11  24
TORSDOF 8
ENDMDL
MODEL 6
REMARK VINA RESULT:      -5.7      0.726      1.164
REMARK  Name = 
REMARK  13 active torsions:
REMARK  status: ('A' for Active; 'I' for Inactive)
REMARK    1  A    between atoms: C_6  and  C_7
REMARK    2  A    between atoms: C_10  and  C_11
REMARK    3  A    between atoms: C_11  and  C_18
REMARK    4  A    between atoms: C_12  and  C_13
REMARK    5  A    between atoms: C_13  and  C_14
REMARK    6  A    between atoms: C_15  and  C_16
REMARK    7  A    between atoms: C_15  and  C_17
REMARK    8  A    between atoms: C_18  and  O_19
REMARK    9  A    between atoms: O_19  and  C_20
REMARK   10  A    between atoms: C_20  and  C_21
REMARK   11  A    between atoms: C_23  and  C_24
REMARK   12  A    between atoms: C_24  and  O_26
REMARK   13  A    between atoms: O_26  and  C_27
REMARK                            x       y       z     vdW  Elec       q    Type
REMARK                         _______ _______ _______ _____ _____    ______ ____
ROOT
ATOM      1  C   UNL     1       4.707   2.261  20.399  0.00  0.00    +0.000 C 
ATOM      2  C   UNL     1       4.339   3.467  19.916  0.00  0.00    +0.000 C 
ATOM      3  C   UNL     1       3.551   4.414  20.810  0.00  0.00    +0.000 C 
ATOM      4  C   UNL     1       2.026   4.442  20.570  0.00  0.00    +0.000 C 
ATOM      5  C   UNL     1       1.515   3.153  19.983  0.00  0.00    +0.000 C 
ATOM      6  C   UNL     1       1.289   2.935  18.675  0.00  0.00    +0.000 C 
ATOM      7  C   UNL     1       1.000   1.544  18.167  0.00  0.00    +0.000 C 
ATOM      8  C   UNL     1       1.326   4.026  17.633  0.00  0.00    +0.000 C 
ATOM      9  C   UNL     1       2.670   4.224  16.927  0.00  0.00    +0.000 C 
ATOM     10  C   UNL     1       3.829   4.902  17.726  0.00  0.00    +0.000 C 
ATOM     11  C   UNL     1       4.743   3.877  18.492  0.00  0.00    +0.000 C 
ENDROOT
BRANCH  10  12
ATOM     12  C   UNL     1       4.627   5.881  16.825  0.00  0.00    +0.000 C 
ATOM     13  C   UNL     1       5.432   5.550  15.787  0.00  0.00    +0.000 C 
BRANCH  13  14
ATOM     14  C   UNL     1       5.531   4.214  15.110  0.00  0.00    +0.000 C 
BRANCH  14  15
ATOM     15  C   UNL     1       4.665   3.959  13.913  0.00  0.00    +0.000 C 
ATOM     16  C   UNL     1       5.197   3.666  12.704  0.00  0.00    +0.000 C 
ATOM     17  C   UNL     1       6.682   3.577  12.437  0.00  0.00    +0.000 C 
ATOM     18  C   UNL     1       4.356   3.372  11.493  0.00  0.00    +0.000 C 
ENDBRANCH  14  15
ENDBRANCH  13  14
BRANCH  12  19
ATOM     19  C   UNL     1       4.427   7.348  17.196  0.00  0.00    +0.000 C 
BRANCH  19  20
ATOM     20  O   UNL     1       3.020   7.649  17.110  0.00  0.00    +0.000 OA
BRANCH  20  21
ATOM     21  C   UNL     1       2.445   8.214  18.207  0.00  0.00    +0.000 C 
ATOM     22  C   UNL     1       1.986   9.614  17.919  0.00  0.00    +0.000 C 
ATOM     23  O   UNL     1       2.309   7.680  19.294  0.00  0.00    +0.000 OA
ENDBRANCH  20  21
ENDBRANCH  19  20
ENDBRANCH  12  19
ENDBRANCH  10  12
BRANCH  11  24
ATOM     24  C   UNL     1       6.205   4.336  18.600  0.00  0.00    +0.000 C 
ATOM     25  O   UNL     1       7.125   3.959  17.886  0.00  0.00    +0.000 OA
BRANCH  24  26
ATOM     26  O   UNL     1       6.320   5.265  19.603  0.00  0.00    +0.000 OA
ATOM     27  C   UNL     1       7.617   5.830  19.801  0.00  0.00    +0.000 C 
ENDBRANCH  24  26
ENDBRANCH  11  24
TORSDOF 8
ENDMDL
MODEL 7
REMARK VINA RESULT:      -5.7      2.225      6.493
REMARK  Name = 
REMARK  13 active torsions:
REMARK  status: ('A' for Active; 'I' for Inactive)
REMARK    1  A    between atoms: C_6  and  C_7
REMARK    2  A    between atoms: C_10  and  C_11
REMARK    3  A    between atoms: C_11  and  C_18
REMARK    4  A    between atoms: C_12  and  C_13
REMARK    5  A    between atoms: C_13  and  C_14
REMARK    6  A    between atoms: C_15  and  C_16
REMARK    7  A    between atoms: C_15  and  C_17
REMARK    8  A    between atoms: C_18  and  O_19
REMARK    9  A    between atoms: O_19  and  C_20
REMARK   10  A    between atoms: C_20  and  C_21
REMARK   11  A    between atoms: C_23  and  C_24
REMARK   12  A    between atoms: C_24  and  O_26
REMARK   13  A    between atoms: O_26  and  C_27
REMARK                            x       y       z     vdW  Elec       q    Type
REMARK                         _______ _______ _______ _____ _____    ______ ____
ROOT
ATOM      1  C   UNL     1       4.951   4.166  15.432  0.00  0.00    +0.000 C 
ATOM      2  C   UNL     1       4.661   5.062  16.400  0.00  0.00    +0.000 C 
ATOM      3  C   UNL     1       4.859   6.545  16.120  0.00  0.00    +0.000 C 
ATOM      4  C   UNL     1       6.161   7.159  16.676  0.00  0.00    +0.000 C 
ATOM      5  C   UNL     1       7.256   6.137  16.831  0.00  0.00    +0.000 C 
ATOM      6  C   UNL     1       7.567   5.504  17.976  0.00  0.00    +0.000 C 
ATOM      7  C   UNL     1       8.521   4.336  17.974  0.00  0.00    +0.000 C 
ATOM      8  C   UNL     1       6.988   5.882  19.317  0.00  0.00    +0.000 C 
ATOM      9  C   UNL     1       5.730   5.116  19.738  0.00  0.00    +0.000 C 
ATOM     10  C   UNL     1       4.385   5.459  19.023  0.00  0.00    +0.000 C 
ATOM     11  C   UNL     1       4.111   4.578  17.750  0.00  0.00    +0.000 C 
ENDROOT
BRANCH  10  12
ATOM     12  C   UNL     1       3.205   5.464  20.031  0.00  0.00    +0.000 C 
ATOM     13  C   UNL     1       2.320   6.470  20.233  0.00  0.00    +0.000 C 
BRANCH  13  14
ATOM     14  C   UNL     1       2.110   7.678  19.367  0.00  0.00    +0.000 C 
BRANCH  14  15
ATOM     15  C   UNL     1       1.194   8.756  19.863  0.00  0.00    +0.000 C 
ATOM     16  C   UNL     1       1.083   9.941  19.220  0.00  0.00    +0.000 C 
ATOM     17  C   UNL     1       1.858  10.298  17.973  0.00  0.00    +0.000 C 
ATOM     18  C   UNL     1       0.149  11.029  19.673  0.00  0.00    +0.000 C 
ENDBRANCH  14  15
ENDBRANCH  13  14
BRANCH  12  19
ATOM     19  C   UNL     1       3.084   4.170  20.831  0.00  0.00    +0.000 C 
BRANCH  19  20
ATOM     20  O   UNL     1       1.737   4.076  21.337  0.00  0.00    +0.000 OA
BRANCH  20  21
ATOM     21  C   UNL     1       1.174   2.836  21.356  0.00  0.00    +0.000 C 
ATOM     22  C   UNL     1       0.505   2.524  20.049  0.00  0.00    +0.000 C 
ATOM     23  O   UNL     1       1.194   2.059  22.295  0.00  0.00    +0.000 OA
ENDBRANCH  20  21
ENDBRANCH  19  20
ENDBRANCH  12  19
ENDBRANCH  10  12
BRANCH  11  24
ATOM     24  C   UNL     1       2.617   4.313  17.509  0.00  0.00    +0.000 C 
ATOM     25  O   UNL     1       1.744   5.168  17.435  0.00  0.00    +0.000 OA
BRANCH  24  26
ATOM     26  O   UNL     1       2.411   2.966  17.353  0.00  0.00    +0.000 OA
ATOM     27  C   UNL     1       3.405   2.102  17.907  0.00  0.00    +0.000 C 
ENDBRANCH  24  26
ENDBRANCH  11  24
TORSDOF 8
ENDMDL
MODEL 8
REMARK VINA RESULT:      -5.6      4.388      8.084
REMARK  Name = 
REMARK  13 active torsions:
REMARK  status: ('A' for Active; 'I' for Inactive)
REMARK    1  A    between atoms: C_6  and  C_7
REMARK    2  A    between atoms: C_10  and  C_11
REMARK    3  A    between atoms: C_11  and  C_18
REMARK    4  A    between atoms: C_12  and  C_13
REMARK    5  A    between atoms: C_13  and  C_14
REMARK    6  A    between atoms: C_15  and  C_16
REMARK    7  A    between atoms: C_15  and  C_17
REMARK    8  A    between atoms: C_18  and  O_19
REMARK    9  A    between atoms: O_19  and  C_20
REMARK   10  A    between atoms: C_20  and  C_21
REMARK   11  A    between atoms: C_23  and  C_24
REMARK   12  A    between atoms: C_24  and  O_26
REMARK   13  A    between atoms: O_26  and  C_27
REMARK                            x       y       z     vdW  Elec       q    Type
REMARK                         _______ _______ _______ _____ _____    ______ ____
ROOT
ATOM      1  C   UNL     1       0.631  13.387  21.696  0.00  0.00    +0.000 C 
ATOM      2  C   UNL     1      -0.221  12.573  21.037  0.00  0.00    +0.000 C 
ATOM      3  C   UNL     1      -1.711  12.666  21.332  0.00  0.00    +0.000 C 
ATOM      4  C   UNL     1      -2.268  11.597  22.294  0.00  0.00    +0.000 C 
ATOM      5  C   UNL     1      -1.215  11.067  23.231  0.00  0.00    +0.000 C 
ATOM      6  C   UNL     1      -0.518   9.930  23.050  0.00  0.00    +0.000 C 
ATOM      7  C   UNL     1       0.669   9.609  23.922  0.00  0.00    +0.000 C 
ATOM      8  C   UNL     1      -0.842   8.922  21.975  0.00  0.00    +0.000 C 
ATOM      9  C   UNL     1      -0.084   9.091  20.655  0.00  0.00    +0.000 C 
ATOM     10  C   UNL     1      -0.492  10.271  19.717  0.00  0.00    +0.000 C 
ATOM     11  C   UNL     1       0.318  11.592  19.985  0.00  0.00    +0.000 C 
ENDROOT
BRANCH  10  12
ATOM     12  C   UNL     1      -0.473   9.831  18.229  0.00  0.00    +0.000 C 
ATOM     13  C   UNL     1       0.619   9.502  17.498  0.00  0.00    +0.000 C 
BRANCH  13  14
ATOM     14  C   UNL     1       2.004   9.233  18.012  0.00  0.00    +0.000 C 
BRANCH  14  15
ATOM     15  C   UNL     1       2.745   8.048  17.468  0.00  0.00    +0.000 C 
ATOM     16  C   UNL     1       2.930   6.930  18.206  0.00  0.00    +0.000 C 
ATOM     17  C   UNL     1       2.432   6.764  19.623  0.00  0.00    +0.000 C 
ATOM     18  C   UNL     1       3.639   5.713  17.678  0.00  0.00    +0.000 C 
ENDBRANCH  14  15
ENDBRANCH  13  14
BRANCH  12  19
ATOM     19  C   UNL     1      -1.860   9.775  17.594  0.00  0.00    +0.000 C 
BRANCH  19  20
ATOM     20  O   UNL     1      -2.055  10.979  16.825  0.00  0.00    +0.000 OA
BRANCH  20  21
ATOM     21  C   UNL     1      -3.142  11.014  16.007  0.00  0.00    +0.000 C 
ATOM     22  C   UNL     1      -2.919  10.188  14.773  0.00  0.00    +0.000 C 
ATOM     23  O   UNL     1      -4.175  11.626  16.220  0.00  0.00    +0.000 OA
ENDBRANCH  20  21
ENDBRANCH  19  20
ENDBRANCH  12  19
ENDBRANCH  10  12
BRANCH  11  24
ATOM     24  C   UNL     1       0.537  12.434  18.718  0.00  0.00    +0.000 C 
ATOM     25  O   UNL     1      -0.331  13.044  18.109  0.00  0.00    +0.000 OA
BRANCH  24  26
ATOM     26  O   UNL     1       1.868  12.426  18.390  0.00  0.00    +0.000 OA
ATOM     27  C   UNL     1       2.541  13.686  18.430  0.00  0.00    +0.000 C 
ENDBRANCH  24  26
ENDBRANCH  11  24
TORSDOF 8
ENDMDL
MODEL 9
REMARK VINA RESULT:      -5.5      8.501     11.679
REMARK  Name = 
REMARK  13 active torsions:
REMARK  status: ('A' for Active; 'I' for Inactive)
REMARK    1  A    between atoms: C_6  and  C_7
REMARK    2  A    between atoms: C_10  and  C_11
REMARK    3  A    between atoms: C_11  and  C_18
REMARK    4  A    between atoms: C_12  and  C_13
REMARK    5  A    between atoms: C_13  and  C_14
REMARK    6  A    between atoms: C_15  and  C_16
REMARK    7  A    between atoms: C_15  and  C_17
REMARK    8  A    between atoms: C_18  and  O_19
REMARK    9  A    between atoms: O_19  and  C_20
REMARK   10  A    between atoms: C_20  and  C_21
REMARK   11  A    between atoms: C_23  and  C_24
REMARK   12  A    between atoms: C_24  and  O_26
REMARK   13  A    between atoms: O_26  and  C_27
REMARK                            x       y       z     vdW  Elec       q    Type
REMARK                         _______ _______ _______ _____ _____    ______ ____
ROOT
ATOM      1  C   UNL     1       3.015  13.766  21.250  0.00  0.00    +0.000 C 
ATOM      2  C   UNL     1       2.215  13.516  20.192  0.00  0.00    +0.000 C 
ATOM      3  C   UNL     1       2.824  13.469  18.797  0.00  0.00    +0.000 C 
ATOM      4  C   UNL     1       2.651  14.748  17.953  0.00  0.00    +0.000 C 
ATOM      5  C   UNL     1       2.492  15.980  18.805  0.00  0.00    +0.000 C 
ATOM      6  C   UNL     1       1.317  16.548  19.132  0.00  0.00    +0.000 C 
ATOM      7  C   UNL     1       1.253  17.636  20.174  0.00  0.00    +0.000 C 
ATOM      8  C   UNL     1      -0.001  16.141  18.519  0.00  0.00    +0.000 C 
ATOM      9  C   UNL     1      -0.791  15.077  19.287  0.00  0.00    +0.000 C 
ATOM     10  C   UNL     1      -0.277  13.603  19.243  0.00  0.00    +0.000 C 
ATOM     11  C   UNL     1       0.717  13.252  20.410  0.00  0.00    +0.000 C 
ENDROOT
BRANCH  10  12
ATOM     12  C   UNL     1      -1.459  12.605  19.125  0.00  0.00    +0.000 C 
ATOM     13  C   UNL     1      -2.489  12.466  19.994  0.00  0.00    +0.000 C 
BRANCH  13  14
ATOM     14  C   UNL     1      -2.865  13.400  21.107  0.00  0.00    +0.000 C 
BRANCH  14  15
ATOM     15  C   UNL     1      -3.676  12.857  22.246  0.00  0.00    +0.000 C 
ATOM     16  C   UNL     1      -3.334  13.092  23.533  0.00  0.00    +0.000 C 
ATOM     17  C   UNL     1      -2.125  13.898  23.950  0.00  0.00    +0.000 C 
ATOM     18  C   UNL     1      -4.145  12.591  24.696  0.00  0.00    +0.000 C 
ENDBRANCH  14  15
ENDBRANCH  13  14
BRANCH  12  19
ATOM     19  C   UNL     1      -1.396  11.734  17.873  0.00  0.00    +0.000 C 
BRANCH  19  20
ATOM     20  O   UNL     1      -2.614  10.965  17.795  0.00  0.00    +0.000 OA
BRANCH  20  21
ATOM     21  C   UNL     1      -3.401  11.172  16.704  0.00  0.00    +0.000 C 
ATOM     22  C   UNL     1      -2.802  10.549  15.477  0.00  0.00    +0.000 C 
ATOM     23  O   UNL     1      -4.458  11.779  16.693  0.00  0.00    +0.000 OA
ENDBRANCH  20  21
ENDBRANCH  19  20
ENDBRANCH  12  19
ENDBRANCH  10  12
BRANCH  11  24
ATOM     24  C   UNL     1       0.623  11.787  20.864  0.00  0.00    +0.000 C 
ATOM     25  O   UNL     1       1.009  10.818  20.225  0.00  0.00    +0.000 OA
BRANCH  24  26
ATOM     26  O   UNL     1       0.069  11.732  22.117  0.00  0.00    +0.000 OA
ATOM     27  C   UNL     1      -0.487  10.477  22.513  0.00  0.00    +0.000 C 
ENDBRANCH  24  26
ENDBRANCH  11  24
TORSDOF 8
ENDMDL
