MODEL 1
REMARK VINA RESULT:      -7.5      0.000      0.000
REMARK  Name = 
REMARK  5 active torsions:
REMARK  status: ('A' for Active; 'I' for Inactive)
REMARK    1  A    between atoms: C_1  and  C_2
REMARK    2  A    between atoms: C_2  and  C_4
REMARK    3  A    between atoms: C_10  and  C_11
REMARK    4  A    between atoms: C_11  and  O_13
REMARK    5  A    between atoms: C_14  and  O_15
REMARK                            x       y       z     vdW  Elec       q    Type
REMARK                         _______ _______ _______ _____ _____    ______ ____
ROOT
ATOM      1  C   UNL     1       5.487   5.221  15.895  0.00  0.00    +0.000 A 
ATOM      2  C   UNL     1       5.425   6.505  16.435  0.00  0.00    +0.000 A 
ATOM      3  C   UNL     1       4.484   6.799  17.429  0.00  0.00    +0.000 A 
ATOM      4  C   UNL     1       3.602   5.845  17.913  0.00  0.00    +0.000 A 
ATOM      5  N   UNL     1       2.753   6.195  18.893  0.00  0.00    +0.000 NA
ATOM      6  C   UNL     1       1.916   5.252  19.385  0.00  0.00    +0.000 A 
ATOM      7  C   UNL     1       1.845   3.956  18.911  0.00  0.00    +0.000 A 
ATOM      8  C   UNL     1       2.738   3.600  17.895  0.00  0.00    +0.000 A 
ATOM      9  C   UNL     1       3.645   4.545  17.369  0.00  0.00    +0.000 A 
ATOM     10  C   UNL     1       4.591   4.248  16.359  0.00  0.00    +0.000 A 
ENDROOT
BRANCH   1  12
ATOM     11  C   UNL     1       6.081   3.880  13.768  0.00  0.00    +0.000 C 
ATOM     12  C   UNL     1       6.486   4.849  14.849  0.00  0.00    +0.000 C 
ATOM     13  O   UNL     1       7.612   5.336  14.877  0.00  0.00    +0.000 OA
ENDBRANCH   1  12
BRANCH   7  14
ATOM     14  C   UNL     1       0.927   2.963  19.497  0.00  0.00    +0.000 C 
ATOM     15  O   UNL     1       0.339   2.161  18.785  0.00  0.00    +0.000 OA
BRANCH  14  16
ATOM     16  O   UNL     1       0.753   3.019  20.832  0.00  0.00    +0.000 OA
ATOM     17  H   UNL     1       0.809   3.890  21.263  0.00  0.00    +0.000 HD
ENDBRANCH  14  16
ENDBRANCH   7  14
BRANCH   8  18
ATOM     18  O   UNL     1       2.774   2.324  17.378  0.00  0.00    +0.000 OA
ATOM     19  H   UNL     1       1.958   1.840  17.640  0.00  0.00    +0.000 HD
ENDBRANCH   8  18
TORSDOF 4
ENDMDL
MODEL 2
REMARK VINA RESULT:      -7.5      1.182      1.411
REMARK  Name = 
REMARK  5 active torsions:
REMARK  status: ('A' for Active; 'I' for Inactive)
REMARK    1  A    between atoms: C_1  and  C_2
REMARK    2  A    between atoms: C_2  and  C_4
REMARK    3  A    between atoms: C_10  and  C_11
REMARK    4  A    between atoms: C_11  and  O_13
REMARK    5  A    between atoms: C_14  and  O_15
REMARK                            x       y       z     vdW  Elec       q    Type
REMARK                         _______ _______ _______ _____ _____    ______ ____
ROOT
ATOM      1  C   UNL     1       5.390   5.347  16.378  0.00  0.00    +0.000 A 
ATOM      2  C   UNL     1       4.916   6.651  16.516  0.00  0.00    +0.000 A 
ATOM      3  C   UNL     1       3.981   6.952  17.514  0.00  0.00    +0.000 A 
ATOM      4  C   UNL     1       3.508   5.989  18.392  0.00  0.00    +0.000 A 
ATOM      5  N   UNL     1       2.639   6.364  19.346  0.00  0.00    +0.000 NA
ATOM      6  C   UNL     1       2.204   5.428  20.221  0.00  0.00    +0.000 A 
ATOM      7  C   UNL     1       2.561   4.094  20.171  0.00  0.00    +0.000 A 
ATOM      8  C   UNL     1       3.470   3.716  19.178  0.00  0.00    +0.000 A 
ATOM      9  C   UNL     1       3.969   4.664  18.259  0.00  0.00    +0.000 A 
ATOM     10  C   UNL     1       4.909   4.357  17.245  0.00  0.00    +0.000 A 
ENDROOT
BRANCH   1  12
ATOM     11  C   UNL     1       6.059   3.914  14.335  0.00  0.00    +0.000 C 
ATOM     12  C   UNL     1       6.404   4.979  15.345  0.00  0.00    +0.000 C 
ATOM     13  O   UNL     1       7.493   5.544  15.325  0.00  0.00    +0.000 OA
ENDBRANCH   1  12
BRANCH   7  14
ATOM     14  C   UNL     1       2.071   3.120  21.162  0.00  0.00    +0.000 C 
ATOM     15  O   UNL     1       2.848   2.565  21.927  0.00  0.00    +0.000 OA
BRANCH  14  16
ATOM     16  O   UNL     1       0.750   2.858  21.147  0.00  0.00    +0.000 OA
ATOM     17  H   UNL     1       0.468   1.928  21.219  0.00  0.00    +0.000 HD
ENDBRANCH  14  16
ENDBRANCH   7  14
BRANCH   8  18
ATOM     18  O   UNL     1       3.919   2.419  19.064  0.00  0.00    +0.000 OA
ATOM     19  H   UNL     1       3.371   1.830  19.630  0.00  0.00    +0.000 HD
ENDBRANCH   8  18
TORSDOF 4
ENDMDL
MODEL 3
REMARK VINA RESULT:      -7.3      1.390      1.462
REMARK  Name = 
REMARK  5 active torsions:
REMARK  status: ('A' for Active; 'I' for Inactive)
REMARK    1  A    between atoms: C_1  and  C_2
REMARK    2  A    between atoms: C_2  and  C_4
REMARK    3  A    between atoms: C_10  and  C_11
REMARK    4  A    between atoms: C_11  and  O_13
REMARK    5  A    between atoms: C_14  and  O_15
REMARK                            x       y       z     vdW  Elec       q    Type
REMARK                         _______ _______ _______ _____ _____    ______ ____
ROOT
ATOM      1  C   UNL     1       6.194   4.590  15.998  0.00  0.00    +0.000 A 
ATOM      2  C   UNL     1       6.939   4.915  17.132  0.00  0.00    +0.000 A 
ATOM      3  C   UNL     1       6.359   4.811  18.401  0.00  0.00    +0.000 A 
ATOM      4  C   UNL     1       5.053   4.381  18.580  0.00  0.00    +0.000 A 
ATOM      5  N   UNL     1       4.581   4.273  19.833  0.00  0.00    +0.000 NA
ATOM      6  C   UNL     1       3.316   3.822  20.005  0.00  0.00    +0.000 A 
ATOM      7  C   UNL     1       2.458   3.506  18.969  0.00  0.00    +0.000 A 
ATOM      8  C   UNL     1       2.962   3.616  17.669  0.00  0.00    +0.000 A 
ATOM      9  C   UNL     1       4.284   4.059  17.444  0.00  0.00    +0.000 A 
ATOM     10  C   UNL     1       4.867   4.171  16.159  0.00  0.00    +0.000 A 
ENDROOT
BRANCH   1  12
ATOM     11  C   UNL     1       6.152   3.833  13.529  0.00  0.00    +0.000 C 
ATOM     12  C   UNL     1       6.773   4.663  14.623  0.00  0.00    +0.000 C 
ATOM     13  O   UNL     1       7.732   5.395  14.400  0.00  0.00    +0.000 OA
ENDBRANCH   1  12
BRANCH   7  14
ATOM     14  C   UNL     1       1.096   3.000  19.214  0.00  0.00    +0.000 C 
ATOM     15  O   UNL     1       0.568   2.225  18.429  0.00  0.00    +0.000 OA
BRANCH  14  16
ATOM     16  O   UNL     1       0.470   3.464  20.313  0.00  0.00    +0.000 OA
ATOM     17  H   UNL     1       0.628   4.390  20.571  0.00  0.00    +0.000 HD
ENDBRANCH  14  16
ENDBRANCH   7  14
BRANCH   8  18
ATOM     18  O   UNL     1       2.202   3.291  16.568  0.00  0.00    +0.000 OA
ATOM     19  H   UNL     1       1.250   3.292  16.814  0.00  0.00    +0.000 HD
ENDBRANCH   8  18
TORSDOF 4
ENDMDL
MODEL 4
REMARK VINA RESULT:      -7.1      1.358      5.698
REMARK  Name = 
REMARK  5 active torsions:
REMARK  status: ('A' for Active; 'I' for Inactive)
REMARK    1  A    between atoms: C_1  and  C_2
REMARK    2  A    between atoms: C_2  and  C_4
REMARK    3  A    between atoms: C_10  and  C_11
REMARK    4  A    between atoms: C_11  and  O_13
REMARK    5  A    between atoms: C_14  and  O_15
REMARK                            x       y       z     vdW  Elec       q    Type
REMARK                         _______ _______ _______ _____ _____    ______ ____
ROOT
ATOM      1  C   UNL     1       2.362   4.262  19.351  0.00  0.00    +0.000 A 
ATOM      2  C   UNL     1       2.145   5.637  19.433  0.00  0.00    +0.000 A 
ATOM      3  C   UNL     1       2.874   6.509  18.617  0.00  0.00    +0.000 A 
ATOM      4  C   UNL     1       3.813   6.050  17.705  0.00  0.00    +0.000 A 
ATOM      5  N   UNL     1       4.445   6.948  16.931  0.00  0.00    +0.000 NA
ATOM      6  C   UNL     1       5.338   6.494  16.021  0.00  0.00    +0.000 A 
ATOM      7  C   UNL     1       5.678   5.163  15.865  0.00  0.00    +0.000 A 
ATOM      8  C   UNL     1       5.009   4.237  16.671  0.00  0.00    +0.000 A 
ATOM      9  C   UNL     1       4.052   4.664  17.618  0.00  0.00    +0.000 A 
ATOM     10  C   UNL     1       3.320   3.782  18.449  0.00  0.00    +0.000 A 
ENDROOT
BRANCH   1  12
ATOM     11  C   UNL     1       2.047   3.026  21.598  0.00  0.00    +0.000 C 
ATOM     12  C   UNL     1       1.595   3.287  20.184  0.00  0.00    +0.000 C 
ATOM     13  O   UNL     1       0.612   2.721  19.716  0.00  0.00    +0.000 OA
ENDBRANCH   1  12
BRANCH   7  14
ATOM     14  C   UNL     1       6.643   4.722  14.843  0.00  0.00    +0.000 C 
ATOM     15  O   UNL     1       7.630   5.396  14.585  0.00  0.00    +0.000 OA
BRANCH  14  16
ATOM     16  O   UNL     1       6.356   3.573  14.200  0.00  0.00    +0.000 OA
ATOM     17  H   UNL     1       6.032   2.823  14.730  0.00  0.00    +0.000 HD
ENDBRANCH  14  16
ENDBRANCH   7  14
BRANCH   8  18
ATOM     18  O   UNL     1       5.246   2.885  16.570  0.00  0.00    +0.000 OA
ATOM     19  H   UNL     1       5.851   2.601  17.292  0.00  0.00    +0.000 HD
ENDBRANCH   8  18
TORSDOF 4
ENDMDL
MODEL 5
REMARK VINA RESULT:      -7.0      3.250      4.531
REMARK  Name = 
REMARK  5 active torsions:
REMARK  status: ('A' for Active; 'I' for Inactive)
REMARK    1  A    between atoms: C_1  and  C_2
REMARK    2  A    between atoms: C_2  and  C_4
REMARK    3  A    between atoms: C_10  and  C_11
REMARK    4  A    between atoms: C_11  and  O_13
REMARK    5  A    between atoms: C_14  and  O_15
REMARK                            x       y       z     vdW  Elec       q    Type
REMARK                         _______ _______ _______ _____ _____    ______ ____
ROOT
ATOM      1  C   UNL     1       5.811   3.566  12.752  0.00  0.00    +0.000 A 
ATOM      2  C   UNL     1       6.970   4.302  12.507  0.00  0.00    +0.000 A 
ATOM      3  C   UNL     1       7.535   5.074  13.529  0.00  0.00    +0.000 A 
ATOM      4  C   UNL     1       6.985   5.127  14.800  0.00  0.00    +0.000 A 
ATOM      5  N   UNL     1       7.607   5.862  15.737  0.00  0.00    +0.000 NA
ATOM      6  C   UNL     1       7.084   5.886  16.985  0.00  0.00    +0.000 A 
ATOM      7  C   UNL     1       5.919   5.237  17.351  0.00  0.00    +0.000 A 
ATOM      8  C   UNL     1       5.283   4.470  16.369  0.00  0.00    +0.000 A 
ATOM      9  C   UNL     1       5.807   4.397  15.061  0.00  0.00    +0.000 A 
ATOM     10  C   UNL     1       5.230   3.622  14.025  0.00  0.00    +0.000 A 
ENDROOT
BRANCH   1  12
ATOM     11  C   UNL     1       3.906   3.180  11.049  0.00  0.00    +0.000 C 
ATOM     12  C   UNL     1       5.181   2.710  11.703  0.00  0.00    +0.000 C 
ATOM     13  O   UNL     1       5.704   1.647  11.382  0.00  0.00    +0.000 OA
ENDBRANCH   1  12
BRANCH   7  14
ATOM     14  C   UNL     1       5.405   5.282  18.731  0.00  0.00    +0.000 C 
ATOM     15  O   UNL     1       4.226   5.522  18.950  0.00  0.00    +0.000 OA
BRANCH  14  16
ATOM     16  O   UNL     1       6.303   5.082  19.715  0.00  0.00    +0.000 OA
ATOM     17  H   UNL     1       7.110   5.627  19.713  0.00  0.00    +0.000 HD
ENDBRANCH  14  16
ENDBRANCH   7  14
BRANCH   8  18
ATOM     18  O   UNL     1       4.138   3.756  16.640  0.00  0.00    +0.000 OA
ATOM     19  H   UNL     1       3.816   3.326  15.816  0.00  0.00    +0.000 HD
ENDBRANCH   8  18
TORSDOF 4
ENDMDL
MODEL 6
REMARK VINA RESULT:      -6.9      1.609      5.618
REMARK  Name = 
REMARK  5 active torsions:
REMARK  status: ('A' for Active; 'I' for Inactive)
REMARK    1  A    between atoms: C_1  and  C_2
REMARK    2  A    between atoms: C_2  and  C_4
REMARK    3  A    between atoms: C_10  and  C_11
REMARK    4  A    between atoms: C_11  and  O_13
REMARK    5  A    between atoms: C_14  and  O_15
REMARK                            x       y       z     vdW  Elec       q    Type
REMARK                         _______ _______ _______ _____ _____    ______ ____
ROOT
ATOM      1  C   UNL     1       2.578   4.555  19.872  0.00  0.00    +0.000 A 
ATOM      2  C   UNL     1       2.321   5.925  19.878  0.00  0.00    +0.000 A 
ATOM      3  C   UNL     1       2.929   6.753  18.928  0.00  0.00    +0.000 A 
ATOM      4  C   UNL     1       3.785   6.254  17.957  0.00  0.00    +0.000 A 
ATOM      5  N   UNL     1       4.301   7.108  17.058  0.00  0.00    +0.000 NA
ATOM      6  C   UNL     1       5.111   6.612  16.093  0.00  0.00    +0.000 A 
ATOM      7  C   UNL     1       5.480   5.284  15.998  0.00  0.00    +0.000 A 
ATOM      8  C   UNL     1       4.932   4.402  16.936  0.00  0.00    +0.000 A 
ATOM      9  C   UNL     1       4.064   4.873  17.945  0.00  0.00    +0.000 A 
ATOM     10  C   UNL     1       3.455   4.035  18.911  0.00  0.00    +0.000 A 
ENDROOT
BRANCH   1  12
ATOM     11  C   UNL     1       0.869   2.680  20.362  0.00  0.00    +0.000 C 
ATOM     12  C   UNL     1       1.938   3.625  20.850  0.00  0.00    +0.000 C 
ATOM     13  O   UNL     1       2.289   3.634  22.026  0.00  0.00    +0.000 OA
ENDBRANCH   1  12
BRANCH   7  14
ATOM     14  C   UNL     1       6.350   4.794  14.915  0.00  0.00    +0.000 C 
ATOM     15  O   UNL     1       6.000   3.859  14.208  0.00  0.00    +0.000 OA
BRANCH  14  16
ATOM     16  O   UNL     1       7.544   5.404  14.779  0.00  0.00    +0.000 OA
ATOM     17  H   UNL     1       8.225   4.959  14.243  0.00  0.00    +0.000 HD
ENDBRANCH  14  16
ENDBRANCH   7  14
BRANCH   8  18
ATOM     18  O   UNL     1       5.207   3.054  16.908  0.00  0.00    +0.000 OA
ATOM     19  H   UNL     1       4.731   2.605  17.642  0.00  0.00    +0.000 HD
ENDBRANCH   8  18
TORSDOF 4
ENDMDL
MODEL 7
REMARK VINA RESULT:      -6.8      3.248      5.819
REMARK  Name = 
REMARK  5 active torsions:
REMARK  status: ('A' for Active; 'I' for Inactive)
REMARK    1  A    between atoms: C_1  and  C_2
REMARK    2  A    between atoms: C_2  and  C_4
REMARK    3  A    between atoms: C_10  and  C_11
REMARK    4  A    between atoms: C_11  and  O_13
REMARK    5  A    between atoms: C_14  and  O_15
REMARK                            x       y       z     vdW  Elec       q    Type
REMARK                         _______ _______ _______ _____ _____    ______ ____
ROOT
ATOM      1  C   UNL     1       2.474   7.796  18.545  0.00  0.00    +0.000 A 
ATOM      2  C   UNL     1       2.404   6.860  19.577  0.00  0.00    +0.000 A 
ATOM      3  C   UNL     1       3.172   5.693  19.514  0.00  0.00    +0.000 A 
ATOM      4  C   UNL     1       4.024   5.429  18.452  0.00  0.00    +0.000 A 
ATOM      5  N   UNL     1       4.757   4.304  18.483  0.00  0.00    +0.000 NA
ATOM      6  C   UNL     1       5.610   4.066  17.460  0.00  0.00    +0.000 A 
ATOM      7  C   UNL     1       5.747   4.887  16.356  0.00  0.00    +0.000 A 
ATOM      8  C   UNL     1       4.984   6.059  16.338  0.00  0.00    +0.000 A 
ATOM      9  C   UNL     1       4.099   6.359  17.396  0.00  0.00    +0.000 A 
ATOM     10  C   UNL     1       3.315   7.538  17.455  0.00  0.00    +0.000 A 
ENDROOT
BRANCH   1  12
ATOM     11  C   UNL     1       0.941   9.431  19.830  0.00  0.00    +0.000 C 
ATOM     12  C   UNL     1       1.691   9.067  18.574  0.00  0.00    +0.000 C 
ATOM     13  O   UNL     1       1.673   9.799  17.588  0.00  0.00    +0.000 OA
ENDBRANCH   1  12
BRANCH   7  14
ATOM     14  C   UNL     1       6.707   4.590  15.279  0.00  0.00    +0.000 C 
ATOM     15  O   UNL     1       7.676   5.311  15.091  0.00  0.00    +0.000 OA
BRANCH  14  16
ATOM     16  O   UNL     1       6.435   3.518  14.509  0.00  0.00    +0.000 OA
ATOM     17  H   UNL     1       6.110   3.677  13.605  0.00  0.00    +0.000 HD
ENDBRANCH  14  16
ENDBRANCH   7  14
BRANCH   8  18
ATOM     18  O   UNL     1       5.072   6.963  15.303  0.00  0.00    +0.000 OA
ATOM     19  H   UNL     1       5.954   7.398  15.320  0.00  0.00    +0.000 HD
ENDBRANCH   8  18
TORSDOF 4
ENDMDL
MODEL 8
REMARK VINA RESULT:      -6.7      3.389      5.682
REMARK  Name = 
REMARK  5 active torsions:
REMARK  status: ('A' for Active; 'I' for Inactive)
REMARK    1  A    between atoms: C_1  and  C_2
REMARK    2  A    between atoms: C_2  and  C_4
REMARK    3  A    between atoms: C_10  and  C_11
REMARK    4  A    between atoms: C_11  and  O_13
REMARK    5  A    between atoms: C_14  and  O_15
REMARK                            x       y       z     vdW  Elec       q    Type
REMARK                         _______ _______ _______ _____ _____    ______ ____
ROOT
ATOM      1  C   UNL     1       2.317   7.976  18.632  0.00  0.00    +0.000 A 
ATOM      2  C   UNL     1       2.020   7.127  19.697  0.00  0.00    +0.000 A 
ATOM      3  C   UNL     1       2.739   5.938  19.865  0.00  0.00    +0.000 A 
ATOM      4  C   UNL     1       3.761   5.570  19.004  0.00  0.00    +0.000 A 
ATOM      5  N   UNL     1       4.429   4.431  19.253  0.00  0.00    +0.000 NA
ATOM      6  C   UNL     1       5.447   4.091  18.428  0.00  0.00    +0.000 A 
ATOM      7  C   UNL     1       5.819   4.819  17.314  0.00  0.00    +0.000 A 
ATOM      8  C   UNL     1       5.121   6.006  17.068  0.00  0.00    +0.000 A 
ATOM      9  C   UNL     1       4.067   6.412  17.916  0.00  0.00    +0.000 A 
ATOM     10  C   UNL     1       3.335   7.611  17.741  0.00  0.00    +0.000 A 
ENDROOT
BRANCH   1  12
ATOM     11  C   UNL     1       0.649   9.752  19.489  0.00  0.00    +0.000 C 
ATOM     12  C   UNL     1       1.595   9.266  18.421  0.00  0.00    +0.000 C 
ATOM     13  O   UNL     1       1.782   9.913  17.395  0.00  0.00    +0.000 OA
ENDBRANCH   1  12
BRANCH   7  14
ATOM     14  C   UNL     1       6.949   4.413  16.460  0.00  0.00    +0.000 C 
ATOM     15  O   UNL     1       6.827   4.365  15.244  0.00  0.00    +0.000 OA
BRANCH  14  16
ATOM     16  O   UNL     1       8.088   4.069  17.093  0.00  0.00    +0.000 OA
ATOM     17  H   UNL     1       8.882   4.608  16.929  0.00  0.00    +0.000 HD
ENDBRANCH  14  16
ENDBRANCH   7  14
BRANCH   8  18
ATOM     18  O   UNL     1       5.435   6.823  16.005  0.00  0.00    +0.000 OA
ATOM     19  H   UNL     1       5.291   7.762  16.258  0.00  0.00    +0.000 HD
ENDBRANCH   8  18
TORSDOF 4
ENDMDL
MODEL 9
REMARK VINA RESULT:      -6.7      2.002      2.927
REMARK  Name = 
REMARK  5 active torsions:
REMARK  status: ('A' for Active; 'I' for Inactive)
REMARK    1  A    between atoms: C_1  and  C_2
REMARK    2  A    between atoms: C_2  and  C_4
REMARK    3  A    between atoms: C_10  and  C_11
REMARK    4  A    between atoms: C_11  and  O_13
REMARK    5  A    between atoms: C_14  and  O_15
REMARK                            x       y       z     vdW  Elec       q    Type
REMARK                         _______ _______ _______ _____ _____    ______ ____
ROOT
ATOM      1  C   UNL     1       6.133   5.715  17.480  0.00  0.00    +0.000 A 
ATOM      2  C   UNL     1       6.082   4.872  16.371  0.00  0.00    +0.000 A 
ATOM      3  C   UNL     1       5.094   3.884  16.290  0.00  0.00    +0.000 A 
ATOM      4  C   UNL     1       4.141   3.714  17.282  0.00  0.00    +0.000 A 
ATOM      5  N   UNL     1       3.203   2.767  17.114  0.00  0.00    +0.000 NA
ATOM      6  C   UNL     1       2.255   2.626  18.070  0.00  0.00    +0.000 A 
ATOM      7  C   UNL     1       2.214   3.366  19.237  0.00  0.00    +0.000 A 
ATOM      8  C   UNL     1       3.192   4.353  19.398  0.00  0.00    +0.000 A 
ATOM      9  C   UNL     1       4.185   4.551  18.415  0.00  0.00    +0.000 A 
ATOM     10  C   UNL     1       5.189   5.546  18.501  0.00  0.00    +0.000 A 
ENDROOT
BRANCH   1  12
ATOM     11  C   UNL     1       8.118   6.759  18.762  0.00  0.00    +0.000 C 
ATOM     12  C   UNL     1       7.153   6.799  17.604  0.00  0.00    +0.000 C 
ATOM     13  O   UNL     1       7.199   7.696  16.769  0.00  0.00    +0.000 OA
ENDBRANCH   1  12
BRANCH   7  14
ATOM     14  C   UNL     1       1.147   3.184  20.236  0.00  0.00    +0.000 C 
ATOM     15  O   UNL     1       1.388   3.283  21.431  0.00  0.00    +0.000 OA
BRANCH  14  16
ATOM     16  O   UNL     1      -0.075   2.872  19.762  0.00  0.00    +0.000 OA
ATOM     17  H   UNL     1      -0.840   3.357  20.119  0.00  0.00    +0.000 HD
ENDBRANCH  14  16
ENDBRANCH   7  14
BRANCH   8  18
ATOM     18  O   UNL     1       3.219   5.169  20.507  0.00  0.00    +0.000 OA
ATOM     19  H   UNL     1       4.090   5.086  20.956  0.00  0.00    +0.000 HD
ENDBRANCH   8  18
TORSDOF 4
ENDMDL
