MODEL 1
REMARK VINA RESULT:      -8.3      0.000      0.000
REMARK  Name = 
REMARK  6 active torsions:
REMARK  status: ('A' for Active; 'I' for Inactive)
REMARK    1  A    between atoms: C_1  and  C_2
REMARK    2  A    between atoms: C_2  and  C_3
REMARK    3  A    between atoms: C_2  and  C_16
REMARK    4  A    between atoms: N_5  and  C_6
REMARK    5  A    between atoms: C_11  and  C_12
REMARK    6  A    between atoms: N_22  and  C_23
REMARK                            x       y       z     vdW  Elec       q    Type
REMARK                         _______ _______ _______ _____ _____    ______ ____
ROOT
ATOM      1  C   UNL     1      -0.334  10.544  19.667  0.00  0.00    +0.000 C 
ATOM      2  C   UNL     1      -0.315   9.385  20.682  0.00  0.00    +0.000 C 
ATOM      3  C   UNL     1       1.114   8.925  20.943  0.00  0.00    +0.000 C 
ATOM      4  N   UNL     1       1.677   8.389  19.709  0.00  0.00    +0.000 N 
ATOM      5  C   UNL     1       2.039   7.052  19.738  0.00  0.00    +0.000 C 
ATOM      6  O   UNL     1       1.884   6.398  20.775  0.00  0.00    +0.000 OA
ATOM      7  N   UNL     1       2.556   6.509  18.588  0.00  0.00    +0.000 N 
ATOM      8  C   UNL     1       1.719   9.337  18.590  0.00  0.00    +0.000 C 
ATOM      9  C   UNL     1       0.360  10.033  18.373  0.00  0.00    +0.000 C 
ATOM     10  H   UNL     1       3.001   7.147  17.948  0.00  0.00    +0.000 HD
ENDROOT
BRANCH   7  11
ATOM     11  C   UNL     1       2.839   5.127  18.410  0.00  0.00    +0.000 A 
ATOM     12  C   UNL     1       1.937   4.240  17.800  0.00  0.00    +0.000 A 
ATOM     13  C   UNL     1       2.221   2.878  17.693  0.00  0.00    +0.000 A 
ATOM     14  C   UNL     1       3.430   2.398  18.168  0.00  0.00    +0.000 A 
ATOM     15  F   UNL     1       3.703   1.089  18.074  0.00  0.00    +0.000 F 
ATOM     16  C   UNL     1       4.359   3.259  18.739  0.00  0.00    +0.000 A 
ATOM     17  C   UNL     1       4.068   4.626  18.856  0.00  0.00    +0.000 A 
ENDBRANCH   7  11
BRANCH   1  19
ATOM     18  C   UNL     1      -0.369  12.268  21.596  0.00  0.00    +0.000 C 
ATOM     19  C   UNL     1       0.283  11.835  20.276  0.00  0.00    +0.000 C 
BRANCH  19  20
ATOM     20  C   UNL     1       0.290  13.024  19.322  0.00  0.00    +0.000 C 
ATOM     21  O   UNL     1      -0.452  12.994  18.342  0.00  0.00    +0.000 OA
ATOM     22  N   UNL     1       1.187  14.032  19.632  0.00  0.00    +0.000 N 
ATOM     23  H   UNL     1       1.886  13.822  20.339  0.00  0.00    +0.000 HD
BRANCH  22  24
ATOM     24  C   UNL     1       1.350  15.243  18.909  0.00  0.00    +0.000 A 
ATOM     25  C   UNL     1       0.298  16.169  18.823  0.00  0.00    +0.000 A 
ATOM     26  C   UNL     1       0.422  17.354  18.105  0.00  0.00    +0.000 A 
ATOM     27  C   UNL     1       1.618  17.659  17.476  0.00  0.00    +0.000 A 
ATOM     28  C   UNL     1       2.688  16.772  17.570  0.00  0.00    +0.000 A 
ATOM     29  C   UNL     1       2.573  15.555  18.278  0.00  0.00    +0.000 A 
BRANCH  29  30
ATOM     30  C   UNL     1       3.774  14.642  18.264  0.00  0.00    +0.000 C 
ATOM     31  F   UNL     1       4.746  15.015  17.384  0.00  0.00    +0.000 F 
ATOM     32  F   UNL     1       4.385  14.563  19.477  0.00  0.00    +0.000 F 
ATOM     33  F   UNL     1       3.449  13.362  17.927  0.00  0.00    +0.000 F 
ENDBRANCH  29  30
ENDBRANCH  22  24
ENDBRANCH  19  20
ENDBRANCH   1  19
TORSDOF 5
ENDMDL
MODEL 2
REMARK VINA RESULT:      -8.2      0.284      1.131
REMARK  Name = 
REMARK  6 active torsions:
REMARK  status: ('A' for Active; 'I' for Inactive)
REMARK    1  A    between atoms: C_1  and  C_2
REMARK    2  A    between atoms: C_2  and  C_3
REMARK    3  A    between atoms: C_2  and  C_16
REMARK    4  A    between atoms: N_5  and  C_6
REMARK    5  A    between atoms: C_11  and  C_12
REMARK    6  A    between atoms: N_22  and  C_23
REMARK                            x       y       z     vdW  Elec       q    Type
REMARK                         _______ _______ _______ _____ _____    ______ ____
ROOT
ATOM      1  C   UNL     1      -0.439  10.677  19.583  0.00  0.00    +0.000 C 
ATOM      2  C   UNL     1      -0.408   9.523  20.603  0.00  0.00    +0.000 C 
ATOM      3  C   UNL     1       1.026   9.099  20.889  0.00  0.00    +0.000 C 
ATOM      4  N   UNL     1       1.623   8.572  19.667  0.00  0.00    +0.000 N 
ATOM      5  C   UNL     1       2.017   7.244  19.707  0.00  0.00    +0.000 C 
ATOM      6  O   UNL     1       1.861   6.591  20.744  0.00  0.00    +0.000 OA
ATOM      7  N   UNL     1       2.566   6.710  18.568  0.00  0.00    +0.000 N 
ATOM      8  C   UNL     1       1.660   9.517  18.544  0.00  0.00    +0.000 C 
ATOM      9  C   UNL     1       0.288  10.178  18.303  0.00  0.00    +0.000 C 
ATOM     10  H   UNL     1       3.006   7.356  17.933  0.00  0.00    +0.000 HD
ENDROOT
BRANCH   7  11
ATOM     11  C   UNL     1       2.885   5.335  18.400  0.00  0.00    +0.000 A 
ATOM     12  C   UNL     1       4.121   4.790  18.784  0.00  0.00    +0.000 A 
ATOM     13  C   UNL     1       4.424   3.447  18.553  0.00  0.00    +0.000 A 
ATOM     14  C   UNL     1       3.475   2.630  17.963  0.00  0.00    +0.000 A 
ATOM     15  F   UNL     1       3.765   1.342  17.732  0.00  0.00    +0.000 F 
ATOM     16  C   UNL     1       2.228   3.132  17.611  0.00  0.00    +0.000 A 
ATOM     17  C   UNL     1       1.929   4.484  17.834  0.00  0.00    +0.000 A 
ENDBRANCH   7  11
BRANCH   1  19
ATOM     18  C   UNL     1      -0.547  12.405  21.505  0.00  0.00    +0.000 C 
ATOM     19  C   UNL     1       0.136  11.985  20.196  0.00  0.00    +0.000 C 
BRANCH  19  20
ATOM     20  C   UNL     1       0.128  13.171  19.238  0.00  0.00    +0.000 C 
ATOM     21  O   UNL     1      -0.563  13.100  18.223  0.00  0.00    +0.000 OA
ATOM     22  N   UNL     1       0.956  14.224  19.586  0.00  0.00    +0.000 N 
ATOM     23  H   UNL     1       1.630  14.052  20.328  0.00  0.00    +0.000 HD
BRANCH  22  24
ATOM     24  C   UNL     1       1.091  15.440  18.867  0.00  0.00    +0.000 A 
ATOM     25  C   UNL     1       0.028  16.356  18.808  0.00  0.00    +0.000 A 
ATOM     26  C   UNL     1       0.125  17.546  18.094  0.00  0.00    +0.000 A 
ATOM     27  C   UNL     1       1.304  17.866  17.441  0.00  0.00    +0.000 A 
ATOM     28  C   UNL     1       2.384  16.990  17.507  0.00  0.00    +0.000 A 
ATOM     29  C   UNL     1       2.297  15.768  18.212  0.00  0.00    +0.000 A 
BRANCH  29  30
ATOM     30  C   UNL     1       3.506  14.867  18.166  0.00  0.00    +0.000 C 
ATOM     31  F   UNL     1       4.185  14.788  19.346  0.00  0.00    +0.000 F 
ATOM     32  F   UNL     1       3.191  13.586  17.835  0.00  0.00    +0.000 F 
ATOM     33  F   UNL     1       4.424  15.275  17.244  0.00  0.00    +0.000 F 
ENDBRANCH  29  30
ENDBRANCH  22  24
ENDBRANCH  19  20
ENDBRANCH   1  19
TORSDOF 5
ENDMDL
MODEL 3
REMARK VINA RESULT:      -8.1      3.829     10.170
REMARK  Name = 
REMARK  6 active torsions:
REMARK  status: ('A' for Active; 'I' for Inactive)
REMARK    1  A    between atoms: C_1  and  C_2
REMARK    2  A    between atoms: C_2  and  C_3
REMARK    3  A    between atoms: C_2  and  C_16
REMARK    4  A    between atoms: N_5  and  C_6
REMARK    5  A    between atoms: C_11  and  C_12
REMARK    6  A    between atoms: N_22  and  C_23
REMARK                            x       y       z     vdW  Elec       q    Type
REMARK                         _______ _______ _______ _____ _____    ______ ____
ROOT
ATOM      1  C   UNL     1       0.329   8.950  19.540  0.00  0.00    +0.000 C 
ATOM      2  C   UNL     1      -0.130  10.317  18.997  0.00  0.00    +0.000 C 
ATOM      3  C   UNL     1       0.561  11.450  19.745  0.00  0.00    +0.000 C 
ATOM      4  N   UNL     1       0.157  11.416  21.146  0.00  0.00    +0.000 N 
ATOM      5  C   UNL     1      -0.522  12.532  21.608  0.00  0.00    +0.000 C 
ATOM      6  O   UNL     1      -0.738  13.478  20.844  0.00  0.00    +0.000 OA
ATOM      7  N   UNL     1      -0.933  12.527  22.918  0.00  0.00    +0.000 N 
ATOM      8  C   UNL     1       0.478  10.168  21.848  0.00  0.00    +0.000 C 
ATOM      9  C   UNL     1       0.008   8.928  21.061  0.00  0.00    +0.000 C 
ATOM     10  H   UNL     1      -0.412  11.945  23.553  0.00  0.00    +0.000 HD
ENDROOT
BRANCH   7  11
ATOM     11  C   UNL     1      -1.762  13.524  23.503  0.00  0.00    +0.000 A 
ATOM     12  C   UNL     1      -1.248  14.701  24.069  0.00  0.00    +0.000 A 
ATOM     13  C   UNL     1      -2.084  15.633  24.686  0.00  0.00    +0.000 A 
ATOM     14  C   UNL     1      -3.450  15.406  24.712  0.00  0.00    +0.000 A 
ATOM     15  F   UNL     1      -4.256  16.294  25.310  0.00  0.00    +0.000 F 
ATOM     16  C   UNL     1      -3.990  14.269  24.123  0.00  0.00    +0.000 A 
ATOM     17  C   UNL     1      -3.148  13.329  23.512  0.00  0.00    +0.000 A 
ENDBRANCH   7  11
BRANCH   1  19
ATOM     18  C   UNL     1       2.224   9.197  17.796  0.00  0.00    +0.000 C 
ATOM     19  C   UNL     1       1.816   8.674  19.180  0.00  0.00    +0.000 C 
BRANCH  19  20
ATOM     20  C   UNL     1       2.213   7.206  19.283  0.00  0.00    +0.000 C 
ATOM     21  O   UNL     1       2.539   6.762  20.383  0.00  0.00    +0.000 OA
ATOM     22  N   UNL     1       2.213   6.503  18.091  0.00  0.00    +0.000 N 
ATOM     23  H   UNL     1       2.138   7.049  17.236  0.00  0.00    +0.000 HD
BRANCH  22  24
ATOM     24  C   UNL     1       2.518   5.124  17.945  0.00  0.00    +0.000 A 
ATOM     25  C   UNL     1       1.560   4.145  18.253  0.00  0.00    +0.000 A 
ATOM     26  C   UNL     1       1.837   2.787  18.139  0.00  0.00    +0.000 A 
ATOM     27  C   UNL     1       3.077   2.370  17.684  0.00  0.00    +0.000 A 
ATOM     28  C   UNL     1       4.036   3.320  17.343  0.00  0.00    +0.000 A 
ATOM     29  C   UNL     1       3.779   4.703  17.471  0.00  0.00    +0.000 A 
BRANCH  29  30
ATOM     30  C   UNL     1       4.910   5.642  17.132  0.00  0.00    +0.000 C 
ATOM     31  F   UNL     1       5.400   6.332  18.202  0.00  0.00    +0.000 F 
ATOM     32  F   UNL     1       5.978   4.998  16.587  0.00  0.00    +0.000 F 
ATOM     33  F   UNL     1       4.545   6.590  16.223  0.00  0.00    +0.000 F 
ENDBRANCH  29  30
ENDBRANCH  22  24
ENDBRANCH  19  20
ENDBRANCH   1  19
TORSDOF 5
ENDMDL
MODEL 4
REMARK VINA RESULT:      -7.9      1.664      2.134
REMARK  Name = 
REMARK  6 active torsions:
REMARK  status: ('A' for Active; 'I' for Inactive)
REMARK    1  A    between atoms: C_1  and  C_2
REMARK    2  A    between atoms: C_2  and  C_3
REMARK    3  A    between atoms: C_2  and  C_16
REMARK    4  A    between atoms: N_5  and  C_6
REMARK    5  A    between atoms: C_11  and  C_12
REMARK    6  A    between atoms: N_22  and  C_23
REMARK                            x       y       z     vdW  Elec       q    Type
REMARK                         _______ _______ _______ _____ _____    ______ ____
ROOT
ATOM      1  C   UNL     1      -0.364  10.499  19.804  0.00  0.00    +0.000 C 
ATOM      2  C   UNL     1      -0.314   9.328  20.804  0.00  0.00    +0.000 C 
ATOM      3  C   UNL     1       1.123   8.875  21.027  0.00  0.00    +0.000 C 
ATOM      4  N   UNL     1       1.663   8.359  19.774  0.00  0.00    +0.000 N 
ATOM      5  C   UNL     1       2.035   7.024  19.779  0.00  0.00    +0.000 C 
ATOM      6  O   UNL     1       1.908   6.356  20.810  0.00  0.00    +0.000 OA
ATOM      7  N   UNL     1       2.531   6.500  18.610  0.00  0.00    +0.000 N 
ATOM      8  C   UNL     1       1.673   9.321  18.667  0.00  0.00    +0.000 C 
ATOM      9  C   UNL     1       0.305  10.009  18.489  0.00  0.00    +0.000 C 
ATOM     10  H   UNL     1       2.956   7.148  17.969  0.00  0.00    +0.000 HD
ENDROOT
BRANCH   7  11
ATOM     11  C   UNL     1       2.819   5.122  18.409  0.00  0.00    +0.000 A 
ATOM     12  C   UNL     1       1.887   4.223  17.865  0.00  0.00    +0.000 A 
ATOM     13  C   UNL     1       2.183   2.865  17.734  0.00  0.00    +0.000 A 
ATOM     14  C   UNL     1       3.430   2.402  18.118  0.00  0.00    +0.000 A 
ATOM     15  F   UNL     1       3.714   1.098  18.000  0.00  0.00    +0.000 F 
ATOM     16  C   UNL     1       4.386   3.276  18.620  0.00  0.00    +0.000 A 
ATOM     17  C   UNL     1       4.085   4.639  18.761  0.00  0.00    +0.000 A 
ENDBRANCH   7  11
BRANCH   1  19
ATOM     18  C   UNL     1      -0.550  12.366  21.585  0.00  0.00    +0.000 C 
ATOM     19  C   UNL     1       0.257  11.786  20.416  0.00  0.00    +0.000 C 
BRANCH  19  20
ATOM     20  C   UNL     1       0.506  12.894  19.398  0.00  0.00    +0.000 C 
ATOM     21  O   UNL     1      -0.232  12.966  18.417  0.00  0.00    +0.000 OA
ATOM     22  N   UNL     1       1.596  13.708  19.657  0.00  0.00    +0.000 N 
ATOM     23  H   UNL     1       2.241  13.395  20.378  0.00  0.00    +0.000 HD
BRANCH  22  24
ATOM     24  C   UNL     1       2.004  14.816  18.869  0.00  0.00    +0.000 A 
ATOM     25  C   UNL     1       3.046  14.683  17.937  0.00  0.00    +0.000 A 
ATOM     26  C   UNL     1       3.480  15.757  17.166  0.00  0.00    +0.000 A 
ATOM     27  C   UNL     1       2.862  16.990  17.288  0.00  0.00    +0.000 A 
ATOM     28  C   UNL     1       1.807  17.142  18.184  0.00  0.00    +0.000 A 
ATOM     29  C   UNL     1       1.365  16.068  18.988  0.00  0.00    +0.000 A 
BRANCH  29  30
ATOM     30  C   UNL     1       0.256  16.361  19.968  0.00  0.00    +0.000 C 
ATOM     31  F   UNL     1      -0.034  17.687  20.100  0.00  0.00    +0.000 F 
ATOM     32  F   UNL     1      -0.916  15.759  19.626  0.00  0.00    +0.000 F 
ATOM     33  F   UNL     1       0.545  15.924  21.226  0.00  0.00    +0.000 F 
ENDBRANCH  29  30
ENDBRANCH  22  24
ENDBRANCH  19  20
ENDBRANCH   1  19
TORSDOF 5
ENDMDL
MODEL 5
REMARK VINA RESULT:      -7.9      1.677      2.315
REMARK  Name = 
REMARK  6 active torsions:
REMARK  status: ('A' for Active; 'I' for Inactive)
REMARK    1  A    between atoms: C_1  and  C_2
REMARK    2  A    between atoms: C_2  and  C_3
REMARK    3  A    between atoms: C_2  and  C_16
REMARK    4  A    between atoms: N_5  and  C_6
REMARK    5  A    between atoms: C_11  and  C_12
REMARK    6  A    between atoms: N_22  and  C_23
REMARK                            x       y       z     vdW  Elec       q    Type
REMARK                         _______ _______ _______ _____ _____    ______ ____
ROOT
ATOM      1  C   UNL     1      -0.419  10.512  19.688  0.00  0.00    +0.000 C 
ATOM      2  C   UNL     1      -0.409   9.351  20.701  0.00  0.00    +0.000 C 
ATOM      3  C   UNL     1       1.020   8.919  21.006  0.00  0.00    +0.000 C 
ATOM      4  N   UNL     1       1.632   8.398  19.789  0.00  0.00    +0.000 N 
ATOM      5  C   UNL     1       2.020   7.068  19.827  0.00  0.00    +0.000 C 
ATOM      6  O   UNL     1       1.846   6.408  20.857  0.00  0.00    +0.000 OA
ATOM      7  N   UNL     1       2.584   6.539  18.692  0.00  0.00    +0.000 N 
ATOM      8  C   UNL     1       1.691   9.350  18.674  0.00  0.00    +0.000 C 
ATOM      9  C   UNL     1       0.326  10.018  18.416  0.00  0.00    +0.000 C 
ATOM     10  H   UNL     1       3.036   7.187  18.068  0.00  0.00    +0.000 HD
ENDROOT
BRANCH   7  11
ATOM     11  C   UNL     1       2.900   5.163  18.520  0.00  0.00    +0.000 A 
ATOM     12  C   UNL     1       4.082   4.589  19.012  0.00  0.00    +0.000 A 
ATOM     13  C   UNL     1       4.389   3.247  18.776  0.00  0.00    +0.000 A 
ATOM     14  C   UNL     1       3.494   2.461  18.070  0.00  0.00    +0.000 A 
ATOM     15  F   UNL     1       3.788   1.175  17.835  0.00  0.00    +0.000 F 
ATOM     16  C   UNL     1       2.297   2.993  17.607  0.00  0.00    +0.000 A 
ATOM     17  C   UNL     1       1.994   4.343  17.836  0.00  0.00    +0.000 A 
ENDBRANCH   7  11
BRANCH   1  19
ATOM     18  C   UNL     1      -0.721  12.391  21.441  0.00  0.00    +0.000 C 
ATOM     19  C   UNL     1       0.152  11.813  20.319  0.00  0.00    +0.000 C 
BRANCH  19  20
ATOM     20  C   UNL     1       0.438  12.916  19.306  0.00  0.00    +0.000 C 
ATOM     21  O   UNL     1      -0.269  12.988  18.302  0.00  0.00    +0.000 OA
ATOM     22  N   UNL     1       1.522  13.726  19.596  0.00  0.00    +0.000 N 
ATOM     23  H   UNL     1       2.143  13.414  20.338  0.00  0.00    +0.000 HD
BRANCH  22  24
ATOM     24  C   UNL     1       1.959  14.830  18.818  0.00  0.00    +0.000 A 
ATOM     25  C   UNL     1       3.045  14.696  17.938  0.00  0.00    +0.000 A 
ATOM     26  C   UNL     1       3.508  15.766  17.177  0.00  0.00    +0.000 A 
ATOM     27  C   UNL     1       2.875  16.995  17.257  0.00  0.00    +0.000 A 
ATOM     28  C   UNL     1       1.778  17.148  18.100  0.00  0.00    +0.000 A 
ATOM     29  C   UNL     1       1.306  16.078  18.893  0.00  0.00    +0.000 A 
BRANCH  29  30
ATOM     30  C   UNL     1       0.149  16.372  19.815  0.00  0.00    +0.000 C 
ATOM     31  F   UNL     1      -1.024  15.784  19.442  0.00  0.00    +0.000 F 
ATOM     32  F   UNL     1       0.379  15.959  21.091  0.00  0.00    +0.000 F 
ATOM     33  F   UNL     1      -0.123  17.705  19.900  0.00  0.00    +0.000 F 
ENDBRANCH  29  30
ENDBRANCH  22  24
ENDBRANCH  19  20
ENDBRANCH   1  19
TORSDOF 5
ENDMDL
MODEL 6
REMARK VINA RESULT:      -7.9      4.244      9.494
REMARK  Name = 
REMARK  6 active torsions:
REMARK  status: ('A' for Active; 'I' for Inactive)
REMARK    1  A    between atoms: C_1  and  C_2
REMARK    2  A    between atoms: C_2  and  C_3
REMARK    3  A    between atoms: C_2  and  C_16
REMARK    4  A    between atoms: N_5  and  C_6
REMARK    5  A    between atoms: C_11  and  C_12
REMARK    6  A    between atoms: N_22  and  C_23
REMARK                            x       y       z     vdW  Elec       q    Type
REMARK                         _______ _______ _______ _____ _____    ______ ____
ROOT
ATOM      1  C   UNL     1       1.819   3.415  19.150  0.00  0.00    +0.000 C 
ATOM      2  C   UNL     1       1.571   4.645  18.256  0.00  0.00    +0.000 C 
ATOM      3  C   UNL     1       2.472   5.801  18.672  0.00  0.00    +0.000 C 
ATOM      4  N   UNL     1       2.127   6.212  20.029  0.00  0.00    +0.000 N 
ATOM      5  C   UNL     1       1.662   7.510  20.169  0.00  0.00    +0.000 C 
ATOM      6  O   UNL     1       1.574   8.240  19.176  0.00  0.00    +0.000 OA
ATOM      7  N   UNL     1       1.311   7.925  21.430  0.00  0.00    +0.000 N 
ATOM      8  C   UNL     1       2.265   5.161  21.043  0.00  0.00    +0.000 C 
ATOM      9  C   UNL     1       1.563   3.856  20.619  0.00  0.00    +0.000 C 
ATOM     10  H   UNL     1       1.755   7.454  22.200  0.00  0.00    +0.000 HD
ENDROOT
BRANCH   7  11
ATOM     11  C   UNL     1       0.685   9.169  21.719  0.00  0.00    +0.000 A 
ATOM     12  C   UNL     1       0.965  10.344  21.005  0.00  0.00    +0.000 A 
ATOM     13  C   UNL     1       0.376  11.561  21.351  0.00  0.00    +0.000 A 
ATOM     14  C   UNL     1      -0.527  11.602  22.400  0.00  0.00    +0.000 A 
ATOM     15  F   UNL     1      -1.090  12.770  22.741  0.00  0.00    +0.000 F 
ATOM     16  C   UNL     1      -0.855  10.447  23.098  0.00  0.00    +0.000 A 
ATOM     17  C   UNL     1      -0.254   9.226  22.756  0.00  0.00    +0.000 A 
ENDBRANCH   7  11
BRANCH   1  19
ATOM     18  C   UNL     1       4.264   3.155  19.958  0.00  0.00    +0.000 C 
ATOM     19  C   UNL     1       3.224   2.802  18.885  0.00  0.00    +0.000 C 
BRANCH  19  20
ATOM     20  C   UNL     1       3.799   3.147  17.516  0.00  0.00    +0.000 C 
ATOM     21  O   UNL     1       3.125   2.899  16.517  0.00  0.00    +0.000 OA
ATOM     22  N   UNL     1       5.077   3.678  17.522  0.00  0.00    +0.000 N 
ATOM     23  H   UNL     1       5.594   3.620  18.396  0.00  0.00    +0.000 HD
BRANCH  22  24
ATOM     24  C   UNL     1       5.802   4.099  16.377  0.00  0.00    +0.000 A 
ATOM     25  C   UNL     1       5.533   3.539  15.117  0.00  0.00    +0.000 A 
ATOM     26  C   UNL     1       6.240   3.918  13.981  0.00  0.00    +0.000 A 
ATOM     27  C   UNL     1       7.221   4.892  14.070  0.00  0.00    +0.000 A 
ATOM     28  C   UNL     1       7.488   5.484  15.301  0.00  0.00    +0.000 A 
ATOM     29  C   UNL     1       6.793   5.099  16.469  0.00  0.00    +0.000 A 
BRANCH  29  30
ATOM     30  C   UNL     1       7.206   5.763  17.759  0.00  0.00    +0.000 C 
ATOM     31  F   UNL     1       6.163   6.099  18.570  0.00  0.00    +0.000 F 
ATOM     32  F   UNL     1       8.022   4.977  18.513  0.00  0.00    +0.000 F 
ATOM     33  F   UNL     1       7.895   6.921  17.551  0.00  0.00    +0.000 F 
ENDBRANCH  29  30
ENDBRANCH  22  24
ENDBRANCH  19  20
ENDBRANCH   1  19
TORSDOF 5
ENDMDL
MODEL 7
REMARK VINA RESULT:      -7.8      4.399      7.067
REMARK  Name = 
REMARK  6 active torsions:
REMARK  status: ('A' for Active; 'I' for Inactive)
REMARK    1  A    between atoms: C_1  and  C_2
REMARK    2  A    between atoms: C_2  and  C_3
REMARK    3  A    between atoms: C_2  and  C_16
REMARK    4  A    between atoms: N_5  and  C_6
REMARK    5  A    between atoms: C_11  and  C_12
REMARK    6  A    between atoms: N_22  and  C_23
REMARK                            x       y       z     vdW  Elec       q    Type
REMARK                         _______ _______ _______ _____ _____    ______ ____
ROOT
ATOM      1  C   UNL     1       2.383   3.403  19.436  0.00  0.00    +0.000 C 
ATOM      2  C   UNL     1       3.720   2.677  19.196  0.00  0.00    +0.000 C 
ATOM      3  C   UNL     1       4.805   3.670  18.800  0.00  0.00    +0.000 C 
ATOM      4  N   UNL     1       4.448   4.289  17.528  0.00  0.00    +0.000 N 
ATOM      5  C   UNL     1       5.321   4.063  16.477  0.00  0.00    +0.000 C 
ATOM      6  O   UNL     1       6.335   3.381  16.659  0.00  0.00    +0.000 OA
ATOM      7  N   UNL     1       5.007   4.616  15.260  0.00  0.00    +0.000 N 
ATOM      8  C   UNL     1       3.171   5.014  17.534  0.00  0.00    +0.000 C 
ATOM      9  C   UNL     1       2.030   4.163  18.126  0.00  0.00    +0.000 C 
ATOM     10  H   UNL     1       4.423   5.436  15.275  0.00  0.00    +0.000 HD
ENDROOT
BRANCH   7  11
ATOM     11  C   UNL     1       5.717   4.361  14.056  0.00  0.00    +0.000 A 
ATOM     12  C   UNL     1       5.253   3.469  13.075  0.00  0.00    +0.000 A 
ATOM     13  C   UNL     1       6.003   3.197  11.930  0.00  0.00    +0.000 A 
ATOM     14  C   UNL     1       7.213   3.843  11.743  0.00  0.00    +0.000 A 
ATOM     15  F   UNL     1       7.940   3.579  10.648  0.00  0.00    +0.000 F 
ATOM     16  C   UNL     1       7.678   4.761  12.676  0.00  0.00    +0.000 A 
ATOM     17  C   UNL     1       6.928   5.026  13.832  0.00  0.00    +0.000 A 
ENDBRANCH   7  11
BRANCH   1  19
ATOM     18  C   UNL     1       2.190   3.519  22.014  0.00  0.00    +0.000 C 
ATOM     19  C   UNL     1       2.447   4.290  20.712  0.00  0.00    +0.000 C 
BRANCH  19  20
ATOM     20  C   UNL     1       1.518   5.499  20.669  0.00  0.00    +0.000 C 
ATOM     21  O   UNL     1       0.307   5.306  20.577  0.00  0.00    +0.000 OA
ATOM     22  N   UNL     1       2.145   6.733  20.693  0.00  0.00    +0.000 N 
ATOM     23  H   UNL     1       3.151   6.740  20.547  0.00  0.00    +0.000 HD
BRANCH  22  24
ATOM     24  C   UNL     1       1.489   7.992  20.691  0.00  0.00    +0.000 A 
ATOM     25  C   UNL     1       0.866   8.473  21.854  0.00  0.00    +0.000 A 
ATOM     26  C   UNL     1       0.198   9.693  21.877  0.00  0.00    +0.000 A 
ATOM     27  C   UNL     1       0.162  10.482  20.739  0.00  0.00    +0.000 A 
ATOM     28  C   UNL     1       0.796  10.043  19.580  0.00  0.00    +0.000 A 
ATOM     29  C   UNL     1       1.462   8.798  19.534  0.00  0.00    +0.000 A 
BRANCH  29  30
ATOM     30  C   UNL     1       2.063   8.394  18.209  0.00  0.00    +0.000 C 
ATOM     31  F   UNL     1       1.394   7.386  17.580  0.00  0.00    +0.000 F 
ATOM     32  F   UNL     1       2.104   9.422  17.319  0.00  0.00    +0.000 F 
ATOM     33  F   UNL     1       3.348   7.958  18.333  0.00  0.00    +0.000 F 
ENDBRANCH  29  30
ENDBRANCH  22  24
ENDBRANCH  19  20
ENDBRANCH   1  19
TORSDOF 5
ENDMDL
MODEL 8
REMARK VINA RESULT:      -7.7      4.556     10.414
REMARK  Name = 
REMARK  6 active torsions:
REMARK  status: ('A' for Active; 'I' for Inactive)
REMARK    1  A    between atoms: C_1  and  C_2
REMARK    2  A    between atoms: C_2  and  C_3
REMARK    3  A    between atoms: C_2  and  C_16
REMARK    4  A    between atoms: N_5  and  C_6
REMARK    5  A    between atoms: C_11  and  C_12
REMARK    6  A    between atoms: N_22  and  C_23
REMARK                            x       y       z     vdW  Elec       q    Type
REMARK                         _______ _______ _______ _____ _____    ______ ____
ROOT
ATOM      1  C   UNL     1       0.898   8.185  19.394  0.00  0.00    +0.000 C 
ATOM      2  C   UNL     1       0.216   9.432  18.800  0.00  0.00    +0.000 C 
ATOM      3  C   UNL     1       0.778  10.701  19.427  0.00  0.00    +0.000 C 
ATOM      4  N   UNL     1       0.466  10.710  20.852  0.00  0.00    +0.000 N 
ATOM      5  C   UNL     1      -0.340  11.749  21.289  0.00  0.00    +0.000 C 
ATOM      6  O   UNL     1      -0.734  12.599  20.484  0.00  0.00    +0.000 OA
ATOM      7  N   UNL     1      -0.669  11.780  22.622  0.00  0.00    +0.000 N 
ATOM      8  C   UNL     1       1.003   9.572  21.607  0.00  0.00    +0.000 C 
ATOM      9  C   UNL     1       0.673   8.226  20.932  0.00  0.00    +0.000 C 
ATOM     10  H   UNL     1      -0.033  11.323  23.254  0.00  0.00    +0.000 HD
ENDROOT
BRANCH   7  11
ATOM     11  C   UNL     1      -1.597  12.690  23.198  0.00  0.00    +0.000 A 
ATOM     12  C   UNL     1      -2.943  12.359  23.426  0.00  0.00    +0.000 A 
ATOM     13  C   UNL     1      -3.842  13.294  23.940  0.00  0.00    +0.000 A 
ATOM     14  C   UNL     1      -3.391  14.564  24.260  0.00  0.00    +0.000 A 
ATOM     15  F   UNL     1      -4.252  15.467  24.747  0.00  0.00    +0.000 F 
ATOM     16  C   UNL     1      -2.056  14.906  24.084  0.00  0.00    +0.000 A 
ATOM     17  C   UNL     1      -1.155  13.968  23.558  0.00  0.00    +0.000 A 
ENDBRANCH   7  11
BRANCH   1  19
ATOM     18  C   UNL     1       2.650   8.661  17.550  0.00  0.00    +0.000 C 
ATOM     19  C   UNL     1       2.387   8.095  18.952  0.00  0.00    +0.000 C 
BRANCH  19  20
ATOM     20  C   UNL     1       2.968   6.688  19.028  0.00  0.00    +0.000 C 
ATOM     21  O   UNL     1       4.091   6.542  19.509  0.00  0.00    +0.000 OA
ATOM     22  N   UNL     1       2.178   5.686  18.492  0.00  0.00    +0.000 N 
ATOM     23  H   UNL     1       1.381   5.980  17.934  0.00  0.00    +0.000 HD
BRANCH  22  24
ATOM     24  C   UNL     1       2.496   4.303  18.476  0.00  0.00    +0.000 A 
ATOM     25  C   UNL     1       3.140   3.733  17.365  0.00  0.00    +0.000 A 
ATOM     26  C   UNL     1       3.447   2.377  17.312  0.00  0.00    +0.000 A 
ATOM     27  C   UNL     1       3.143   1.558  18.386  0.00  0.00    +0.000 A 
ATOM     28  C   UNL     1       2.531   2.102  19.512  0.00  0.00    +0.000 A 
ATOM     29  C   UNL     1       2.195   3.472  19.575  0.00  0.00    +0.000 A 
BRANCH  29  30
ATOM     30  C   UNL     1       1.480   3.942  20.818  0.00  0.00    +0.000 C 
ATOM     31  F   UNL     1       0.345   4.657  20.570  0.00  0.00    +0.000 F 
ATOM     32  F   UNL     1       1.100   2.914  21.623  0.00  0.00    +0.000 F 
ATOM     33  F   UNL     1       2.258   4.752  21.591  0.00  0.00    +0.000 F 
ENDBRANCH  29  30
ENDBRANCH  22  24
ENDBRANCH  19  20
ENDBRANCH   1  19
TORSDOF 5
ENDMDL
MODEL 9
REMARK VINA RESULT:      -7.7      4.538     10.399
REMARK  Name = 
REMARK  6 active torsions:
REMARK  status: ('A' for Active; 'I' for Inactive)
REMARK    1  A    between atoms: C_1  and  C_2
REMARK    2  A    between atoms: C_2  and  C_3
REMARK    3  A    between atoms: C_2  and  C_16
REMARK    4  A    between atoms: N_5  and  C_6
REMARK    5  A    between atoms: C_11  and  C_12
REMARK    6  A    between atoms: N_22  and  C_23
REMARK                            x       y       z     vdW  Elec       q    Type
REMARK                         _______ _______ _______ _____ _____    ______ ____
ROOT
ATOM      1  C   UNL     1       1.084   8.118  19.164  0.00  0.00    +0.000 C 
ATOM      2  C   UNL     1       0.477   9.415  18.594  0.00  0.00    +0.000 C 
ATOM      3  C   UNL     1       1.050  10.633  19.308  0.00  0.00    +0.000 C 
ATOM      4  N   UNL     1       0.664  10.590  20.714  0.00  0.00    +0.000 N 
ATOM      5  C   UNL     1      -0.127  11.638  21.157  0.00  0.00    +0.000 C 
ATOM      6  O   UNL     1      -0.449  12.537  20.373  0.00  0.00    +0.000 OA
ATOM      7  N   UNL     1      -0.525  11.621  22.471  0.00  0.00    +0.000 N 
ATOM      8  C   UNL     1       1.121   9.401  21.441  0.00  0.00    +0.000 C 
ATOM      9  C   UNL     1       0.780   8.099  20.688  0.00  0.00    +0.000 C 
ATOM     10  H   UNL     1       0.061  11.113  23.113  0.00  0.00    +0.000 HD
ENDROOT
BRANCH   7  11
ATOM     11  C   UNL     1      -1.450  12.538  23.041  0.00  0.00    +0.000 A 
ATOM     12  C   UNL     1      -1.095  13.846  23.407  0.00  0.00    +0.000 A 
ATOM     13  C   UNL     1      -2.013  14.702  24.017  0.00  0.00    +0.000 A 
ATOM     14  C   UNL     1      -3.307  14.263  24.237  0.00  0.00    +0.000 A 
ATOM     15  F   UNL     1      -4.190  15.079  24.829  0.00  0.00    +0.000 F 
ATOM     16  C   UNL     1      -3.698  12.988  23.847  0.00  0.00    +0.000 A 
ATOM     17  C   UNL     1      -2.772  12.124  23.244  0.00  0.00    +0.000 A 
ENDBRANCH   7  11
BRANCH   1  19
ATOM     18  C   UNL     1       2.932   8.544  17.403  0.00  0.00    +0.000 C 
ATOM     19  C   UNL     1       2.589   7.993  18.794  0.00  0.00    +0.000 C 
BRANCH  19  20
ATOM     20  C   UNL     1       3.136   6.574  18.905  0.00  0.00    +0.000 C 
ATOM     21  O   UNL     1       4.276   6.417  19.338  0.00  0.00    +0.000 OA
ATOM     22  N   UNL     1       2.292   5.573  18.454  0.00  0.00    +0.000 N 
ATOM     23  H   UNL     1       1.477   5.866  17.922  0.00  0.00    +0.000 HD
BRANCH  22  24
ATOM     24  C   UNL     1       2.572   4.182  18.484  0.00  0.00    +0.000 A 
ATOM     25  C   UNL     1       3.215   3.561  17.402  0.00  0.00    +0.000 A 
ATOM     26  C   UNL     1       3.485   2.196  17.394  0.00  0.00    +0.000 A 
ATOM     27  C   UNL     1       3.142   1.418  18.488  0.00  0.00    +0.000 A 
ATOM     28  C   UNL     1       2.530   2.014  19.588  0.00  0.00    +0.000 A 
ATOM     29  C   UNL     1       2.232   3.395  19.604  0.00  0.00    +0.000 A 
BRANCH  29  30
ATOM     30  C   UNL     1       1.513   3.923  20.821  0.00  0.00    +0.000 C 
ATOM     31  F   UNL     1       2.251   4.791  21.570  0.00  0.00    +0.000 F 
ATOM     32  F   UNL     1       0.369   4.588  20.505  0.00  0.00    +0.000 F 
ATOM     33  F   UNL     1       1.140   2.929  21.677  0.00  0.00    +0.000 F 
ENDBRANCH  29  30
ENDBRANCH  22  24
ENDBRANCH  19  20
ENDBRANCH   1  19
TORSDOF 5
ENDMDL
