MODEL 1
REMARK VINA RESULT:      -8.6      0.000      0.000
REMARK  Name = 
REMARK  10 active torsions:
REMARK  status: ('A' for Active; 'I' for Inactive)
REMARK    1  A    between atoms: C_1  and  C_2
REMARK    2  A    between atoms: C_2  and  O_3
REMARK    3  A    between atoms: O_3  and  C_4
REMARK    4  A    between atoms: C_7  and  N_8
REMARK    5  A    between atoms: N_8  and  C_9
REMARK    6  A    between atoms: N_12  and  C_13
REMARK    7  A    between atoms: C_17  and  O_18
REMARK    8  A    between atoms: O_18  and  C_19
REMARK    9  A    between atoms: C_19  and  C_20
REMARK   10  A    between atoms: N_22  and  C_23
REMARK                            x       y       z     vdW  Elec       q    Type
REMARK                         _______ _______ _______ _____ _____    ______ ____
ROOT
ATOM      1  C   UNL     1       0.631   9.781  19.515  0.00  0.00    +0.000 A 
ATOM      2  N   UNL     1       1.416   9.205  18.573  0.00  0.00    +0.000 NA
ATOM      3  C   UNL     1       2.087   8.093  18.901  0.00  0.00    +0.000 A 
ATOM      4  N   UNL     1       2.901   7.533  17.916  0.00  0.00    +0.000 N 
ATOM      5  N   UNL     1       2.040   7.530  20.119  0.00  0.00    +0.000 NA
ATOM      6  C   UNL     1       1.298   8.148  21.054  0.00  0.00    +0.000 A 
ATOM      7  C   UNL     1       0.580   9.285  20.806  0.00  0.00    +0.000 A 
ATOM      8  F   UNL     1      -0.175   9.855  21.754  0.00  0.00    +0.000 F 
ATOM      9  H   UNL     1       2.873   8.101  17.079  0.00  0.00    +0.000 HD
ENDROOT
BRANCH   4  10
ATOM     10  C   UNL     1       3.194   6.175  17.710  0.00  0.00    +0.000 A 
ATOM     11  C   UNL     1       2.269   5.159  17.992  0.00  0.00    +0.000 A 
ATOM     12  C   UNL     1       2.588   3.819  17.777  0.00  0.00    +0.000 A 
ATOM     13  C   UNL     1       3.846   3.478  17.291  0.00  0.00    +0.000 A 
ATOM     14  C   UNL     1       4.792   4.471  17.032  0.00  0.00    +0.000 A 
ATOM     15  C   UNL     1       4.457   5.815  17.220  0.00  0.00    +0.000 A 
BRANCH  14  16
ATOM     16  O   UNL     1       5.988   4.016  16.551  0.00  0.00    +0.000 OA
BRANCH  16  17
ATOM     17  C   UNL     1       6.864   5.008  16.011  0.00  0.00    +0.000 C 
BRANCH  17  18
ATOM     18  C   UNL     1       7.046   4.792  14.506  0.00  0.00    +0.000 C 
ATOM     19  O   UNL     1       7.802   5.492  13.837  0.00  0.00    +0.000 OA
ATOM     20  N   UNL     1       6.280   3.776  13.982  0.00  0.00    +0.000 N 
ATOM     21  C   UNL     1       6.265   3.426  12.587  0.00  0.00    +0.000 C 
ATOM     22  H   UNL     1       5.693   3.265  14.634  0.00  0.00    +0.000 HD
ENDBRANCH  17  18
ENDBRANCH  16  17
ENDBRANCH  14  16
ENDBRANCH   4  10
BRANCH   1  23
ATOM     23  N   UNL     1      -0.097  10.965  19.207  0.00  0.00    +0.000 N 
ATOM     24  H   UNL     1      -0.070  11.587  20.015  0.00  0.00    +0.000 HD
BRANCH  23  28
ATOM     25  C   UNL     1      -3.954  11.054  17.488  0.00  0.00    +0.000 A 
ATOM     26  C   UNL     1      -3.660  11.881  18.569  0.00  0.00    +0.000 A 
ATOM     27  C   UNL     1      -2.393  11.853  19.152  0.00  0.00    +0.000 A 
ATOM     28  C   UNL     1      -1.415  10.963  18.691  0.00  0.00    +0.000 A 
ATOM     29  C   UNL     1      -1.712  10.152  17.590  0.00  0.00    +0.000 A 
ATOM     30  C   UNL     1      -2.984  10.175  17.008  0.00  0.00    +0.000 A 
BRANCH  25  31
ATOM     31  O   UNL     1      -5.221  11.187  16.995  0.00  0.00    +0.000 OA
BRANCH  31  33
ATOM     32  C   UNL     1      -6.964  12.757  17.359  0.00  0.00    +0.000 C 
ATOM     33  C   UNL     1      -6.224  11.565  17.935  0.00  0.00    +0.000 C 
ENDBRANCH  31  33
ENDBRANCH  25  31
ENDBRANCH  23  28
ENDBRANCH   1  23
TORSDOF 8
ENDMDL
MODEL 2
REMARK VINA RESULT:      -8.4      2.392      3.834
REMARK  Name = 
REMARK  10 active torsions:
REMARK  status: ('A' for Active; 'I' for Inactive)
REMARK    1  A    between atoms: C_1  and  C_2
REMARK    2  A    between atoms: C_2  and  O_3
REMARK    3  A    between atoms: O_3  and  C_4
REMARK    4  A    between atoms: C_7  and  N_8
REMARK    5  A    between atoms: N_8  and  C_9
REMARK    6  A    between atoms: N_12  and  C_13
REMARK    7  A    between atoms: C_17  and  O_18
REMARK    8  A    between atoms: O_18  and  C_19
REMARK    9  A    between atoms: C_19  and  C_20
REMARK   10  A    between atoms: N_22  and  C_23
REMARK                            x       y       z     vdW  Elec       q    Type
REMARK                         _______ _______ _______ _____ _____    ______ ____
ROOT
ATOM      1  C   UNL     1       0.629   9.967  18.813  0.00  0.00    +0.000 A 
ATOM      2  N   UNL     1       1.577   9.373  18.049  0.00  0.00    +0.000 NA
ATOM      3  C   UNL     1       2.271   8.356  18.578  0.00  0.00    +0.000 A 
ATOM      4  N   UNL     1       3.253   7.777  17.774  0.00  0.00    +0.000 N 
ATOM      5  N   UNL     1       2.093   7.909  19.831  0.00  0.00    +0.000 NA
ATOM      6  C   UNL     1       1.185   8.548  20.589  0.00  0.00    +0.000 A 
ATOM      7  C   UNL     1       0.431   9.592  20.130  0.00  0.00    +0.000 A 
ATOM      8  F   UNL     1      -0.488  10.183  20.904  0.00  0.00    +0.000 F 
ATOM      9  H   UNL     1       3.303   8.259  16.886  0.00  0.00    +0.000 HD
ENDROOT
BRANCH   4  10
ATOM     10  C   UNL     1       3.665   6.434  17.752  0.00  0.00    +0.000 A 
ATOM     11  C   UNL     1       4.987   6.053  18.025  0.00  0.00    +0.000 A 
ATOM     12  C   UNL     1       5.367   4.712  17.996  0.00  0.00    +0.000 A 
ATOM     13  C   UNL     1       4.429   3.735  17.676  0.00  0.00    +0.000 A 
ATOM     14  C   UNL     1       3.116   4.095  17.371  0.00  0.00    +0.000 A 
ATOM     15  C   UNL     1       2.732   5.438  17.431  0.00  0.00    +0.000 A 
BRANCH  14  16
ATOM     16  O   UNL     1       2.285   3.050  17.080  0.00  0.00    +0.000 OA
BRANCH  16  17
ATOM     17  C   UNL     1       2.305   1.958  18.003  0.00  0.00    +0.000 C 
BRANCH  17  18
ATOM     18  C   UNL     1       1.414   2.268  19.209  0.00  0.00    +0.000 C 
ATOM     19  O   UNL     1       0.193   2.364  19.106  0.00  0.00    +0.000 OA
ATOM     20  N   UNL     1       2.099   2.447  20.389  0.00  0.00    +0.000 N 
ATOM     21  C   UNL     1       1.465   2.784  21.637  0.00  0.00    +0.000 C 
ATOM     22  H   UNL     1       3.108   2.341  20.352  0.00  0.00    +0.000 HD
ENDBRANCH  17  18
ENDBRANCH  16  17
ENDBRANCH  14  16
ENDBRANCH   4  10
BRANCH   1  23
ATOM     23  N   UNL     1      -0.130  11.052  18.288  0.00  0.00    +0.000 N 
ATOM     24  H   UNL     1       0.104  11.897  18.809  0.00  0.00    +0.000 HD
BRANCH  23  28
ATOM     25  C   UNL     1      -4.337  10.876  17.956  0.00  0.00    +0.000 A 
ATOM     26  C   UNL     1      -3.551   9.928  17.304  0.00  0.00    +0.000 A 
ATOM     27  C   UNL     1      -2.161   9.983  17.397  0.00  0.00    +0.000 A 
ATOM     28  C   UNL     1      -1.533  11.013  18.108  0.00  0.00    +0.000 A 
ATOM     29  C   UNL     1      -2.330  11.947  18.778  0.00  0.00    +0.000 A 
ATOM     30  C   UNL     1      -3.725  11.898  18.681  0.00  0.00    +0.000 A 
BRANCH  25  31
ATOM     31  O   UNL     1      -5.683  10.705  17.803  0.00  0.00    +0.000 OA
BRANCH  31  33
ATOM     32  C   UNL     1      -6.893   9.357  19.338  0.00  0.00    +0.000 C 
ATOM     33  C   UNL     1      -6.463  10.772  18.995  0.00  0.00    +0.000 C 
ENDBRANCH  31  33
ENDBRANCH  25  31
ENDBRANCH  23  28
ENDBRANCH   1  23
TORSDOF 8
ENDMDL
MODEL 3
REMARK VINA RESULT:      -8.0      2.025      3.597
REMARK  Name = 
REMARK  10 active torsions:
REMARK  status: ('A' for Active; 'I' for Inactive)
REMARK    1  A    between atoms: C_1  and  C_2
REMARK    2  A    between atoms: C_2  and  O_3
REMARK    3  A    between atoms: O_3  and  C_4
REMARK    4  A    between atoms: C_7  and  N_8
REMARK    5  A    between atoms: N_8  and  C_9
REMARK    6  A    between atoms: N_12  and  C_13
REMARK    7  A    between atoms: C_17  and  O_18
REMARK    8  A    between atoms: O_18  and  C_19
REMARK    9  A    between atoms: C_19  and  C_20
REMARK   10  A    between atoms: N_22  and  C_23
REMARK                            x       y       z     vdW  Elec       q    Type
REMARK                         _______ _______ _______ _____ _____    ______ ____
ROOT
ATOM      1  C   UNL     1       1.161   9.617  18.557  0.00  0.00    +0.000 A 
ATOM      2  N   UNL     1       2.142   9.215  17.714  0.00  0.00    +0.000 NA
ATOM      3  C   UNL     1       2.863   8.136  18.048  0.00  0.00    +0.000 A 
ATOM      4  N   UNL     1       3.878   7.757  17.170  0.00  0.00    +0.000 N 
ATOM      5  N   UNL     1       2.679   7.445  19.184  0.00  0.00    +0.000 NA
ATOM      6  C   UNL     1       1.737   7.893  20.032  0.00  0.00    +0.000 A 
ATOM      7  C   UNL     1       0.954   8.983  19.769  0.00  0.00    +0.000 A 
ATOM      8  F   UNL     1       0.002   9.381  20.623  0.00  0.00    +0.000 F 
ATOM      9  H   UNL     1       3.926   8.406  16.395  0.00  0.00    +0.000 HD
ENDROOT
BRANCH   4  10
ATOM     10  C   UNL     1       4.338   6.459  16.894  0.00  0.00    +0.000 A 
ATOM     11  C   UNL     1       5.129   6.167  15.774  0.00  0.00    +0.000 A 
ATOM     12  C   UNL     1       5.571   4.869  15.527  0.00  0.00    +0.000 A 
ATOM     13  C   UNL     1       5.211   3.840  16.391  0.00  0.00    +0.000 A 
ATOM     14  C   UNL     1       4.400   4.103  17.496  0.00  0.00    +0.000 A 
ATOM     15  C   UNL     1       3.984   5.411  17.757  0.00  0.00    +0.000 A 
BRANCH  14  16
ATOM     16  O   UNL     1       4.120   3.016  18.276  0.00  0.00    +0.000 OA
BRANCH  16  17
ATOM     17  C   UNL     1       2.895   2.339  17.991  0.00  0.00    +0.000 C 
BRANCH  17  18
ATOM     18  C   UNL     1       1.857   2.642  19.075  0.00  0.00    +0.000 C 
ATOM     19  O   UNL     1       0.729   3.044  18.800  0.00  0.00    +0.000 OA
ATOM     20  N   UNL     1       2.307   2.447  20.361  0.00  0.00    +0.000 N 
ATOM     21  C   UNL     1       1.512   2.707  21.532  0.00  0.00    +0.000 C 
ATOM     22  H   UNL     1       3.259   2.111  20.465  0.00  0.00    +0.000 HD
ENDBRANCH  17  18
ENDBRANCH  16  17
ENDBRANCH  14  16
ENDBRANCH   4  10
BRANCH   1  23
ATOM     23  N   UNL     1       0.374  10.760  18.238  0.00  0.00    +0.000 N 
ATOM     24  H   UNL     1       0.628  11.519  18.869  0.00  0.00    +0.000 HD
BRANCH  23  28
ATOM     25  C   UNL     1      -3.814  10.764  17.686  0.00  0.00    +0.000 A 
ATOM     26  C   UNL     1      -3.236  11.639  18.602  0.00  0.00    +0.000 A 
ATOM     27  C   UNL     1      -1.856  11.639  18.801  0.00  0.00    +0.000 A 
ATOM     28  C   UNL     1      -1.037  10.732  18.119  0.00  0.00    +0.000 A 
ATOM     29  C   UNL     1      -1.622   9.872  17.184  0.00  0.00    +0.000 A 
ATOM     30  C   UNL     1      -3.008   9.866  16.987  0.00  0.00    +0.000 A 
BRANCH  25  31
ATOM     31  O   UNL     1      -5.170  10.872  17.568  0.00  0.00    +0.000 OA
BRANCH  31  33
ATOM     32  C   UNL     1      -6.861  10.277  19.126  0.00  0.00    +0.000 C 
ATOM     33  C   UNL     1      -5.864  11.346  18.721  0.00  0.00    +0.000 C 
ENDBRANCH  31  33
ENDBRANCH  25  31
ENDBRANCH  23  28
ENDBRANCH   1  23
TORSDOF 8
ENDMDL
MODEL 4
REMARK VINA RESULT:      -8.0      2.079      3.507
REMARK  Name = 
REMARK  10 active torsions:
REMARK  status: ('A' for Active; 'I' for Inactive)
REMARK    1  A    between atoms: C_1  and  C_2
REMARK    2  A    between atoms: C_2  and  O_3
REMARK    3  A    between atoms: O_3  and  C_4
REMARK    4  A    between atoms: C_7  and  N_8
REMARK    5  A    between atoms: N_8  and  C_9
REMARK    6  A    between atoms: N_12  and  C_13
REMARK    7  A    between atoms: C_17  and  O_18
REMARK    8  A    between atoms: O_18  and  C_19
REMARK    9  A    between atoms: C_19  and  C_20
REMARK   10  A    between atoms: N_22  and  C_23
REMARK                            x       y       z     vdW  Elec       q    Type
REMARK                         _______ _______ _______ _____ _____    ______ ____
ROOT
ATOM      1  C   UNL     1       1.117   9.766  18.585  0.00  0.00    +0.000 A 
ATOM      2  N   UNL     1       2.071   9.275  17.758  0.00  0.00    +0.000 NA
ATOM      3  C   UNL     1       2.749   8.187  18.147  0.00  0.00    +0.000 A 
ATOM      4  N   UNL     1       3.737   7.716  17.283  0.00  0.00    +0.000 N 
ATOM      5  N   UNL     1       2.548   7.568  19.321  0.00  0.00    +0.000 NA
ATOM      6  C   UNL     1       1.634   8.104  20.150  0.00  0.00    +0.000 A 
ATOM      7  C   UNL     1       0.896   9.210  19.833  0.00  0.00    +0.000 A 
ATOM      8  F   UNL     1      -0.029   9.696  20.670  0.00  0.00    +0.000 F 
ATOM      9  H   UNL     1       3.805   8.318  16.473  0.00  0.00    +0.000 HD
ENDROOT
BRANCH   4  10
ATOM     10  C   UNL     1       4.139   6.386  17.077  0.00  0.00    +0.000 A 
ATOM     11  C   UNL     1       5.367   6.058  16.486  0.00  0.00    +0.000 A 
ATOM     12  C   UNL     1       5.738   4.728  16.295  0.00  0.00    +0.000 A 
ATOM     13  C   UNL     1       4.874   3.707  16.679  0.00  0.00    +0.000 A 
ATOM     14  C   UNL     1       3.634   4.012  17.242  0.00  0.00    +0.000 A 
ATOM     15  C   UNL     1       3.279   5.346  17.460  0.00  0.00    +0.000 A 
BRANCH  14  16
ATOM     16  O   UNL     1       2.877   2.927  17.587  0.00  0.00    +0.000 OA
BRANCH  16  17
ATOM     17  C   UNL     1       3.559   1.882  18.282  0.00  0.00    +0.000 C 
BRANCH  17  18
ATOM     18  C   UNL     1       3.688   2.231  19.768  0.00  0.00    +0.000 C 
ATOM     19  O   UNL     1       4.734   2.057  20.387  0.00  0.00    +0.000 OA
ATOM     20  N   UNL     1       2.535   2.724  20.336  0.00  0.00    +0.000 N 
ATOM     21  C   UNL     1       2.420   3.079  21.726  0.00  0.00    +0.000 C 
ATOM     22  H   UNL     1       1.731   2.825  19.724  0.00  0.00    +0.000 HD
ENDBRANCH  17  18
ENDBRANCH  16  17
ENDBRANCH  14  16
ENDBRANCH   4  10
BRANCH   1  23
ATOM     23  N   UNL     1       0.376  10.922  18.209  0.00  0.00    +0.000 N 
ATOM     24  H   UNL     1       0.657  11.700  18.805  0.00  0.00    +0.000 HD
BRANCH  23  28
ATOM     25  C   UNL     1      -3.845  10.908  18.034  0.00  0.00    +0.000 A 
ATOM     26  C   UNL     1      -3.118   9.998  17.271  0.00  0.00    +0.000 A 
ATOM     27  C   UNL     1      -1.724  10.000  17.312  0.00  0.00    +0.000 A 
ATOM     28  C   UNL     1      -1.034  10.943  18.083  0.00  0.00    +0.000 A 
ATOM     29  C   UNL     1      -1.772  11.839  18.865  0.00  0.00    +0.000 A 
ATOM     30  C   UNL     1      -3.170  11.842  18.820  0.00  0.00    +0.000 A 
BRANCH  25  31
ATOM     31  O   UNL     1      -5.201  10.794  17.922  0.00  0.00    +0.000 OA
BRANCH  31  33
ATOM     32  C   UNL     1      -7.048  12.264  17.666  0.00  0.00    +0.000 C 
ATOM     33  C   UNL     1      -5.972  11.772  18.616  0.00  0.00    +0.000 C 
ENDBRANCH  31  33
ENDBRANCH  25  31
ENDBRANCH  23  28
ENDBRANCH   1  23
TORSDOF 8
ENDMDL
MODEL 5
REMARK VINA RESULT:      -8.0      2.636     10.005
REMARK  Name = 
REMARK  10 active torsions:
REMARK  status: ('A' for Active; 'I' for Inactive)
REMARK    1  A    between atoms: C_1  and  C_2
REMARK    2  A    between atoms: C_2  and  O_3
REMARK    3  A    between atoms: O_3  and  C_4
REMARK    4  A    between atoms: C_7  and  N_8
REMARK    5  A    between atoms: N_8  and  C_9
REMARK    6  A    between atoms: N_12  and  C_13
REMARK    7  A    between atoms: C_17  and  O_18
REMARK    8  A    between atoms: O_18  and  C_19
REMARK    9  A    between atoms: C_19  and  C_20
REMARK   10  A    between atoms: N_22  and  C_23
REMARK                            x       y       z     vdW  Elec       q    Type
REMARK                         _______ _______ _______ _____ _____    ______ ____
ROOT
ATOM      1  C   UNL     1       3.735   4.533  19.869  0.00  0.00    +0.000 A 
ATOM      2  N   UNL     1       3.489   5.832  19.575  0.00  0.00    +0.000 NA
ATOM      3  C   UNL     1       2.307   6.350  19.937  0.00  0.00    +0.000 A 
ATOM      4  N   UNL     1       2.075   7.685  19.605  0.00  0.00    +0.000 N 
ATOM      5  N   UNL     1       1.346   5.645  20.555  0.00  0.00    +0.000 NA
ATOM      6  C   UNL     1       1.591   4.344  20.789  0.00  0.00    +0.000 A 
ATOM      7  C   UNL     1       2.769   3.735  20.455  0.00  0.00    +0.000 A 
ATOM      8  F   UNL     1       2.990   2.444  20.733  0.00  0.00    +0.000 F 
ATOM      9  H   UNL     1       2.865   8.058  19.095  0.00  0.00    +0.000 HD
ENDROOT
BRANCH   4  10
ATOM     10  C   UNL     1       1.320   8.631  20.318  0.00  0.00    +0.000 A 
ATOM     11  C   UNL     1       1.038   8.487  21.684  0.00  0.00    +0.000 A 
ATOM     12  C   UNL     1       0.286   9.443  22.365  0.00  0.00    +0.000 A 
ATOM     13  C   UNL     1      -0.208  10.549  21.681  0.00  0.00    +0.000 A 
ATOM     14  C   UNL     1       0.036  10.696  20.315  0.00  0.00    +0.000 A 
ATOM     15  C   UNL     1       0.816   9.751  19.643  0.00  0.00    +0.000 A 
BRANCH  14  16
ATOM     16  O   UNL     1      -0.493  11.826  19.754  0.00  0.00    +0.000 OA
BRANCH  16  17
ATOM     17  C   UNL     1      -1.914  11.955  19.828  0.00  0.00    +0.000 C 
BRANCH  17  18
ATOM     18  C   UNL     1      -2.540  11.709  18.452  0.00  0.00    +0.000 C 
ATOM     19  O   UNL     1      -1.862  11.395  17.477  0.00  0.00    +0.000 OA
ATOM     20  N   UNL     1      -3.904  11.891  18.410  0.00  0.00    +0.000 N 
ATOM     21  C   UNL     1      -4.691  11.751  17.213  0.00  0.00    +0.000 C 
ATOM     22  H   UNL     1      -4.358  12.149  19.281  0.00  0.00    +0.000 HD
ENDBRANCH  17  18
ENDBRANCH  16  17
ENDBRANCH  14  16
ENDBRANCH   4  10
BRANCH   1  23
ATOM     23  N   UNL     1       4.978   3.944  19.500  0.00  0.00    +0.000 N 
ATOM     24  H   UNL     1       5.645   4.082  20.259  0.00  0.00    +0.000 HD
BRANCH  23  28
ATOM     25  C   UNL     1       6.893   4.934  15.867  0.00  0.00    +0.000 A 
ATOM     26  C   UNL     1       5.716   4.190  15.848  0.00  0.00    +0.000 A 
ATOM     27  C   UNL     1       5.081   3.847  17.041  0.00  0.00    +0.000 A 
ATOM     28  C   UNL     1       5.638   4.207  18.275  0.00  0.00    +0.000 A 
ATOM     29  C   UNL     1       6.808   4.973  18.284  0.00  0.00    +0.000 A 
ATOM     30  C   UNL     1       7.450   5.312  17.088  0.00  0.00    +0.000 A 
BRANCH  25  31
ATOM     31  O   UNL     1       7.409   5.220  14.635  0.00  0.00    +0.000 OA
BRANCH  31  33
ATOM     32  C   UNL     1       7.579   4.937  12.284  0.00  0.00    +0.000 C 
ATOM     33  C   UNL     1       6.820   4.531  13.534  0.00  0.00    +0.000 C 
ENDBRANCH  31  33
ENDBRANCH  25  31
ENDBRANCH  23  28
ENDBRANCH   1  23
TORSDOF 8
ENDMDL
MODEL 6
REMARK VINA RESULT:      -8.0      4.016      9.377
REMARK  Name = 
REMARK  10 active torsions:
REMARK  status: ('A' for Active; 'I' for Inactive)
REMARK    1  A    between atoms: C_1  and  C_2
REMARK    2  A    between atoms: C_2  and  O_3
REMARK    3  A    between atoms: O_3  and  C_4
REMARK    4  A    between atoms: C_7  and  N_8
REMARK    5  A    between atoms: N_8  and  C_9
REMARK    6  A    between atoms: N_12  and  C_13
REMARK    7  A    between atoms: C_17  and  O_18
REMARK    8  A    between atoms: O_18  and  C_19
REMARK    9  A    between atoms: C_19  and  C_20
REMARK   10  A    between atoms: N_22  and  C_23
REMARK                            x       y       z     vdW  Elec       q    Type
REMARK                         _______ _______ _______ _____ _____    ______ ____
ROOT
ATOM      1  C   UNL     1       6.984   5.476  16.570  0.00  0.00    +0.000 A 
ATOM      2  N   UNL     1       6.130   4.507  16.980  0.00  0.00    +0.000 NA
ATOM      3  C   UNL     1       5.710   4.530  18.252  0.00  0.00    +0.000 A 
ATOM      4  N   UNL     1       4.846   3.510  18.650  0.00  0.00    +0.000 N 
ATOM      5  N   UNL     1       6.106   5.448  19.148  0.00  0.00    +0.000 NA
ATOM      6  C   UNL     1       6.995   6.368  18.734  0.00  0.00    +0.000 A 
ATOM      7  C   UNL     1       7.475   6.420  17.455  0.00  0.00    +0.000 A 
ATOM      8  F   UNL     1       8.335   7.371  17.070  0.00  0.00    +0.000 F 
ATOM      9  H   UNL     1       4.689   2.870  17.883  0.00  0.00    +0.000 HD
ENDROOT
BRANCH   4  10
ATOM     10  C   UNL     1       3.809   3.579  19.595  0.00  0.00    +0.000 A 
ATOM     11  C   UNL     1       3.526   2.524  20.474  0.00  0.00    +0.000 A 
ATOM     12  C   UNL     1       2.491   2.622  21.403  0.00  0.00    +0.000 A 
ATOM     13  C   UNL     1       1.713   3.775  21.450  0.00  0.00    +0.000 A 
ATOM     14  C   UNL     1       1.958   4.825  20.565  0.00  0.00    +0.000 A 
ATOM     15  C   UNL     1       3.016   4.735  19.656  0.00  0.00    +0.000 A 
BRANCH  14  16
ATOM     16  O   UNL     1       1.135   5.907  20.712  0.00  0.00    +0.000 OA
BRANCH  16  17
ATOM     17  C   UNL     1       1.775   7.138  21.054  0.00  0.00    +0.000 C 
BRANCH  17  18
ATOM     18  C   UNL     1       1.571   8.168  19.940  0.00  0.00    +0.000 C 
ATOM     19  O   UNL     1       2.154   8.083  18.862  0.00  0.00    +0.000 OA
ATOM     20  N   UNL     1       0.707   9.190  20.265  0.00  0.00    +0.000 N 
ATOM     21  C   UNL     1       0.401  10.286  19.383  0.00  0.00    +0.000 C 
ATOM     22  H   UNL     1       0.283   9.154  21.186  0.00  0.00    +0.000 HD
ENDBRANCH  17  18
ENDBRANCH  16  17
ENDBRANCH  14  16
ENDBRANCH   4  10
BRANCH   1  23
ATOM     23  N   UNL     1       7.455   5.486  15.227  0.00  0.00    +0.000 N 
ATOM     24  H   UNL     1       7.551   6.454  14.920  0.00  0.00    +0.000 HD
BRANCH  23  28
ATOM     25  C   UNL     1       5.651   3.455  11.992  0.00  0.00    +0.000 A 
ATOM     26  C   UNL     1       4.954   3.608  13.188  0.00  0.00    +0.000 A 
ATOM     27  C   UNL     1       5.544   4.267  14.266  0.00  0.00    +0.000 A 
ATOM     28  C   UNL     1       6.857   4.744  14.180  0.00  0.00    +0.000 A 
ATOM     29  C   UNL     1       7.542   4.607  12.968  0.00  0.00    +0.000 A 
ATOM     30  C   UNL     1       6.954   3.941  11.886  0.00  0.00    +0.000 A 
BRANCH  25  31
ATOM     31  O   UNL     1       4.961   2.809  11.006  0.00  0.00    +0.000 OA
BRANCH  31  33
ATOM     32  C   UNL     1       3.228   3.968   9.870  0.00  0.00    +0.000 C 
ATOM     33  C   UNL     1       3.549   3.005  10.998  0.00  0.00    +0.000 C 
ENDBRANCH  31  33
ENDBRANCH  25  31
ENDBRANCH  23  28
ENDBRANCH   1  23
TORSDOF 8
ENDMDL
MODEL 7
REMARK VINA RESULT:      -7.9      3.055      9.910
REMARK  Name = 
REMARK  10 active torsions:
REMARK  status: ('A' for Active; 'I' for Inactive)
REMARK    1  A    between atoms: C_1  and  C_2
REMARK    2  A    between atoms: C_2  and  O_3
REMARK    3  A    between atoms: O_3  and  C_4
REMARK    4  A    between atoms: C_7  and  N_8
REMARK    5  A    between atoms: N_8  and  C_9
REMARK    6  A    between atoms: N_12  and  C_13
REMARK    7  A    between atoms: C_17  and  O_18
REMARK    8  A    between atoms: O_18  and  C_19
REMARK    9  A    between atoms: C_19  and  C_20
REMARK   10  A    between atoms: N_22  and  C_23
REMARK                            x       y       z     vdW  Elec       q    Type
REMARK                         _______ _______ _______ _____ _____    ______ ____
ROOT
ATOM      1  C   UNL     1       4.010   4.845  19.616  0.00  0.00    +0.000 A 
ATOM      2  N   UNL     1       3.603   6.114  19.376  0.00  0.00    +0.000 NA
ATOM      3  C   UNL     1       2.426   6.509  19.882  0.00  0.00    +0.000 A 
ATOM      4  N   UNL     1       2.026   7.815  19.603  0.00  0.00    +0.000 N 
ATOM      5  N   UNL     1       1.619   5.707  20.595  0.00  0.00    +0.000 NA
ATOM      6  C   UNL     1       2.018   4.435  20.775  0.00  0.00    +0.000 A 
ATOM      7  C   UNL     1       3.203   3.950  20.296  0.00  0.00    +0.000 A 
ATOM      8  F   UNL     1       3.582   2.686  20.524  0.00  0.00    +0.000 F 
ATOM      9  H   UNL     1       2.709   8.269  19.012  0.00  0.00    +0.000 HD
ENDROOT
BRANCH   4  10
ATOM     10  C   UNL     1       1.269   8.676  20.416  0.00  0.00    +0.000 A 
ATOM     11  C   UNL     1       1.301   8.603  21.816  0.00  0.00    +0.000 A 
ATOM     12  C   UNL     1       0.539   9.471  22.596  0.00  0.00    +0.000 A 
ATOM     13  C   UNL     1      -0.278  10.415  21.983  0.00  0.00    +0.000 A 
ATOM     14  C   UNL     1      -0.347  10.485  20.591  0.00  0.00    +0.000 A 
ATOM     15  C   UNL     1       0.441   9.633  19.812  0.00  0.00    +0.000 A 
BRANCH  14  16
ATOM     16  O   UNL     1      -1.177  11.456  20.103  0.00  0.00    +0.000 OA
BRANCH  16  17
ATOM     17  C   UNL     1      -0.999  11.799  18.727  0.00  0.00    +0.000 C 
BRANCH  17  18
ATOM     18  C   UNL     1      -0.110  13.040  18.600  0.00  0.00    +0.000 C 
ATOM     19  O   UNL     1       1.092  12.955  18.360  0.00  0.00    +0.000 OA
ATOM     20  N   UNL     1      -0.769  14.232  18.800  0.00  0.00    +0.000 N 
ATOM     21  C   UNL     1      -0.121  15.516  18.766  0.00  0.00    +0.000 C 
ATOM     22  H   UNL     1      -1.765  14.176  18.991  0.00  0.00    +0.000 HD
ENDBRANCH  17  18
ENDBRANCH  16  17
ENDBRANCH  14  16
ENDBRANCH   4  10
BRANCH   1  23
ATOM     23  N   UNL     1       5.253   4.387  19.095  0.00  0.00    +0.000 N 
ATOM     24  H   UNL     1       6.010   4.819  19.624  0.00  0.00    +0.000 HD
BRANCH  23  28
ATOM     25  C   UNL     1       6.253   4.292  14.992  0.00  0.00    +0.000 A 
ATOM     26  C   UNL     1       7.209   4.680  15.928  0.00  0.00    +0.000 A 
ATOM     27  C   UNL     1       6.887   4.726  17.284  0.00  0.00    +0.000 A 
ATOM     28  C   UNL     1       5.591   4.427  17.721  0.00  0.00    +0.000 A 
ATOM     29  C   UNL     1       4.644   4.016  16.777  0.00  0.00    +0.000 A 
ATOM     30  C   UNL     1       4.963   3.975  15.415  0.00  0.00    +0.000 A 
BRANCH  25  31
ATOM     31  O   UNL     1       6.694   4.270  13.700  0.00  0.00    +0.000 OA
BRANCH  31  33
ATOM     32  C   UNL     1       6.481   2.715  11.918  0.00  0.00    +0.000 C 
ATOM     33  C   UNL     1       5.770   3.782  12.730  0.00  0.00    +0.000 C 
ENDBRANCH  31  33
ENDBRANCH  25  31
ENDBRANCH  23  28
ENDBRANCH   1  23
TORSDOF 8
ENDMDL
MODEL 8
REMARK VINA RESULT:      -7.9      1.649      2.197
REMARK  Name = 
REMARK  10 active torsions:
REMARK  status: ('A' for Active; 'I' for Inactive)
REMARK    1  A    between atoms: C_1  and  C_2
REMARK    2  A    between atoms: C_2  and  O_3
REMARK    3  A    between atoms: O_3  and  C_4
REMARK    4  A    between atoms: C_7  and  N_8
REMARK    5  A    between atoms: N_8  and  C_9
REMARK    6  A    between atoms: N_12  and  C_13
REMARK    7  A    between atoms: C_17  and  O_18
REMARK    8  A    between atoms: O_18  and  C_19
REMARK    9  A    between atoms: C_19  and  C_20
REMARK   10  A    between atoms: N_22  and  C_23
REMARK                            x       y       z     vdW  Elec       q    Type
REMARK                         _______ _______ _______ _____ _____    ______ ____
ROOT
ATOM      1  C   UNL     1       0.378  10.143  18.909  0.00  0.00    +0.000 A 
ATOM      2  N   UNL     1       1.248   9.559  18.051  0.00  0.00    +0.000 NA
ATOM      3  C   UNL     1       2.004   8.550  18.504  0.00  0.00    +0.000 A 
ATOM      4  N   UNL     1       2.903   7.980  17.603  0.00  0.00    +0.000 N 
ATOM      5  N   UNL     1       1.961   8.101  19.769  0.00  0.00    +0.000 NA
ATOM      6  C   UNL     1       1.130   8.732  20.618  0.00  0.00    +0.000 A 
ATOM      7  C   UNL     1       0.322   9.768  20.239  0.00  0.00    +0.000 A 
ATOM      8  F   UNL     1      -0.518  10.350  21.105  0.00  0.00    +0.000 F 
ATOM      9  H   UNL     1       2.856   8.461  16.715  0.00  0.00    +0.000 HD
ENDROOT
BRANCH   4  10
ATOM     10  C   UNL     1       3.326   6.642  17.538  0.00  0.00    +0.000 A 
ATOM     11  C   UNL     1       2.561   5.589  18.061  0.00  0.00    +0.000 A 
ATOM     12  C   UNL     1       3.007   4.271  17.982  0.00  0.00    +0.000 A 
ATOM     13  C   UNL     1       4.235   3.991  17.391  0.00  0.00    +0.000 A 
ATOM     14  C   UNL     1       5.025   5.026  16.891  0.00  0.00    +0.000 A 
ATOM     15  C   UNL     1       4.561   6.343  16.945  0.00  0.00    +0.000 A 
BRANCH  14  16
ATOM     16  O   UNL     1       6.205   4.629  16.327  0.00  0.00    +0.000 OA
BRANCH  16  17
ATOM     17  C   UNL     1       7.322   4.531  17.214  0.00  0.00    +0.000 C 
BRANCH  17  18
ATOM     18  C   UNL     1       7.512   5.848  17.973  0.00  0.00    +0.000 C 
ATOM     19  O   UNL     1       7.426   5.910  19.197  0.00  0.00    +0.000 OA
ATOM     20  N   UNL     1       7.760   6.936  17.167  0.00  0.00    +0.000 N 
ATOM     21  C   UNL     1       7.932   8.275  17.666  0.00  0.00    +0.000 C 
ATOM     22  H   UNL     1       7.810   6.762  16.168  0.00  0.00    +0.000 HD
ENDBRANCH  17  18
ENDBRANCH  16  17
ENDBRANCH  14  16
ENDBRANCH   4  10
BRANCH   1  23
ATOM     23  N   UNL     1      -0.442  11.220  18.466  0.00  0.00    +0.000 N 
ATOM     24  H   UNL     1      -0.227  12.047  19.022  0.00  0.00    +0.000 HD
BRANCH  23  28
ATOM     25  C   UNL     1      -4.619  11.043  17.861  0.00  0.00    +0.000 A 
ATOM     26  C   UNL     1      -4.095  11.911  18.815  0.00  0.00    +0.000 A 
ATOM     27  C   UNL     1      -2.718  11.970  19.032  0.00  0.00    +0.000 A 
ATOM     28  C   UNL     1      -1.848  11.129  18.328  0.00  0.00    +0.000 A 
ATOM     29  C   UNL     1      -2.381  10.277  17.355  0.00  0.00    +0.000 A 
ATOM     30  C   UNL     1      -3.762  10.212  17.140  0.00  0.00    +0.000 A 
BRANCH  25  31
ATOM     31  O   UNL     1      -5.978  11.090  17.730  0.00  0.00    +0.000 OA
BRANCH  31  33
ATOM     32  C   UNL     1      -6.975   9.617  19.303  0.00  0.00    +0.000 C 
ATOM     33  C   UNL     1      -6.725  11.071  18.944  0.00  0.00    +0.000 C 
ENDBRANCH  31  33
ENDBRANCH  25  31
ENDBRANCH  23  28
ENDBRANCH   1  23
TORSDOF 8
ENDMDL
MODEL 9
REMARK VINA RESULT:      -7.8      1.529      1.905
REMARK  Name = 
REMARK  10 active torsions:
REMARK  status: ('A' for Active; 'I' for Inactive)
REMARK    1  A    between atoms: C_1  and  C_2
REMARK    2  A    between atoms: C_2  and  O_3
REMARK    3  A    between atoms: O_3  and  C_4
REMARK    4  A    between atoms: C_7  and  N_8
REMARK    5  A    between atoms: N_8  and  C_9
REMARK    6  A    between atoms: N_12  and  C_13
REMARK    7  A    between atoms: C_17  and  O_18
REMARK    8  A    between atoms: O_18  and  C_19
REMARK    9  A    between atoms: C_19  and  C_20
REMARK   10  A    between atoms: N_22  and  C_23
REMARK                            x       y       z     vdW  Elec       q    Type
REMARK                         _______ _______ _______ _____ _____    ______ ____
ROOT
ATOM      1  C   UNL     1      -0.287   9.995  19.626  0.00  0.00    +0.000 A 
ATOM      2  N   UNL     1       0.564   9.566  18.664  0.00  0.00    +0.000 NA
ATOM      3  C   UNL     1       1.563   8.747  19.020  0.00  0.00    +0.000 A 
ATOM      4  N   UNL     1       2.434   8.338  18.011  0.00  0.00    +0.000 N 
ATOM      5  N   UNL     1       1.778   8.346  20.283  0.00  0.00    +0.000 NA
ATOM      6  C   UNL     1       0.953   8.826  21.230  0.00  0.00    +0.000 A 
ATOM      7  C   UNL     1      -0.092   9.663  20.955  0.00  0.00    +0.000 A 
ATOM      8  F   UNL     1      -0.913  10.095  21.921  0.00  0.00    +0.000 F 
ATOM      9  H   UNL     1       2.175   8.768  17.133  0.00  0.00    +0.000 HD
ENDROOT
BRANCH   4  10
ATOM     10  C   UNL     1       3.109   7.111  17.901  0.00  0.00    +0.000 A 
ATOM     11  C   UNL     1       2.502   5.891  18.230  0.00  0.00    +0.000 A 
ATOM     12  C   UNL     1       3.198   4.689  18.111  0.00  0.00    +0.000 A 
ATOM     13  C   UNL     1       4.519   4.695  17.676  0.00  0.00    +0.000 A 
ATOM     14  C   UNL     1       5.152   5.901  17.371  0.00  0.00    +0.000 A 
ATOM     15  C   UNL     1       4.441   7.101  17.463  0.00  0.00    +0.000 A 
BRANCH  14  16
ATOM     16  O   UNL     1       6.446   5.781  16.946  0.00  0.00    +0.000 OA
BRANCH  16  17
ATOM     17  C   UNL     1       6.812   4.509  16.407  0.00  0.00    +0.000 C 
BRANCH  17  18
ATOM     18  C   UNL     1       6.963   4.603  14.886  0.00  0.00    +0.000 C 
ATOM     19  O   UNL     1       7.610   5.500  14.351  0.00  0.00    +0.000 OA
ATOM     20  N   UNL     1       6.299   3.619  14.188  0.00  0.00    +0.000 N 
ATOM     21  C   UNL     1       6.274   3.538  12.752  0.00  0.00    +0.000 C 
ATOM     22  H   UNL     1       5.798   2.929  14.739  0.00  0.00    +0.000 HD
ENDBRANCH  17  18
ENDBRANCH  16  17
ENDBRANCH  14  16
ENDBRANCH   4  10
BRANCH   1  23
ATOM     23  N   UNL     1      -1.361  10.867  19.289  0.00  0.00    +0.000 N 
ATOM     24  H   UNL     1      -1.995  10.931  20.085  0.00  0.00    +0.000 HD
BRANCH  23  28
ATOM     25  C   UNL     1      -3.519  10.578  15.669  0.00  0.00    +0.000 A 
ATOM     26  C   UNL     1      -3.957  11.443  16.668  0.00  0.00    +0.000 A 
ATOM     27  C   UNL     1      -3.259  11.539  17.872  0.00  0.00    +0.000 A 
ATOM     28  C   UNL     1      -2.137  10.737  18.112  0.00  0.00    +0.000 A 
ATOM     29  C   UNL     1      -1.690   9.887  17.094  0.00  0.00    +0.000 A 
ATOM     30  C   UNL     1      -2.393   9.785  15.888  0.00  0.00    +0.000 A 
BRANCH  25  31
ATOM     31  O   UNL     1      -4.275  10.587  14.532  0.00  0.00    +0.000 OA
BRANCH  31  33
ATOM     32  C   UNL     1      -4.830   9.827  12.352  0.00  0.00    +0.000 C 
ATOM     33  C   UNL     1      -3.765   9.835  13.433  0.00  0.00    +0.000 C 
ENDBRANCH  31  33
ENDBRANCH  25  31
ENDBRANCH  23  28
ENDBRANCH   1  23
TORSDOF 8
ENDMDL
