MODEL 1
REMARK VINA RESULT:      -8.6      0.000      0.000
REMARK  Name = 
REMARK  3 active torsions:
REMARK  status: ('A' for Active; 'I' for Inactive)
REMARK    1  A    between atoms: C_2  and  C_3
REMARK    2  A    between atoms: C_14  and  C_15
REMARK    3  A    between atoms: C_17  and  C_18
REMARK                            x       y       z     vdW  Elec       q    Type
REMARK                         _______ _______ _______ _____ _____    ______ ____
ROOT
ATOM      1  O   UNL     1       4.147   7.508  17.882  0.00  0.00    +0.000 OA
ATOM      2  C   UNL     1       4.440   6.334  18.091  0.00  0.00    +0.000 C 
ATOM      3  N   UNL     1       5.713   5.844  17.929  0.00  0.00    +0.000 N 
ATOM      4  C   UNL     1       6.920   6.520  17.496  0.00  0.00    +0.000 C 
ATOM      5  C   UNL     1       7.405   5.164  16.943  0.00  0.00    +0.000 C 
ATOM      6  C   UNL     1       6.263   4.516  17.745  0.00  0.00    +0.000 C 
ENDROOT
BRANCH   2   7
ATOM      7  C   UNL     1       3.390   5.384  18.553  0.00  0.00    +0.000 A 
ATOM      8  C   UNL     1       2.468   4.857  17.634  0.00  0.00    +0.000 A 
ATOM      9  C   UNL     1       1.473   3.948  18.032  0.00  0.00    +0.000 A 
ATOM     10  C   UNL     1       1.460   3.586  19.382  0.00  0.00    +0.000 A 
ATOM     11  N   UNL     1       0.674   2.735  20.117  0.00  0.00    +0.000 N 
ATOM     12  C   UNL     1       1.116   2.763  21.411  0.00  0.00    +0.000 A 
ATOM     13  N   UNL     1       2.118   3.595  21.565  0.00  0.00    +0.000 NA
ATOM     14  C   UNL     1       2.342   4.113  20.317  0.00  0.00    +0.000 A 
ATOM     15  C   UNL     1       3.293   5.050  19.912  0.00  0.00    +0.000 A 
ATOM     16  H   UNL     1      -0.095   2.183  19.767  0.00  0.00    +0.000 HD
ENDBRANCH   2   7
BRANCH   5  17
ATOM     17  C   UNL     1       7.236   4.991  15.445  0.00  0.00    +0.000 A 
ATOM     18  N   UNL     1       6.365   4.161  14.918  0.00  0.00    +0.000 NA
ATOM     19  C   UNL     1       6.606   4.289  13.569  0.00  0.00    +0.000 A 
ATOM     20  N   UNL     1       7.563   5.177  13.264  0.00  0.00    +0.000 NA
ATOM     21  O   UNL     1       7.971   5.658  14.506  0.00  0.00    +0.000 OA
BRANCH  19  22
ATOM     22  C   UNL     1       5.875   3.469  12.556  0.00  0.00    +0.000 A 
ATOM     23  C   UNL     1       4.603   3.767  12.114  0.00  0.00    +0.000 A 
ATOM     24  C   UNL     1       4.116   2.798  11.188  0.00  0.00    +0.000 A 
ATOM     25  C   UNL     1       5.036   1.798  10.959  0.00  0.00    +0.000 A 
ATOM     26  S   UNL     1       6.488   2.052  11.829  0.00  0.00    +0.000 S 
ENDBRANCH  19  22
ENDBRANCH   5  17
TORSDOF 3
ENDMDL
MODEL 2
REMARK VINA RESULT:      -7.6      0.825      1.367
REMARK  Name = 
REMARK  3 active torsions:
REMARK  status: ('A' for Active; 'I' for Inactive)
REMARK    1  A    between atoms: C_2  and  C_3
REMARK    2  A    between atoms: C_14  and  C_15
REMARK    3  A    between atoms: C_17  and  C_18
REMARK                            x       y       z     vdW  Elec       q    Type
REMARK                         _______ _______ _______ _____ _____    ______ ____
ROOT
ATOM      1  O   UNL     1       4.189   7.683  17.755  0.00  0.00    +0.000 OA
ATOM      2  C   UNL     1       4.475   6.515  18.005  0.00  0.00    +0.000 C 
ATOM      3  N   UNL     1       5.745   6.011  17.859  0.00  0.00    +0.000 N 
ATOM      4  C   UNL     1       6.955   6.663  17.403  0.00  0.00    +0.000 C 
ATOM      5  C   UNL     1       7.431   5.286  16.896  0.00  0.00    +0.000 C 
ATOM      6  C   UNL     1       6.286   4.674  17.720  0.00  0.00    +0.000 C 
ENDROOT
BRANCH   2   7
ATOM      7  C   UNL     1       3.419   5.588  18.500  0.00  0.00    +0.000 A 
ATOM      8  C   UNL     1       2.709   5.898  19.672  0.00  0.00    +0.000 A 
ATOM      9  C   UNL     1       1.697   5.054  20.161  0.00  0.00    +0.000 A 
ATOM     10  C   UNL     1       1.425   3.904  19.414  0.00  0.00    +0.000 A 
ATOM     11  N   UNL     1       0.522   2.882  19.560  0.00  0.00    +0.000 N 
ATOM     12  C   UNL     1       0.696   2.011  18.520  0.00  0.00    +0.000 A 
ATOM     13  N   UNL     1       1.669   2.390  17.727  0.00  0.00    +0.000 NA
ATOM     14  C   UNL     1       2.132   3.561  18.268  0.00  0.00    +0.000 A 
ATOM     15  C   UNL     1       3.165   4.387  17.823  0.00  0.00    +0.000 A 
ATOM     16  H   UNL     1      -0.154   2.787  20.303  0.00  0.00    +0.000 HD
ENDBRANCH   2   7
BRANCH   5  17
ATOM     17  C   UNL     1       7.260   5.063  15.405  0.00  0.00    +0.000 A 
ATOM     18  N   UNL     1       6.373   4.231  14.907  0.00  0.00    +0.000 NA
ATOM     19  C   UNL     1       6.618   4.307  13.554  0.00  0.00    +0.000 A 
ATOM     20  N   UNL     1       7.591   5.165  13.219  0.00  0.00    +0.000 NA
ATOM     21  O   UNL     1       8.008   5.682  14.444  0.00  0.00    +0.000 OA
BRANCH  19  22
ATOM     22  C   UNL     1       5.871   3.465  12.571  0.00  0.00    +0.000 A 
ATOM     23  C   UNL     1       4.577   3.727  12.175  0.00  0.00    +0.000 A 
ATOM     24  C   UNL     1       4.081   2.744  11.270  0.00  0.00    +0.000 A 
ATOM     25  C   UNL     1       5.019   1.768  11.009  0.00  0.00    +0.000 A 
ATOM     26  S   UNL     1       6.495   2.062  11.824  0.00  0.00    +0.000 S 
ENDBRANCH  19  22
ENDBRANCH   5  17
TORSDOF 3
ENDMDL
MODEL 3
REMARK VINA RESULT:      -7.6      7.340      8.735
REMARK  Name = 
REMARK  3 active torsions:
REMARK  status: ('A' for Active; 'I' for Inactive)
REMARK    1  A    between atoms: C_2  and  C_3
REMARK    2  A    between atoms: C_14  and  C_15
REMARK    3  A    between atoms: C_17  and  C_18
REMARK                            x       y       z     vdW  Elec       q    Type
REMARK                         _______ _______ _______ _____ _____    ______ ____
ROOT
ATOM      1  O   UNL     1      -0.568  13.203  18.192  0.00  0.00    +0.000 OA
ATOM      2  C   UNL     1      -1.107  12.237  18.727  0.00  0.00    +0.000 C 
ATOM      3  N   UNL     1      -0.460  11.431  19.633  0.00  0.00    +0.000 N 
ATOM      4  C   UNL     1       0.898  11.499  20.132  0.00  0.00    +0.000 C 
ATOM      5  C   UNL     1       0.833   9.971  20.334  0.00  0.00    +0.000 C 
ATOM      6  C   UNL     1      -0.686  10.085  20.121  0.00  0.00    +0.000 C 
ENDROOT
BRANCH   2   7
ATOM      7  C   UNL     1      -2.524  11.912  18.405  0.00  0.00    +0.000 A 
ATOM      8  C   UNL     1      -2.844  11.322  17.171  0.00  0.00    +0.000 A 
ATOM      9  C   UNL     1      -4.168  10.989  16.839  0.00  0.00    +0.000 A 
ATOM     10  C   UNL     1      -5.143  11.262  17.803  0.00  0.00    +0.000 A 
ATOM     11  N   UNL     1      -6.500  11.065  17.847  0.00  0.00    +0.000 N 
ATOM     12  C   UNL     1      -6.955  11.521  19.054  0.00  0.00    +0.000 A 
ATOM     13  N   UNL     1      -5.986  12.022  19.780  0.00  0.00    +0.000 NA
ATOM     14  C   UNL     1      -4.857  11.870  19.019  0.00  0.00    +0.000 A 
ATOM     15  C   UNL     1      -3.543  12.235  19.312  0.00  0.00    +0.000 A 
ATOM     16  H   UNL     1      -7.066  10.656  17.119  0.00  0.00    +0.000 HD
ENDBRANCH   2   7
BRANCH   5  17
ATOM     17  C   UNL     1       1.515   9.158  19.249  0.00  0.00    +0.000 A 
ATOM     18  N   UNL     1       1.838   7.893  19.404  0.00  0.00    +0.000 NA
ATOM     19  C   UNL     1       2.473   7.598  18.219  0.00  0.00    +0.000 A 
ATOM     20  N   UNL     1       2.521   8.620  17.353  0.00  0.00    +0.000 NA
ATOM     21  O   UNL     1       1.871   9.651  18.026  0.00  0.00    +0.000 OA
BRANCH  19  22
ATOM     22  C   UNL     1       3.080   6.257  17.964  0.00  0.00    +0.000 A 
ATOM     23  C   UNL     1       2.361   5.080  17.993  0.00  0.00    +0.000 A 
ATOM     24  C   UNL     1       3.186   3.940  17.767  0.00  0.00    +0.000 A 
ATOM     25  C   UNL     1       4.504   4.291  17.573  0.00  0.00    +0.000 A 
ATOM     26  S   UNL     1       4.732   5.987  17.628  0.00  0.00    +0.000 S 
ENDBRANCH  19  22
ENDBRANCH   5  17
TORSDOF 3
ENDMDL
MODEL 4
REMARK VINA RESULT:      -7.5      3.646      6.062
REMARK  Name = 
REMARK  3 active torsions:
REMARK  status: ('A' for Active; 'I' for Inactive)
REMARK    1  A    between atoms: C_2  and  C_3
REMARK    2  A    between atoms: C_14  and  C_15
REMARK    3  A    between atoms: C_17  and  C_18
REMARK                            x       y       z     vdW  Elec       q    Type
REMARK                         _______ _______ _______ _____ _____    ______ ____
ROOT
ATOM      1  O   UNL     1       5.535   3.071  16.677  0.00  0.00    +0.000 OA
ATOM      2  C   UNL     1       4.782   3.991  16.988  0.00  0.00    +0.000 C 
ATOM      3  N   UNL     1       4.905   5.259  16.476  0.00  0.00    +0.000 N 
ATOM      4  C   UNL     1       5.871   5.792  15.536  0.00  0.00    +0.000 C 
ATOM      5  C   UNL     1       5.678   7.165  16.212  0.00  0.00    +0.000 C 
ATOM      6  C   UNL     1       4.440   6.565  16.901  0.00  0.00    +0.000 C 
ENDROOT
BRANCH   2   7
ATOM      7  C   UNL     1       3.673   3.741  17.951  0.00  0.00    +0.000 A 
ATOM      8  C   UNL     1       2.339   3.854  17.528  0.00  0.00    +0.000 A 
ATOM      9  C   UNL     1       1.268   3.612  18.405  0.00  0.00    +0.000 A 
ATOM     10  C   UNL     1       1.601   3.240  19.711  0.00  0.00    +0.000 A 
ATOM     11  N   UNL     1       0.851   2.914  20.813  0.00  0.00    +0.000 N 
ATOM     12  C   UNL     1       1.710   2.624  21.837  0.00  0.00    +0.000 A 
ATOM     13  N   UNL     1       2.963   2.766  21.477  0.00  0.00    +0.000 NA
ATOM     14  C   UNL     1       2.911   3.149  20.163  0.00  0.00    +0.000 A 
ATOM     15  C   UNL     1       3.961   3.438  19.290  0.00  0.00    +0.000 A 
ATOM     16  H   UNL     1      -0.156   2.890  20.862  0.00  0.00    +0.000 HD
ENDBRANCH   2   7
BRANCH   5  17
ATOM     17  C   UNL     1       6.766   7.547  17.199  0.00  0.00    +0.000 A 
ATOM     18  N   UNL     1       7.153   8.789  17.385  0.00  0.00    +0.000 NA
ATOM     19  C   UNL     1       8.175   8.650  18.297  0.00  0.00    +0.000 A 
ATOM     20  N   UNL     1       8.399   7.386  18.683  0.00  0.00    +0.000 NA
ATOM     21  O   UNL     1       7.454   6.653  17.969  0.00  0.00    +0.000 OA
BRANCH  19  22
ATOM     22  C   UNL     1       8.974   9.822  18.768  0.00  0.00    +0.000 A 
ATOM     23  C   UNL     1       9.196  10.103  20.100  0.00  0.00    +0.000 A 
ATOM     24  C   UNL     1       9.944  11.303  20.279  0.00  0.00    +0.000 A 
ATOM     25  C   UNL     1      10.264  11.892  19.075  0.00  0.00    +0.000 A 
ATOM     26  S   UNL     1       9.696  10.980  17.743  0.00  0.00    +0.000 S 
ENDBRANCH  19  22
ENDBRANCH   5  17
TORSDOF 3
ENDMDL
MODEL 5
REMARK VINA RESULT:      -7.4      6.517      8.321
REMARK  Name = 
REMARK  3 active torsions:
REMARK  status: ('A' for Active; 'I' for Inactive)
REMARK    1  A    between atoms: C_2  and  C_3
REMARK    2  A    between atoms: C_14  and  C_15
REMARK    3  A    between atoms: C_17  and  C_18
REMARK                            x       y       z     vdW  Elec       q    Type
REMARK                         _______ _______ _______ _____ _____    ______ ____
ROOT
ATOM      1  O   UNL     1       1.168  12.007  20.385  0.00  0.00    +0.000 OA
ATOM      2  C   UNL     1       0.251  11.205  20.540  0.00  0.00    +0.000 C 
ATOM      3  N   UNL     1       0.389  10.047  21.266  0.00  0.00    +0.000 N 
ATOM      4  C   UNL     1       1.546   9.518  21.959  0.00  0.00    +0.000 C 
ATOM      5  C   UNL     1       0.972   8.108  21.708  0.00  0.00    +0.000 C 
ATOM      6  C   UNL     1      -0.345   8.798  21.315  0.00  0.00    +0.000 C 
ENDROOT
BRANCH   2   7
ATOM      7  C   UNL     1      -1.081  11.484  19.934  0.00  0.00    +0.000 A 
ATOM      8  C   UNL     1      -2.029  12.240  20.643  0.00  0.00    +0.000 A 
ATOM      9  C   UNL     1      -3.289  12.535  20.096  0.00  0.00    +0.000 A 
ATOM     10  C   UNL     1      -3.543  12.049  18.810  0.00  0.00    +0.000 A 
ATOM     11  N   UNL     1      -4.620  12.148  17.965  0.00  0.00    +0.000 N 
ATOM     12  C   UNL     1      -4.316  11.477  16.813  0.00  0.00    +0.000 A 
ATOM     13  N   UNL     1      -3.126  10.931  16.867  0.00  0.00    +0.000 NA
ATOM     14  C   UNL     1      -2.634  11.276  18.099  0.00  0.00    +0.000 A 
ATOM     15  C   UNL     1      -1.405  10.954  18.676  0.00  0.00    +0.000 A 
ATOM     16  H   UNL     1      -5.485  12.630  18.158  0.00  0.00    +0.000 HD
ENDBRANCH   2   7
BRANCH   5  17
ATOM     17  C   UNL     1       1.606   7.360  20.550  0.00  0.00    +0.000 A 
ATOM     18  N   UNL     1       1.616   6.048  20.470  0.00  0.00    +0.000 NA
ATOM     19  C   UNL     1       2.335   5.823  19.318  0.00  0.00    +0.000 A 
ATOM     20  N   UNL     1       2.733   6.940  18.692  0.00  0.00    +0.000 NA
ATOM     21  O   UNL     1       2.236   7.962  19.498  0.00  0.00    +0.000 OA
BRANCH  19  22
ATOM     22  C   UNL     1       2.661   4.442  18.850  0.00  0.00    +0.000 A 
ATOM     23  C   UNL     1       1.766   3.639  18.173  0.00  0.00    +0.000 A 
ATOM     24  C   UNL     1       2.310   2.352  17.887  0.00  0.00    +0.000 A 
ATOM     25  C   UNL     1       3.599   2.223  18.356  0.00  0.00    +0.000 A 
ATOM     26  S   UNL     1       4.156   3.659  19.102  0.00  0.00    +0.000 S 
ENDBRANCH  19  22
ENDBRANCH   5  17
TORSDOF 3
ENDMDL
MODEL 6
REMARK VINA RESULT:      -7.3      6.358      8.115
REMARK  Name = 
REMARK  3 active torsions:
REMARK  status: ('A' for Active; 'I' for Inactive)
REMARK    1  A    between atoms: C_2  and  C_3
REMARK    2  A    between atoms: C_14  and  C_15
REMARK    3  A    between atoms: C_17  and  C_18
REMARK                            x       y       z     vdW  Elec       q    Type
REMARK                         _______ _______ _______ _____ _____    ______ ____
ROOT
ATOM      1  O   UNL     1       1.007  11.565  18.864  0.00  0.00    +0.000 OA
ATOM      2  C   UNL     1       0.096  10.845  19.266  0.00  0.00    +0.000 C 
ATOM      3  N   UNL     1       0.215  10.042  20.374  0.00  0.00    +0.000 N 
ATOM      4  C   UNL     1       1.343   9.847  21.263  0.00  0.00    +0.000 C 
ATOM      5  C   UNL     1       0.806   8.425  21.528  0.00  0.00    +0.000 C 
ATOM      6  C   UNL     1      -0.500   8.875  20.851  0.00  0.00    +0.000 C 
ENDROOT
BRANCH   2   7
ATOM      7  C   UNL     1      -1.206  10.834  18.543  0.00  0.00    +0.000 A 
ATOM      8  C   UNL     1      -1.354  10.063  17.378  0.00  0.00    +0.000 A 
ATOM      9  C   UNL     1      -2.572  10.017  16.679  0.00  0.00    +0.000 A 
ATOM     10  C   UNL     1      -3.628  10.765  17.210  0.00  0.00    +0.000 A 
ATOM     11  N   UNL     1      -4.933  10.947  16.829  0.00  0.00    +0.000 N 
ATOM     12  C   UNL     1      -5.523  11.790  17.731  0.00  0.00    +0.000 A 
ATOM     13  N   UNL     1      -4.678  12.183  18.653  0.00  0.00    +0.000 NA
ATOM     14  C   UNL     1      -3.500  11.557  18.344  0.00  0.00    +0.000 A 
ATOM     15  C   UNL     1      -2.269  11.626  18.999  0.00  0.00    +0.000 A 
ATOM     16  H   UNL     1      -5.381  10.534  16.026  0.00  0.00    +0.000 HD
ENDBRANCH   2   7
BRANCH   5  17
ATOM     17  C   UNL     1       1.513   7.325  20.758  0.00  0.00    +0.000 A 
ATOM     18  N   UNL     1       2.353   7.569  19.778  0.00  0.00    +0.000 NA
ATOM     19  C   UNL     1       2.686   6.305  19.347  0.00  0.00    +0.000 A 
ATOM     20  N   UNL     1       2.105   5.317  20.041  0.00  0.00    +0.000 NA
ATOM     21  O   UNL     1       1.339   5.990  20.990  0.00  0.00    +0.000 OA
BRANCH  19  22
ATOM     22  C   UNL     1       3.592   6.085  18.179  0.00  0.00    +0.000 A 
ATOM     23  C   UNL     1       4.093   7.109  17.403  0.00  0.00    +0.000 A 
ATOM     24  C   UNL     1       4.889   6.626  16.323  0.00  0.00    +0.000 A 
ATOM     25  C   UNL     1       4.965   5.250  16.317  0.00  0.00    +0.000 A 
ATOM     26  S   UNL     1       4.111   4.555  17.628  0.00  0.00    +0.000 S 
ENDBRANCH  19  22
ENDBRANCH   5  17
TORSDOF 3
ENDMDL
MODEL 7
REMARK VINA RESULT:      -7.2      6.270      8.272
REMARK  Name = 
REMARK  3 active torsions:
REMARK  status: ('A' for Active; 'I' for Inactive)
REMARK    1  A    between atoms: C_2  and  C_3
REMARK    2  A    between atoms: C_14  and  C_15
REMARK    3  A    between atoms: C_17  and  C_18
REMARK                            x       y       z     vdW  Elec       q    Type
REMARK                         _______ _______ _______ _____ _____    ______ ____
ROOT
ATOM      1  O   UNL     1       1.018  11.816  19.360  0.00  0.00    +0.000 OA
ATOM      2  C   UNL     1       0.123  11.007  19.589  0.00  0.00    +0.000 C 
ATOM      3  N   UNL     1       0.232  10.024  20.542  0.00  0.00    +0.000 N 
ATOM      4  C   UNL     1       1.334   9.711  21.431  0.00  0.00    +0.000 C 
ATOM      5  C   UNL     1       0.844   8.248  21.418  0.00  0.00    +0.000 C 
ATOM      6  C   UNL     1      -0.452   8.768  20.775  0.00  0.00    +0.000 C 
ENDROOT
BRANCH   2   7
ATOM      7  C   UNL     1      -1.151  11.082  18.820  0.00  0.00    +0.000 A 
ATOM      8  C   UNL     1      -2.260  11.750  19.364  0.00  0.00    +0.000 A 
ATOM      9  C   UNL     1      -3.472  11.852  18.661  0.00  0.00    +0.000 A 
ATOM     10  C   UNL     1      -3.511  11.270  17.391  0.00  0.00    +0.000 A 
ATOM     11  N   UNL     1      -4.483  11.185  16.427  0.00  0.00    +0.000 N 
ATOM     12  C   UNL     1      -3.966  10.496  15.365  0.00  0.00    +0.000 A 
ATOM     13  N   UNL     1      -2.734  10.108  15.590  0.00  0.00    +0.000 NA
ATOM     14  C   UNL     1      -2.438  10.579  16.841  0.00  0.00    +0.000 A 
ATOM     15  C   UNL     1      -1.257  10.448  17.573  0.00  0.00    +0.000 A 
ATOM     16  H   UNL     1      -5.416  11.564  16.488  0.00  0.00    +0.000 HD
ENDBRANCH   2   7
BRANCH   5  17
ATOM     17  C   UNL     1       1.622   7.326  20.497  0.00  0.00    +0.000 A 
ATOM     18  N   UNL     1       1.591   6.017  20.609  0.00  0.00    +0.000 NA
ATOM     19  C   UNL     1       2.473   5.611  19.632  0.00  0.00    +0.000 A 
ATOM     20  N   UNL     1       3.009   6.616  18.926  0.00  0.00    +0.000 NA
ATOM     21  O   UNL     1       2.433   7.754  19.485  0.00  0.00    +0.000 OA
BRANCH  19  22
ATOM     22  C   UNL     1       2.812   4.171  19.427  0.00  0.00    +0.000 A 
ATOM     23  C   UNL     1       4.071   3.650  19.638  0.00  0.00    +0.000 A 
ATOM     24  C   UNL     1       4.138   2.261  19.320  0.00  0.00    +0.000 A 
ATOM     25  C   UNL     1       2.926   1.776  18.880  0.00  0.00    +0.000 A 
ATOM     26  S   UNL     1       1.712   2.982  18.886  0.00  0.00    +0.000 S 
ENDBRANCH  19  22
ENDBRANCH   5  17
TORSDOF 3
ENDMDL
MODEL 8
REMARK VINA RESULT:      -7.2      6.668      8.647
REMARK  Name = 
REMARK  3 active torsions:
REMARK  status: ('A' for Active; 'I' for Inactive)
REMARK    1  A    between atoms: C_2  and  C_3
REMARK    2  A    between atoms: C_14  and  C_15
REMARK    3  A    between atoms: C_17  and  C_18
REMARK                            x       y       z     vdW  Elec       q    Type
REMARK                         _______ _______ _______ _____ _____    ______ ____
ROOT
ATOM      1  O   UNL     1       0.583  12.058  18.971  0.00  0.00    +0.000 OA
ATOM      2  C   UNL     1      -0.248  11.249  19.378  0.00  0.00    +0.000 C 
ATOM      3  N   UNL     1      -0.004  10.393  20.424  0.00  0.00    +0.000 N 
ATOM      4  C   UNL     1       1.189  10.230  21.231  0.00  0.00    +0.000 C 
ATOM      5  C   UNL     1       0.772   8.759  21.435  0.00  0.00    +0.000 C 
ATOM      6  C   UNL     1      -0.602   9.150  20.866  0.00  0.00    +0.000 C 
ENDROOT
BRANCH   2   7
ATOM      7  C   UNL     1      -1.589  11.185  18.733  0.00  0.00    +0.000 A 
ATOM      8  C   UNL     1      -1.789  10.361  17.612  0.00  0.00    +0.000 A 
ATOM      9  C   UNL     1      -3.043  10.264  16.988  0.00  0.00    +0.000 A 
ATOM     10  C   UNL     1      -4.081  11.016  17.547  0.00  0.00    +0.000 A 
ATOM     11  N   UNL     1      -5.409  11.160  17.235  0.00  0.00    +0.000 N 
ATOM     12  C   UNL     1      -5.963  12.031  18.132  0.00  0.00    +0.000 A 
ATOM     13  N   UNL     1      -5.075  12.478  18.987  0.00  0.00    +0.000 NA
ATOM     14  C   UNL     1      -3.904  11.859  18.637  0.00  0.00    +0.000 A 
ATOM     15  C   UNL     1      -2.640  11.978  19.216  0.00  0.00    +0.000 A 
ATOM     16  H   UNL     1      -5.895  10.704  16.477  0.00  0.00    +0.000 HD
ENDBRANCH   2   7
BRANCH   5  17
ATOM     17  C   UNL     1       1.505   7.762  20.556  0.00  0.00    +0.000 A 
ATOM     18  N   UNL     1       1.550   6.476  20.823  0.00  0.00    +0.000 NA
ATOM     19  C   UNL     1       2.355   5.989  19.818  0.00  0.00    +0.000 A 
ATOM     20  N   UNL     1       2.771   6.920  18.949  0.00  0.00    +0.000 NA
ATOM     21  O   UNL     1       2.195   8.095  19.426  0.00  0.00    +0.000 OA
BRANCH  19  22
ATOM     22  C   UNL     1       2.745   4.548  19.750  0.00  0.00    +0.000 A 
ATOM     23  C   UNL     1       2.669   3.690  20.827  0.00  0.00    +0.000 A 
ATOM     24  C   UNL     1       3.148   2.385  20.509  0.00  0.00    +0.000 A 
ATOM     25  C   UNL     1       3.570   2.298  19.200  0.00  0.00    +0.000 A 
ATOM     26  S   UNL     1       3.354   3.772  18.357  0.00  0.00    +0.000 S 
ENDBRANCH  19  22
ENDBRANCH   5  17
TORSDOF 3
ENDMDL
MODEL 9
REMARK VINA RESULT:      -7.1      6.119      7.997
REMARK  Name = 
REMARK  3 active torsions:
REMARK  status: ('A' for Active; 'I' for Inactive)
REMARK    1  A    between atoms: C_2  and  C_3
REMARK    2  A    between atoms: C_14  and  C_15
REMARK    3  A    between atoms: C_17  and  C_18
REMARK                            x       y       z     vdW  Elec       q    Type
REMARK                         _______ _______ _______ _____ _____    ______ ____
ROOT
ATOM      1  O   UNL     1       1.385  11.548  19.471  0.00  0.00    +0.000 OA
ATOM      2  C   UNL     1       0.416  10.847  19.753  0.00  0.00    +0.000 C 
ATOM      3  N   UNL     1       0.449   9.895  20.742  0.00  0.00    +0.000 N 
ATOM      4  C   UNL     1       1.536   9.499  21.615  0.00  0.00    +0.000 C 
ATOM      5  C   UNL     1       0.896   8.097  21.672  0.00  0.00    +0.000 C 
ATOM      6  C   UNL     1      -0.357   8.727  21.041  0.00  0.00    +0.000 C 
ENDROOT
BRANCH   2   7
ATOM      7  C   UNL     1      -0.864  11.029  19.013  0.00  0.00    +0.000 A 
ATOM      8  C   UNL     1      -1.884  11.825  19.561  0.00  0.00    +0.000 A 
ATOM      9  C   UNL     1      -3.098  12.029  18.885  0.00  0.00    +0.000 A 
ATOM     10  C   UNL     1      -3.231  11.413  17.637  0.00  0.00    +0.000 A 
ATOM     11  N   UNL     1      -4.233  11.398  16.700  0.00  0.00    +0.000 N 
ATOM     12  C   UNL     1      -3.819  10.626  15.650  0.00  0.00    +0.000 A 
ATOM     13  N   UNL     1      -2.627  10.121  15.858  0.00  0.00    +0.000 NA
ATOM     14  C   UNL     1      -2.250  10.598  17.086  0.00  0.00    +0.000 A 
ATOM     15  C   UNL     1      -1.069  10.369  17.793  0.00  0.00    +0.000 A 
ATOM     16  H   UNL     1      -5.120  11.873  16.770  0.00  0.00    +0.000 HD
ENDBRANCH   2   7
BRANCH   5  17
ATOM     17  C   UNL     1       1.546   7.064  20.769  0.00  0.00    +0.000 A 
ATOM     18  N   UNL     1       2.453   7.375  19.870  0.00  0.00    +0.000 NA
ATOM     19  C   UNL     1       2.701   6.164  19.264  0.00  0.00    +0.000 A 
ATOM     20  N   UNL     1       2.004   5.140  19.776  0.00  0.00    +0.000 NA
ATOM     21  O   UNL     1       1.250   5.731  20.787  0.00  0.00    +0.000 OA
BRANCH  19  22
ATOM     22  C   UNL     1       3.643   6.040  18.111  0.00  0.00    +0.000 A 
ATOM     23  C   UNL     1       4.055   7.113  17.348  0.00  0.00    +0.000 A 
ATOM     24  C   UNL     1       4.913   6.715  16.281  0.00  0.00    +0.000 A 
ATOM     25  C   UNL     1       5.122   5.353  16.270  0.00  0.00    +0.000 A 
ATOM     26  S   UNL     1       4.318   4.571  17.563  0.00  0.00    +0.000 S 
ENDBRANCH  19  22
ENDBRANCH   5  17
TORSDOF 3
ENDMDL
