MODEL 1
REMARK VINA RESULT:      -9.3      0.000      0.000
REMARK  Name = 
REMARK  5 active torsions:
REMARK  status: ('A' for Active; 'I' for Inactive)
REMARK    1  A    between atoms: C_2  and  C_4
REMARK    2  A    between atoms: C_9  and  N_10
REMARK    3  A    between atoms: N_10  and  C_11
REMARK    4  A    between atoms: N_14  and  C_15
REMARK    5  A    between atoms: C_18  and  N_19
REMARK                            x       y       z     vdW  Elec       q    Type
REMARK                         _______ _______ _______ _____ _____    ______ ____
ROOT
ATOM      1  C   UNL     1       3.795   4.731  19.684  0.00  0.00    +0.000 A 
ATOM      2  N   UNL     1       3.496   5.972  19.233  0.00  0.00    +0.000 NA
ATOM      3  C   UNL     1       2.345   6.539  19.630  0.00  0.00    +0.000 A 
ATOM      4  N   UNL     1       2.102   7.843  19.207  0.00  0.00    +0.000 N 
ATOM      5  N   UNL     1       1.452   5.903  20.405  0.00  0.00    +0.000 NA
ATOM      6  C   UNL     1       1.745   4.655  20.807  0.00  0.00    +0.000 A 
ATOM      7  C   UNL     1       2.910   4.015  20.480  0.00  0.00    +0.000 A 
ATOM      8 CL   UNL     1       3.245   2.442  21.084  0.00  0.00    +0.000 Cl
ATOM      9  H   UNL     1       2.798   8.147  18.537  0.00  0.00    +0.000 HD
ENDROOT
BRANCH   4  10
ATOM     10  C   UNL     1       1.361   8.872  19.813  0.00  0.00    +0.000 A 
ATOM     11  C   UNL     1       1.291   9.049  21.194  0.00  0.00    +0.000 A 
ATOM     12  C   UNL     1       0.529  10.079  21.756  0.00  0.00    +0.000 A 
ATOM     13  C   UNL     1      -0.214  10.969  20.975  0.00  0.00    +0.000 A 
ATOM     14  C   UNL     1      -0.184  10.766  19.592  0.00  0.00    +0.000 A 
ATOM     15  C   UNL     1       0.591   9.742  19.030  0.00  0.00    +0.000 A 
ATOM     16  F   UNL     1       0.605   9.611  17.693  0.00  0.00    +0.000 F 
BRANCH  13  17
ATOM     17  N   UNL     1      -0.935  11.977  21.578  0.00  0.00    +0.000 N 
ATOM     18  C   UNL     1      -1.229  12.022  23.016  0.00  0.00    +0.000 C 
ATOM     19  C   UNL     1      -2.741  11.937  23.258  0.00  0.00    +0.000 C 
ATOM     20  O   UNL     1      -3.454  12.942  22.515  0.00  0.00    +0.000 OA
ATOM     21  C   UNL     1      -3.216  12.781  21.107  0.00  0.00    +0.000 C 
ATOM     22  C   UNL     1      -1.723  12.920  20.765  0.00  0.00    +0.000 C 
ENDBRANCH  13  17
ENDBRANCH   4  10
BRANCH   1  23
ATOM     23  N   UNL     1       5.002   4.111  19.243  0.00  0.00    +0.000 N 
ATOM     24  H   UNL     1       5.713   4.221  19.972  0.00  0.00    +0.000 HD
BRANCH  23  30
ATOM     25  C   UNL     1       6.755   5.206  17.872  0.00  0.00    +0.000 A 
ATOM     26  C   UNL     1       7.260   5.528  16.600  0.00  0.00    +0.000 A 
ATOM     27  C   UNL     1       6.662   5.031  15.443  0.00  0.00    +0.000 A 
ATOM     28  C   UNL     1       5.539   4.218  15.545  0.00  0.00    +0.000 A 
ATOM     29  C   UNL     1       5.024   3.896  16.802  0.00  0.00    +0.000 A 
ATOM     30  C   UNL     1       5.633   4.353  17.988  0.00  0.00    +0.000 A 
BRANCH  25  32
ATOM     31  N   UNL     1       8.230   6.922  18.806  0.00  0.00    +0.000 N 
ATOM     32  C   UNL     1       7.486   5.801  19.030  0.00  0.00    +0.000 C 
ATOM     33  O   UNL     1       7.399   5.328  20.158  0.00  0.00    +0.000 OA
ATOM     34  H   UNL     1       8.658   7.377  19.599  0.00  0.00    +0.000 HD
ATOM     35  H   UNL     1       8.256   7.365  17.895  0.00  0.00    +0.000 HD
ENDBRANCH  25  32
ENDBRANCH  23  30
ENDBRANCH   1  23
TORSDOF 5
ENDMDL
MODEL 2
REMARK VINA RESULT:      -9.0      0.632      1.130
REMARK  Name = 
REMARK  5 active torsions:
REMARK  status: ('A' for Active; 'I' for Inactive)
REMARK    1  A    between atoms: C_2  and  C_4
REMARK    2  A    between atoms: C_9  and  N_10
REMARK    3  A    between atoms: N_10  and  C_11
REMARK    4  A    between atoms: N_14  and  C_15
REMARK    5  A    between atoms: C_18  and  N_19
REMARK                            x       y       z     vdW  Elec       q    Type
REMARK                         _______ _______ _______ _____ _____    ______ ____
ROOT
ATOM      1  C   UNL     1       3.873   4.778  19.721  0.00  0.00    +0.000 A 
ATOM      2  N   UNL     1       3.554   6.021  19.285  0.00  0.00    +0.000 NA
ATOM      3  C   UNL     1       2.356   6.529  19.617  0.00  0.00    +0.000 A 
ATOM      4  N   UNL     1       2.090   7.836  19.214  0.00  0.00    +0.000 N 
ATOM      5  N   UNL     1       1.439   5.836  20.310  0.00  0.00    +0.000 NA
ATOM      6  C   UNL     1       1.754   4.588  20.696  0.00  0.00    +0.000 A 
ATOM      7  C   UNL     1       2.965   4.004  20.433  0.00  0.00    +0.000 A 
ATOM      8 CL   UNL     1       3.322   2.428  21.015  0.00  0.00    +0.000 Cl
ATOM      9  H   UNL     1       2.817   8.187  18.604  0.00  0.00    +0.000 HD
ENDROOT
BRANCH   4  10
ATOM     10  C   UNL     1       1.268   8.816  19.796  0.00  0.00    +0.000 A 
ATOM     11  C   UNL     1       1.061   8.919  21.171  0.00  0.00    +0.000 A 
ATOM     12  C   UNL     1       0.222   9.902  21.707  0.00  0.00    +0.000 A 
ATOM     13  C   UNL     1      -0.466  10.816  20.903  0.00  0.00    +0.000 A 
ATOM     14  C   UNL     1      -0.297  10.686  19.521  0.00  0.00    +0.000 A 
ATOM     15  C   UNL     1       0.555   9.709  18.987  0.00  0.00    +0.000 A 
ATOM     16  F   UNL     1       0.700   9.649  17.653  0.00  0.00    +0.000 F 
BRANCH  13  17
ATOM     17  N   UNL     1      -1.267  11.775  21.483  0.00  0.00    +0.000 N 
ATOM     18  C   UNL     1      -2.315  12.508  20.762  0.00  0.00    +0.000 C 
ATOM     19  C   UNL     1      -1.990  14.006  20.718  0.00  0.00    +0.000 C 
ATOM     20  O   UNL     1      -1.750  14.535  22.034  0.00  0.00    +0.000 OA
ATOM     21  C   UNL     1      -0.644  13.854  22.650  0.00  0.00    +0.000 C 
ATOM     22  C   UNL     1      -0.916  12.347  22.795  0.00  0.00    +0.000 C 
ENDBRANCH  13  17
ENDBRANCH   4  10
BRANCH   1  23
ATOM     23  N   UNL     1       5.131   4.220  19.348  0.00  0.00    +0.000 N 
ATOM     24  H   UNL     1       5.818   4.447  20.072  0.00  0.00    +0.000 HD
BRANCH  23  30
ATOM     25  C   UNL     1       6.891   5.242  17.931  0.00  0.00    +0.000 A 
ATOM     26  C   UNL     1       7.398   5.505  16.647  0.00  0.00    +0.000 A 
ATOM     27  C   UNL     1       6.796   4.964  15.512  0.00  0.00    +0.000 A 
ATOM     28  C   UNL     1       5.667   4.166  15.648  0.00  0.00    +0.000 A 
ATOM     29  C   UNL     1       5.150   3.902  16.918  0.00  0.00    +0.000 A 
ATOM     30  C   UNL     1       5.763   4.403  18.084  0.00  0.00    +0.000 A 
BRANCH  25  32
ATOM     31  N   UNL     1       8.304   7.037  18.811  0.00  0.00    +0.000 N 
ATOM     32  C   UNL     1       7.627   5.880  19.063  0.00  0.00    +0.000 C 
ATOM     33  O   UNL     1       7.602   5.409  20.195  0.00  0.00    +0.000 OA
ATOM     34  H   UNL     1       8.733   7.518  19.588  0.00  0.00    +0.000 HD
ATOM     35  H   UNL     1       8.277   7.476  17.899  0.00  0.00    +0.000 HD
ENDBRANCH  25  32
ENDBRANCH  23  30
ENDBRANCH   1  23
TORSDOF 5
ENDMDL
MODEL 3
REMARK VINA RESULT:      -8.8      0.876      1.223
REMARK  Name = 
REMARK  5 active torsions:
REMARK  status: ('A' for Active; 'I' for Inactive)
REMARK    1  A    between atoms: C_2  and  C_4
REMARK    2  A    between atoms: C_9  and  N_10
REMARK    3  A    between atoms: N_10  and  C_11
REMARK    4  A    between atoms: N_14  and  C_15
REMARK    5  A    between atoms: C_18  and  N_19
REMARK                            x       y       z     vdW  Elec       q    Type
REMARK                         _______ _______ _______ _____ _____    ______ ____
ROOT
ATOM      1  C   UNL     1       3.657   4.976  19.794  0.00  0.00    +0.000 A 
ATOM      2  N   UNL     1       3.399   6.232  19.358  0.00  0.00    +0.000 NA
ATOM      3  C   UNL     1       2.205   6.777  19.644  0.00  0.00    +0.000 A 
ATOM      4  N   UNL     1       2.000   8.095  19.245  0.00  0.00    +0.000 N 
ATOM      5  N   UNL     1       1.237   6.108  20.289  0.00  0.00    +0.000 NA
ATOM      6  C   UNL     1       1.494   4.846  20.674  0.00  0.00    +0.000 A 
ATOM      7  C   UNL     1       2.695   4.225  20.458  0.00  0.00    +0.000 A 
ATOM      8 CL   UNL     1       2.974   2.633  21.037  0.00  0.00    +0.000 Cl
ATOM      9  H   UNL     1       2.764   8.428  18.670  0.00  0.00    +0.000 HD
ENDROOT
BRANCH   4  10
ATOM     10  C   UNL     1       1.185   9.096  19.801  0.00  0.00    +0.000 A 
ATOM     11  C   UNL     1       0.391   9.947  19.032  0.00  0.00    +0.000 A 
ATOM     12  C   UNL     1      -0.394  10.941  19.627  0.00  0.00    +0.000 A 
ATOM     13  C   UNL     1      -0.413  11.150  21.009  0.00  0.00    +0.000 A 
ATOM     14  C   UNL     1       0.417  10.330  21.779  0.00  0.00    +0.000 A 
ATOM     15  C   UNL     1       1.193   9.326  21.183  0.00  0.00    +0.000 A 
ATOM     16  F   UNL     1       1.951   8.549  21.975  0.00  0.00    +0.000 F 
BRANCH  13  17
ATOM     17  N   UNL     1      -1.217  12.132  21.545  0.00  0.00    +0.000 N 
ATOM     18  C   UNL     1      -1.441  12.308  22.985  0.00  0.00    +0.000 C 
ATOM     19  C   UNL     1      -2.918  12.083  23.331  0.00  0.00    +0.000 C 
ATOM     20  O   UNL     1      -3.782  12.910  22.530  0.00  0.00    +0.000 OA
ATOM     21  C   UNL     1      -3.598  12.618  21.135  0.00  0.00    +0.000 C 
ATOM     22  C   UNL     1      -2.151  12.883  20.687  0.00  0.00    +0.000 C 
ENDBRANCH  13  17
ENDBRANCH   4  10
BRANCH   1  23
ATOM     23  N   UNL     1       4.912   4.380  19.470  0.00  0.00    +0.000 N 
ATOM     24  H   UNL     1       5.601   4.662  20.172  0.00  0.00    +0.000 HD
BRANCH  23  30
ATOM     25  C   UNL     1       6.742   5.178  17.998  0.00  0.00    +0.000 A 
ATOM     26  C   UNL     1       7.257   5.340  16.700  0.00  0.00    +0.000 A 
ATOM     27  C   UNL     1       6.596   4.807  15.594  0.00  0.00    +0.000 A 
ATOM     28  C   UNL     1       5.402   4.119  15.772  0.00  0.00    +0.000 A 
ATOM     29  C   UNL     1       4.877   3.957  17.056  0.00  0.00    +0.000 A 
ATOM     30  C   UNL     1       5.545   4.451  18.194  0.00  0.00    +0.000 A 
BRANCH  25  32
ATOM     31  N   UNL     1       8.240   6.933  18.813  0.00  0.00    +0.000 N 
ATOM     32  C   UNL     1       7.544   5.795  19.096  0.00  0.00    +0.000 C 
ATOM     33  O   UNL     1       7.555   5.325  20.229  0.00  0.00    +0.000 OA
ATOM     34  H   UNL     1       8.716   7.402  19.571  0.00  0.00    +0.000 HD
ATOM     35  H   UNL     1       8.186   7.373  17.903  0.00  0.00    +0.000 HD
ENDBRANCH  25  32
ENDBRANCH  23  30
ENDBRANCH   1  23
TORSDOF 5
ENDMDL
MODEL 4
REMARK VINA RESULT:      -8.4      2.574      4.123
REMARK  Name = 
REMARK  5 active torsions:
REMARK  status: ('A' for Active; 'I' for Inactive)
REMARK    1  A    between atoms: C_2  and  C_4
REMARK    2  A    between atoms: C_9  and  N_10
REMARK    3  A    between atoms: N_10  and  C_11
REMARK    4  A    between atoms: N_14  and  C_15
REMARK    5  A    between atoms: C_18  and  N_19
REMARK                            x       y       z     vdW  Elec       q    Type
REMARK                         _______ _______ _______ _____ _____    ______ ____
ROOT
ATOM      1  C   UNL     1       2.567   7.093  19.559  0.00  0.00    +0.000 A 
ATOM      2  N   UNL     1       1.876   7.835  20.457  0.00  0.00    +0.000 NA
ATOM      3  C   UNL     1       1.331   8.992  20.048  0.00  0.00    +0.000 A 
ATOM      4  N   UNL     1       0.566   9.694  20.977  0.00  0.00    +0.000 N 
ATOM      5  N   UNL     1       1.495   9.474  18.806  0.00  0.00    +0.000 NA
ATOM      6  C   UNL     1       2.222   8.747  17.941  0.00  0.00    +0.000 A 
ATOM      7  C   UNL     1       2.782   7.539  18.261  0.00  0.00    +0.000 A 
ATOM      8 CL   UNL     1       3.644   6.634  17.083  0.00  0.00    +0.000 Cl
ATOM      9  H   UNL     1       0.630   9.276  21.897  0.00  0.00    +0.000 HD
ENDROOT
BRANCH   4  10
ATOM     10  C   UNL     1      -0.522  10.563  20.786  0.00  0.00    +0.000 A 
ATOM     11  C   UNL     1      -1.118  10.777  19.544  0.00  0.00    +0.000 A 
ATOM     12  C   UNL     1      -2.191  11.663  19.396  0.00  0.00    +0.000 A 
ATOM     13  C   UNL     1      -2.709  12.393  20.470  0.00  0.00    +0.000 A 
ATOM     14  C   UNL     1      -2.084  12.216  21.708  0.00  0.00    +0.000 A 
ATOM     15  C   UNL     1      -1.018  11.318  21.856  0.00  0.00    +0.000 A 
ATOM     16  F   UNL     1      -0.474  11.168  23.076  0.00  0.00    +0.000 F 
BRANCH  13  17
ATOM     17  N   UNL     1      -3.778  13.241  20.274  0.00  0.00    +0.000 N 
ATOM     18  C   UNL     1      -3.908  14.552  20.919  0.00  0.00    +0.000 C 
ATOM     19  C   UNL     1      -5.133  14.579  21.840  0.00  0.00    +0.000 C 
ATOM     20  O   UNL     1      -6.329  14.183  21.144  0.00  0.00    +0.000 OA
ATOM     21  C   UNL     1      -6.185  12.850  20.628  0.00  0.00    +0.000 C 
ATOM     22  C   UNL     1      -5.013  12.749  19.637  0.00  0.00    +0.000 C 
ENDBRANCH  13  17
ENDBRANCH   4  10
BRANCH   1  23
ATOM     23  N   UNL     1       3.173   5.877  19.993  0.00  0.00    +0.000 N 
ATOM     24  H   UNL     1       4.147   5.865  19.677  0.00  0.00    +0.000 HD
BRANCH  23  30
ATOM     25  C   UNL     1       3.355   3.581  19.074  0.00  0.00    +0.000 A 
ATOM     26  C   UNL     1       2.736   2.358  18.761  0.00  0.00    +0.000 A 
ATOM     27  C   UNL     1       1.412   2.112  19.121  0.00  0.00    +0.000 A 
ATOM     28  C   UNL     1       0.686   3.094  19.784  0.00  0.00    +0.000 A 
ATOM     29  C   UNL     1       1.288   4.315  20.094  0.00  0.00    +0.000 A 
ATOM     30  C   UNL     1       2.636   4.574  19.777  0.00  0.00    +0.000 A 
BRANCH  25  32
ATOM     31  N   UNL     1       5.080   3.382  17.348  0.00  0.00    +0.000 N 
ATOM     32  C   UNL     1       4.776   3.720  18.634  0.00  0.00    +0.000 C 
ATOM     33  O   UNL     1       5.643   4.156  19.384  0.00  0.00    +0.000 OA
ATOM     34  H   UNL     1       6.020   3.552  17.020  0.00  0.00    +0.000 HD
ATOM     35  H   UNL     1       4.364   3.086  16.696  0.00  0.00    +0.000 HD
ENDBRANCH  25  32
ENDBRANCH  23  30
ENDBRANCH   1  23
TORSDOF 5
ENDMDL
MODEL 5
REMARK VINA RESULT:      -8.3      1.460      2.151
REMARK  Name = 
REMARK  5 active torsions:
REMARK  status: ('A' for Active; 'I' for Inactive)
REMARK    1  A    between atoms: C_2  and  C_4
REMARK    2  A    between atoms: C_9  and  N_10
REMARK    3  A    between atoms: N_10  and  C_11
REMARK    4  A    between atoms: N_14  and  C_15
REMARK    5  A    between atoms: C_18  and  N_19
REMARK                            x       y       z     vdW  Elec       q    Type
REMARK                         _______ _______ _______ _____ _____    ______ ____
ROOT
ATOM      1  C   UNL     1       3.600   5.209  19.809  0.00  0.00    +0.000 A 
ATOM      2  N   UNL     1       3.285   6.453  19.378  0.00  0.00    +0.000 NA
ATOM      3  C   UNL     1       2.098   6.973  19.730  0.00  0.00    +0.000 A 
ATOM      4  N   UNL     1       1.837   8.282  19.331  0.00  0.00    +0.000 N 
ATOM      5  N   UNL     1       1.187   6.289  20.439  0.00  0.00    +0.000 NA
ATOM      6  C   UNL     1       1.497   5.038  20.820  0.00  0.00    +0.000 A 
ATOM      7  C   UNL     1       2.698   4.443  20.537  0.00  0.00    +0.000 A 
ATOM      8 CL   UNL     1       3.049   2.864  21.113  0.00  0.00    +0.000 Cl
ATOM      9  H   UNL     1       2.557   8.626  18.708  0.00  0.00    +0.000 HD
ENDROOT
BRANCH   4  10
ATOM     10  C   UNL     1       1.034   9.270  19.926  0.00  0.00    +0.000 A 
ATOM     11  C   UNL     1       1.039   9.533  21.296  0.00  0.00    +0.000 A 
ATOM     12  C   UNL     1       0.212  10.517  21.849  0.00  0.00    +0.000 A 
ATOM     13  C   UNL     1      -0.672  11.272  21.072  0.00  0.00    +0.000 A 
ATOM     14  C   UNL     1      -0.714  10.978  19.706  0.00  0.00    +0.000 A 
ATOM     15  C   UNL     1       0.126  10.002  19.152  0.00  0.00    +0.000 A 
ATOM     16  F   UNL     1       0.063   9.782  17.828  0.00  0.00    +0.000 F 
BRANCH  13  17
ATOM     17  N   UNL     1      -1.453  12.240  21.664  0.00  0.00    +0.000 N 
ATOM     18  C   UNL     1      -1.627  12.374  23.115  0.00  0.00    +0.000 C 
ATOM     19  C   UNL     1      -3.092  12.142  23.505  0.00  0.00    +0.000 C 
ATOM     20  O   UNL     1      -3.980  12.995  22.760  0.00  0.00    +0.000 OA
ATOM     21  C   UNL     1      -3.845  12.744  21.351  0.00  0.00    +0.000 C 
ATOM     22  C   UNL     1      -2.413  13.018  20.861  0.00  0.00    +0.000 C 
ENDBRANCH  13  17
ENDBRANCH   4  10
BRANCH   1  23
ATOM     23  N   UNL     1       4.846   4.638  19.415  0.00  0.00    +0.000 N 
ATOM     24  H   UNL     1       5.583   5.007  20.023  0.00  0.00    +0.000 HD
BRANCH  23  30
ATOM     25  C   UNL     1       4.838   3.757  17.097  0.00  0.00    +0.000 A 
ATOM     26  C   UNL     1       5.459   3.679  15.838  0.00  0.00    +0.000 A 
ATOM     27  C   UNL     1       6.591   4.438  15.548  0.00  0.00    +0.000 A 
ATOM     28  C   UNL     1       7.127   5.273  16.521  0.00  0.00    +0.000 A 
ATOM     29  C   UNL     1       6.524   5.354  17.777  0.00  0.00    +0.000 A 
ATOM     30  C   UNL     1       5.355   4.628  18.083  0.00  0.00    +0.000 A 
BRANCH  25  32
ATOM     31  N   UNL     1       3.803   1.685  17.888  0.00  0.00    +0.000 N 
ATOM     32  C   UNL     1       3.633   2.895  17.281  0.00  0.00    +0.000 C 
ATOM     33  O   UNL     1       2.516   3.265  16.935  0.00  0.00    +0.000 OA
ATOM     34  H   UNL     1       2.981   1.134  18.091  0.00  0.00    +0.000 HD
ATOM     35  H   UNL     1       4.706   1.394  18.242  0.00  0.00    +0.000 HD
ENDBRANCH  25  32
ENDBRANCH  23  30
ENDBRANCH   1  23
TORSDOF 5
ENDMDL
MODEL 6
REMARK VINA RESULT:      -8.3      1.215      1.744
REMARK  Name = 
REMARK  5 active torsions:
REMARK  status: ('A' for Active; 'I' for Inactive)
REMARK    1  A    between atoms: C_2  and  C_4
REMARK    2  A    between atoms: C_9  and  N_10
REMARK    3  A    between atoms: N_10  and  C_11
REMARK    4  A    between atoms: N_14  and  C_15
REMARK    5  A    between atoms: C_18  and  N_19
REMARK                            x       y       z     vdW  Elec       q    Type
REMARK                         _______ _______ _______ _____ _____    ______ ____
ROOT
ATOM      1  C   UNL     1       3.812   5.180  19.705  0.00  0.00    +0.000 A 
ATOM      2  N   UNL     1       3.488   6.445  19.344  0.00  0.00    +0.000 NA
ATOM      3  C   UNL     1       2.250   6.891  19.611  0.00  0.00    +0.000 A 
ATOM      4  N   UNL     1       1.973   8.218  19.293  0.00  0.00    +0.000 N 
ATOM      5  N   UNL     1       1.303   6.117  20.164  0.00  0.00    +0.000 NA
ATOM      6  C   UNL     1       1.627   4.851  20.474  0.00  0.00    +0.000 A 
ATOM      7  C   UNL     1       2.875   4.324  20.271  0.00  0.00    +0.000 A 
ATOM      8 CL   UNL     1       3.236   2.716  20.753  0.00  0.00    +0.000 Cl
ATOM      9  H   UNL     1       2.736   8.639  18.778  0.00  0.00    +0.000 HD
ENDROOT
BRANCH   4  10
ATOM     10  C   UNL     1       1.072   9.124  19.879  0.00  0.00    +0.000 A 
ATOM     11  C   UNL     1       0.172   9.890  19.138  0.00  0.00    +0.000 A 
ATOM     12  C   UNL     1      -0.698  10.791  19.760  0.00  0.00    +0.000 A 
ATOM     13  C   UNL     1      -0.704  10.988  21.145  0.00  0.00    +0.000 A 
ATOM     14  C   UNL     1       0.229  10.256  21.886  0.00  0.00    +0.000 A 
ATOM     15  C   UNL     1       1.091   9.344  21.262  0.00  0.00    +0.000 A 
ATOM     16  F   UNL     1       1.947   8.647  22.028  0.00  0.00    +0.000 F 
BRANCH  13  17
ATOM     17  N   UNL     1      -1.594  11.876  21.710  0.00  0.00    +0.000 N 
ATOM     18  C   UNL     1      -2.554  12.672  20.936  0.00  0.00    +0.000 C 
ATOM     19  C   UNL     1      -2.257  14.169  21.089  0.00  0.00    +0.000 C 
ATOM     20  O   UNL     1      -2.200  14.560  22.473  0.00  0.00    +0.000 OA
ATOM     21  C   UNL     1      -1.170  13.826  23.154  0.00  0.00    +0.000 C 
ATOM     22  C   UNL     1      -1.427  12.311  23.108  0.00  0.00    +0.000 C 
ENDBRANCH  13  17
ENDBRANCH   4  10
BRANCH   1  23
ATOM     23  N   UNL     1       5.116   4.690  19.397  0.00  0.00    +0.000 N 
ATOM     24  H   UNL     1       5.796   5.174  19.990  0.00  0.00    +0.000 HD
BRANCH  23  30
ATOM     25  C   UNL     1       6.850   5.299  17.733  0.00  0.00    +0.000 A 
ATOM     26  C   UNL     1       7.285   5.304  16.396  0.00  0.00    +0.000 A 
ATOM     27  C   UNL     1       6.560   4.648  15.403  0.00  0.00    +0.000 A 
ATOM     28  C   UNL     1       5.380   3.991  15.734  0.00  0.00    +0.000 A 
ATOM     29  C   UNL     1       4.934   3.985  17.057  0.00  0.00    +0.000 A 
ATOM     30  C   UNL     1       5.669   4.607  18.086  0.00  0.00    +0.000 A 
BRANCH  25  32
ATOM     31  N   UNL     1       8.161   5.364  19.799  0.00  0.00    +0.000 N 
ATOM     32  C   UNL     1       7.716   6.038  18.700  0.00  0.00    +0.000 C 
ATOM     33  O   UNL     1       8.053   7.201  18.506  0.00  0.00    +0.000 OA
ATOM     34  H   UNL     1       8.814   5.831  20.413  0.00  0.00    +0.000 HD
ATOM     35  H   UNL     1       7.950   4.384  19.939  0.00  0.00    +0.000 HD
ENDBRANCH  25  32
ENDBRANCH  23  30
ENDBRANCH   1  23
TORSDOF 5
ENDMDL
MODEL 7
REMARK VINA RESULT:      -8.3      1.717      2.205
REMARK  Name = 
REMARK  5 active torsions:
REMARK  status: ('A' for Active; 'I' for Inactive)
REMARK    1  A    between atoms: C_2  and  C_4
REMARK    2  A    between atoms: C_9  and  N_10
REMARK    3  A    between atoms: N_10  and  C_11
REMARK    4  A    between atoms: N_14  and  C_15
REMARK    5  A    between atoms: C_18  and  N_19
REMARK                            x       y       z     vdW  Elec       q    Type
REMARK                         _______ _______ _______ _____ _____    ______ ____
ROOT
ATOM      1  C   UNL     1       3.840   4.360  17.817  0.00  0.00    +0.000 A 
ATOM      2  N   UNL     1       3.734   5.708  17.730  0.00  0.00    +0.000 NA
ATOM      3  C   UNL     1       2.539   6.273  17.965  0.00  0.00    +0.000 A 
ATOM      4  N   UNL     1       2.481   7.664  17.940  0.00  0.00    +0.000 N 
ATOM      5  N   UNL     1       1.434   5.556  18.222  0.00  0.00    +0.000 NA
ATOM      6  C   UNL     1       1.548   4.217  18.260  0.00  0.00    +0.000 A 
ATOM      7  C   UNL     1       2.734   3.559  18.069  0.00  0.00    +0.000 A 
ATOM      8 CL   UNL     1       2.816   1.849  18.196  0.00  0.00    +0.000 Cl
ATOM      9  H   UNL     1       3.354   8.062  17.617  0.00  0.00    +0.000 HD
ENDROOT
BRANCH   4  10
ATOM     10  C   UNL     1       1.633   8.551  18.625  0.00  0.00    +0.000 A 
ATOM     11  C   UNL     1       0.903   9.553  17.986  0.00  0.00    +0.000 A 
ATOM     12  C   UNL     1       0.080  10.425  18.709  0.00  0.00    +0.000 A 
ATOM     13  C   UNL     1      -0.041  10.355  20.100  0.00  0.00    +0.000 A 
ATOM     14  C   UNL     1       0.726   9.382  20.748  0.00  0.00    +0.000 A 
ATOM     15  C   UNL     1       1.538   8.501  20.021  0.00  0.00    +0.000 A 
ATOM     16  F   UNL     1       2.231   7.567  20.694  0.00  0.00    +0.000 F 
BRANCH  13  17
ATOM     17  N   UNL     1      -0.877  11.227  20.763  0.00  0.00    +0.000 N 
ATOM     18  C   UNL     1      -1.932  12.006  20.103  0.00  0.00    +0.000 C 
ATOM     19  C   UNL     1      -1.646  13.508  20.224  0.00  0.00    +0.000 C 
ATOM     20  O   UNL     1      -1.442  13.900  21.593  0.00  0.00    +0.000 OA
ATOM     21  C   UNL     1      -0.328  13.185  22.154  0.00  0.00    +0.000 C 
ATOM     22  C   UNL     1      -0.563  11.666  22.134  0.00  0.00    +0.000 C 
ENDBRANCH  13  17
ENDBRANCH   4  10
BRANCH   1  23
ATOM     23  N   UNL     1       5.100   3.750  17.539  0.00  0.00    +0.000 N 
ATOM     24  H   UNL     1       5.693   3.830  18.369  0.00  0.00    +0.000 HD
BRANCH  23  30
ATOM     25  C   UNL     1       6.995   4.940  16.470  0.00  0.00    +0.000 A 
ATOM     26  C   UNL     1       7.681   5.298  15.297  0.00  0.00    +0.000 A 
ATOM     27  C   UNL     1       7.302   4.785  14.057  0.00  0.00    +0.000 A 
ATOM     28  C   UNL     1       6.218   3.919  13.975  0.00  0.00    +0.000 A 
ATOM     29  C   UNL     1       5.523   3.561  15.132  0.00  0.00    +0.000 A 
ATOM     30  C   UNL     1       5.912   4.034  16.402  0.00  0.00    +0.000 A 
BRANCH  25  32
ATOM     31  N   UNL     1       7.623   6.916  17.772  0.00  0.00    +0.000 N 
ATOM     32  C   UNL     1       7.500   5.558  17.732  0.00  0.00    +0.000 C 
ATOM     33  O   UNL     1       7.766   4.881  18.719  0.00  0.00    +0.000 OA
ATOM     34  H   UNL     1       7.883   7.346  18.647  0.00  0.00    +0.000 HD
ATOM     35  H   UNL     1       7.342   7.495  16.989  0.00  0.00    +0.000 HD
ENDBRANCH  25  32
ENDBRANCH  23  30
ENDBRANCH   1  23
TORSDOF 5
ENDMDL
MODEL 8
REMARK VINA RESULT:      -8.3      3.365      4.290
REMARK  Name = 
REMARK  5 active torsions:
REMARK  status: ('A' for Active; 'I' for Inactive)
REMARK    1  A    between atoms: C_2  and  C_4
REMARK    2  A    between atoms: C_9  and  N_10
REMARK    3  A    between atoms: N_10  and  C_11
REMARK    4  A    between atoms: N_14  and  C_15
REMARK    5  A    between atoms: C_18  and  N_19
REMARK                            x       y       z     vdW  Elec       q    Type
REMARK                         _______ _______ _______ _____ _____    ______ ____
ROOT
ATOM      1  C   UNL     1       2.558   7.027  18.500  0.00  0.00    +0.000 A 
ATOM      2  N   UNL     1       2.281   8.174  17.834  0.00  0.00    +0.000 NA
ATOM      3  C   UNL     1       1.686   9.175  18.502  0.00  0.00    +0.000 A 
ATOM      4  N   UNL     1       1.482  10.365  17.808  0.00  0.00    +0.000 N 
ATOM      5  N   UNL     1       1.300   9.066  19.783  0.00  0.00    +0.000 NA
ATOM      6  C   UNL     1       1.543   7.905  20.415  0.00  0.00    +0.000 A 
ATOM      7  C   UNL     1       2.176   6.845  19.823  0.00  0.00    +0.000 A 
ATOM      8 CL   UNL     1       2.510   5.416  20.713  0.00  0.00    +0.000 Cl
ATOM      9  H   UNL     1       1.711  10.262  16.827  0.00  0.00    +0.000 HD
ENDROOT
BRANCH   4  10
ATOM     10  C   UNL     1       1.417  11.690  18.275  0.00  0.00    +0.000 A 
ATOM     11  C   UNL     1       2.505  12.561  18.246  0.00  0.00    +0.000 A 
ATOM     12  C   UNL     1       2.400  13.868  18.735  0.00  0.00    +0.000 A 
ATOM     13  C   UNL     1       1.218  14.365  19.292  0.00  0.00    +0.000 A 
ATOM     14  C   UNL     1       0.139  13.478  19.365  0.00  0.00    +0.000 A 
ATOM     15  C   UNL     1       0.242  12.174  18.863  0.00  0.00    +0.000 A 
ATOM     16  F   UNL     1      -0.836  11.375  18.934  0.00  0.00    +0.000 F 
BRANCH  13  17
ATOM     17  N   UNL     1       1.163  15.666  19.744  0.00  0.00    +0.000 N 
ATOM     18  C   UNL     1       0.397  16.728  19.082  0.00  0.00    +0.000 C 
ATOM     19  C   UNL     1       1.335  17.830  18.573  0.00  0.00    +0.000 C 
ATOM     20  O   UNL     1       2.184  18.330  19.622  0.00  0.00    +0.000 OA
ATOM     21  C   UNL     1       2.989  17.267  20.159  0.00  0.00    +0.000 C 
ATOM     22  C   UNL     1       2.123  16.145  20.754  0.00  0.00    +0.000 C 
ENDBRANCH  13  17
ENDBRANCH   4  10
BRANCH   1  23
ATOM     23  N   UNL     1       3.163   5.948  17.789  0.00  0.00    +0.000 N 
ATOM     24  H   UNL     1       2.771   5.068  18.134  0.00  0.00    +0.000 HD
BRANCH  23  30
ATOM     25  C   UNL     1       5.215   4.585  18.077  0.00  0.00    +0.000 A 
ATOM     26  C   UNL     1       6.617   4.498  18.029  0.00  0.00    +0.000 A 
ATOM     27  C   UNL     1       7.387   5.562  17.562  0.00  0.00    +0.000 A 
ATOM     28  C   UNL     1       6.763   6.733  17.152  0.00  0.00    +0.000 A 
ATOM     29  C   UNL     1       5.371   6.835  17.201  0.00  0.00    +0.000 A 
ATOM     30  C   UNL     1       4.568   5.760  17.631  0.00  0.00    +0.000 A 
BRANCH  25  32
ATOM     31  N   UNL     1       5.068   2.714  19.648  0.00  0.00    +0.000 N 
ATOM     32  C   UNL     1       4.507   3.377  18.597  0.00  0.00    +0.000 C 
ATOM     33  O   UNL     1       3.437   3.005  18.126  0.00  0.00    +0.000 OA
ATOM     34  H   UNL     1       4.553   1.947  20.058  0.00  0.00    +0.000 HD
ATOM     35  H   UNL     1       5.914   3.048  20.093  0.00  0.00    +0.000 HD
ENDBRANCH  25  32
ENDBRANCH  23  30
ENDBRANCH   1  23
TORSDOF 5
ENDMDL
MODEL 9
REMARK VINA RESULT:      -8.2      2.805      4.514
REMARK  Name = 
REMARK  5 active torsions:
REMARK  status: ('A' for Active; 'I' for Inactive)
REMARK    1  A    between atoms: C_2  and  C_4
REMARK    2  A    between atoms: C_9  and  N_10
REMARK    3  A    between atoms: N_10  and  C_11
REMARK    4  A    between atoms: N_14  and  C_15
REMARK    5  A    between atoms: C_18  and  N_19
REMARK                            x       y       z     vdW  Elec       q    Type
REMARK                         _______ _______ _______ _____ _____    ______ ____
ROOT
ATOM      1  C   UNL     1       2.548   7.394  19.375  0.00  0.00    +0.000 A 
ATOM      2  N   UNL     1       1.664   8.123  20.098  0.00  0.00    +0.000 NA
ATOM      3  C   UNL     1       1.012   9.127  19.490  0.00  0.00    +0.000 A 
ATOM      4  N   UNL     1       0.058   9.808  20.241  0.00  0.00    +0.000 N 
ATOM      5  N   UNL     1       1.244   9.477  18.215  0.00  0.00    +0.000 NA
ATOM      6  C   UNL     1       2.157   8.772  17.526  0.00  0.00    +0.000 A 
ATOM      7  C   UNL     1       2.842   7.711  18.055  0.00  0.00    +0.000 A 
ATOM      8 CL   UNL     1       3.948   6.815  17.093  0.00  0.00    +0.000 Cl
ATOM      9  H   UNL     1       0.077   9.517  21.210  0.00  0.00    +0.000 HD
ENDROOT
BRANCH   4  10
ATOM     10  C   UNL     1      -1.113  10.472  19.836  0.00  0.00    +0.000 A 
ATOM     11  C   UNL     1      -1.833  10.119  18.695  0.00  0.00    +0.000 A 
ATOM     12  C   UNL     1      -2.986  10.817  18.320  0.00  0.00    +0.000 A 
ATOM     13  C   UNL     1      -3.468  11.910  19.049  0.00  0.00    +0.000 A 
ATOM     14  C   UNL     1      -2.722  12.295  20.166  0.00  0.00    +0.000 A 
ATOM     15  C   UNL     1      -1.574  11.586  20.548  0.00  0.00    +0.000 A 
ATOM     16  F   UNL     1      -0.913  11.985  21.648  0.00  0.00    +0.000 F 
BRANCH  13  17
ATOM     17  N   UNL     1      -4.618  12.552  18.645  0.00  0.00    +0.000 N 
ATOM     18  C   UNL     1      -5.365  13.493  19.488  0.00  0.00    +0.000 C 
ATOM     19  C   UNL     1      -6.771  12.954  19.780  0.00  0.00    +0.000 C 
ATOM     20  O   UNL     1      -7.472  12.617  18.569  0.00  0.00    +0.000 OA
ATOM     21  C   UNL     1      -6.748  11.612  17.839  0.00  0.00    +0.000 C 
ATOM     22  C   UNL     1      -5.344  12.100  17.445  0.00  0.00    +0.000 C 
ENDBRANCH  13  17
ENDBRANCH   4  10
BRANCH   1  23
ATOM     23  N   UNL     1       3.266   6.345  20.022  0.00  0.00    +0.000 N 
ATOM     24  H   UNL     1       4.235   6.357  19.689  0.00  0.00    +0.000 HD
BRANCH  23  30
ATOM     25  C   UNL     1       3.652   3.937  19.570  0.00  0.00    +0.000 A 
ATOM     26  C   UNL     1       3.144   2.627  19.518  0.00  0.00    +0.000 A 
ATOM     27  C   UNL     1       1.849   2.342  19.948  0.00  0.00    +0.000 A 
ATOM     28  C   UNL     1       1.040   3.368  20.419  0.00  0.00    +0.000 A 
ATOM     29  C   UNL     1       1.530   4.675  20.470  0.00  0.00    +0.000 A 
ATOM     30  C   UNL     1       2.848   4.983  20.079  0.00  0.00    +0.000 A 
BRANCH  25  32
ATOM     31  N   UNL     1       5.368   3.595  17.858  0.00  0.00    +0.000 N 
ATOM     32  C   UNL     1       5.052   4.110  19.081  0.00  0.00    +0.000 C 
ATOM     33  O   UNL     1       5.891   4.724  19.731  0.00  0.00    +0.000 OA
ATOM     34  H   UNL     1       6.287   3.781  17.485  0.00  0.00    +0.000 HD
ATOM     35  H   UNL     1       4.669   3.147  17.278  0.00  0.00    +0.000 HD
ENDBRANCH  25  32
ENDBRANCH  23  30
ENDBRANCH   1  23
TORSDOF 5
ENDMDL
