MODEL 1
REMARK VINA RESULT:      -7.6      0.000      0.000
REMARK  Name = 
REMARK  3 active torsions:
REMARK  status: ('A' for Active; 'I' for Inactive)
REMARK    1  A    between atoms: C_2  and  C_4
REMARK    2  A    between atoms: C_8  and  C_9
REMARK    3  A    between atoms: C_14  and  N_15
REMARK                            x       y       z     vdW  Elec       q    Type
REMARK                         _______ _______ _______ _____ _____    ______ ____
ROOT
ATOM      1  C   UNL     1       3.970   6.279  17.524  0.00  0.00    +0.000 A 
ATOM      2  N   UNL     1       3.947   7.613  17.211  0.00  0.00    +0.000 NA
ATOM      3  C   UNL     1       2.999   8.391  17.762  0.00  0.00    +0.000 A 
ATOM      4  C   UNL     1       2.045   7.913  18.629  0.00  0.00    +0.000 A 
ATOM      5  C   UNL     1       2.063   6.553  18.932  0.00  0.00    +0.000 A 
ATOM      6  C   UNL     1       3.023   5.672  18.391  0.00  0.00    +0.000 A 
ENDROOT
BRANCH   1  11
ATOM      7  C   UNL     1       6.166   4.411  15.038  0.00  0.00    +0.000 A 
ATOM      8  C   UNL     1       7.367   4.491  15.724  0.00  0.00    +0.000 A 
ATOM      9  N   UNL     1       7.497   5.056  16.943  0.00  0.00    +0.000 NA
ATOM     10  C   UNL     1       6.375   5.599  17.485  0.00  0.00    +0.000 A 
ATOM     11  C   UNL     1       5.114   5.601  16.886  0.00  0.00    +0.000 A 
ATOM     12  C   UNL     1       5.023   4.923  15.665  0.00  0.00    +0.000 A 
BRANCH   7  14
ATOM     13  F   UNL     1       4.859   3.969  13.105  0.00  0.00    +0.000 F 
ATOM     14  C   UNL     1       6.093   3.819  13.667  0.00  0.00    +0.000 C 
ATOM     15  F   UNL     1       6.964   4.391  12.788  0.00  0.00    +0.000 F 
ENDBRANCH   7  14
ENDBRANCH   1  11
BRANCH   6  16
ATOM     16  N   UNL     1       2.914   4.321  18.713  0.00  0.00    +0.000 N 
ATOM     17  C   UNL     1       3.512   3.713  19.908  0.00  0.00    +0.000 C 
ATOM     18  C   UNL     1       4.222   2.412  19.542  0.00  0.00    +0.000 C 
ATOM     19  C   UNL     1       3.330   1.472  18.733  0.00  0.00    +0.000 C 
ATOM     20  C   UNL     1       2.700   2.191  17.538  0.00  0.00    +0.000 C 
ATOM     21  C   UNL     1       1.976   3.460  17.983  0.00  0.00    +0.000 C 
ENDBRANCH   6  16
TORSDOF 3
ENDMDL
MODEL 2
REMARK VINA RESULT:      -7.4      3.317      5.485
REMARK  Name = 
REMARK  3 active torsions:
REMARK  status: ('A' for Active; 'I' for Inactive)
REMARK    1  A    between atoms: C_2  and  C_4
REMARK    2  A    between atoms: C_8  and  C_9
REMARK    3  A    between atoms: C_14  and  N_15
REMARK                            x       y       z     vdW  Elec       q    Type
REMARK                         _______ _______ _______ _____ _____    ______ ____
ROOT
ATOM      1  C   UNL     1       3.725   5.886  17.657  0.00  0.00    +0.000 A 
ATOM      2  N   UNL     1       4.563   6.567  16.813  0.00  0.00    +0.000 NA
ATOM      3  C   UNL     1       5.314   5.868  15.945  0.00  0.00    +0.000 A 
ATOM      4  C   UNL     1       5.286   4.497  15.860  0.00  0.00    +0.000 A 
ATOM      5  C   UNL     1       4.444   3.807  16.731  0.00  0.00    +0.000 A 
ATOM      6  C   UNL     1       3.627   4.470  17.673  0.00  0.00    +0.000 A 
ENDROOT
BRANCH   1  11
ATOM      7  C   UNL     1       1.539   8.791  18.788  0.00  0.00    +0.000 A 
ATOM      8  C   UNL     1       1.343   8.401  20.102  0.00  0.00    +0.000 A 
ATOM      9  N   UNL     1       1.906   7.304  20.650  0.00  0.00    +0.000 NA
ATOM     10  C   UNL     1       2.676   6.541  19.829  0.00  0.00    +0.000 A 
ATOM     11  C   UNL     1       2.932   6.814  18.484  0.00  0.00    +0.000 A 
ATOM     12  C   UNL     1       2.394   8.011  17.997  0.00  0.00    +0.000 A 
BRANCH   7  14
ATOM     13  F   UNL     1      -0.280   9.654  17.527  0.00  0.00    +0.000 F 
ATOM     14  C   UNL     1       0.846   9.989  18.221  0.00  0.00    +0.000 C 
ATOM     15  F   UNL     1       0.434  10.871  19.175  0.00  0.00    +0.000 F 
ENDBRANCH   7  14
ENDBRANCH   1  11
BRANCH   6  16
ATOM     16  N   UNL     1       2.867   3.682  18.535  0.00  0.00    +0.000 N 
ATOM     17  C   UNL     1       1.429   3.442  18.372  0.00  0.00    +0.000 C 
ATOM     18  C   UNL     1       0.707   3.616  19.706  0.00  0.00    +0.000 C 
ATOM     19  C   UNL     1       1.360   2.809  20.828  0.00  0.00    +0.000 C 
ATOM     20  C   UNL     1       2.866   3.070  20.899  0.00  0.00    +0.000 C 
ATOM     21  C   UNL     1       3.526   2.841  19.541  0.00  0.00    +0.000 C 
ENDBRANCH   6  16
TORSDOF 3
ENDMDL
MODEL 3
REMARK VINA RESULT:      -7.4      0.663      1.351
REMARK  Name = 
REMARK  3 active torsions:
REMARK  status: ('A' for Active; 'I' for Inactive)
REMARK    1  A    between atoms: C_2  and  C_4
REMARK    2  A    between atoms: C_8  and  C_9
REMARK    3  A    between atoms: C_14  and  N_15
REMARK                            x       y       z     vdW  Elec       q    Type
REMARK                         _______ _______ _______ _____ _____    ______ ____
ROOT
ATOM      1  C   UNL     1       3.953   6.297  17.511  0.00  0.00    +0.000 A 
ATOM      2  N   UNL     1       4.001   7.626  17.178  0.00  0.00    +0.000 NA
ATOM      3  C   UNL     1       3.074   8.454  17.688  0.00  0.00    +0.000 A 
ATOM      4  C   UNL     1       2.072   8.034  18.531  0.00  0.00    +0.000 A 
ATOM      5  C   UNL     1       2.018   6.680  18.853  0.00  0.00    +0.000 A 
ATOM      6  C   UNL     1       2.953   5.747  18.356  0.00  0.00    +0.000 A 
ENDROOT
BRANCH   1  11
ATOM      7  C   UNL     1       6.167   4.360  15.094  0.00  0.00    +0.000 A 
ATOM      8  C   UNL     1       7.321   4.323  15.858  0.00  0.00    +0.000 A 
ATOM      9  N   UNL     1       7.410   4.829  17.105  0.00  0.00    +0.000 NA
ATOM     10  C   UNL     1       6.298   5.436  17.597  0.00  0.00    +0.000 A 
ATOM     11  C   UNL     1       5.083   5.558  16.919  0.00  0.00    +0.000 A 
ATOM     12  C   UNL     1       5.024   4.935  15.667  0.00  0.00    +0.000 A 
BRANCH   7  14
ATOM     13  F   UNL     1       4.909   3.941  13.122  0.00  0.00    +0.000 F 
ATOM     14  C   UNL     1       6.142   3.828  13.697  0.00  0.00    +0.000 C 
ATOM     15  F   UNL     1       6.994   4.481  12.858  0.00  0.00    +0.000 F 
ENDBRANCH   7  14
ENDBRANCH   1  11
BRANCH   6  16
ATOM     16  N   UNL     1       2.772   4.408  18.694  0.00  0.00    +0.000 N 
ATOM     17  C   UNL     1       2.072   3.436  17.847  0.00  0.00    +0.000 C 
ATOM     18  C   UNL     1       1.093   2.613  18.681  0.00  0.00    +0.000 C 
ATOM     19  C   UNL     1       1.752   2.012  19.921  0.00  0.00    +0.000 C 
ATOM     20  C   UNL     1       2.508   3.074  20.722  0.00  0.00    +0.000 C 
ATOM     21  C   UNL     1       3.494   3.830  19.834  0.00  0.00    +0.000 C 
ENDBRANCH   6  16
TORSDOF 3
ENDMDL
MODEL 4
REMARK VINA RESULT:      -7.3      1.486      3.781
REMARK  Name = 
REMARK  3 active torsions:
REMARK  status: ('A' for Active; 'I' for Inactive)
REMARK    1  A    between atoms: C_2  and  C_4
REMARK    2  A    between atoms: C_8  and  C_9
REMARK    3  A    between atoms: C_14  and  N_15
REMARK                            x       y       z     vdW  Elec       q    Type
REMARK                         _______ _______ _______ _____ _____    ______ ____
ROOT
ATOM      1  C   UNL     1       3.292   3.608  18.312  0.00  0.00    +0.000 A 
ATOM      2  N   UNL     1       3.061   2.260  18.221  0.00  0.00    +0.000 NA
ATOM      3  C   UNL     1       1.869   1.781  18.613  0.00  0.00    +0.000 A 
ATOM      4  C   UNL     1       0.862   2.577  19.102  0.00  0.00    +0.000 A 
ATOM      5  C   UNL     1       1.107   3.946  19.208  0.00  0.00    +0.000 A 
ATOM      6  C   UNL     1       2.335   4.524  18.821  0.00  0.00    +0.000 A 
ENDROOT
BRANCH   1  11
ATOM      7  C   UNL     1       6.149   4.472  15.948  0.00  0.00    +0.000 A 
ATOM      8  C   UNL     1       7.116   4.769  16.894  0.00  0.00    +0.000 A 
ATOM      9  N   UNL     1       6.920   4.658  18.225  0.00  0.00    +0.000 NA
ATOM     10  C   UNL     1       5.683   4.265  18.628  0.00  0.00    +0.000 A 
ATOM     11  C   UNL     1       4.621   3.959  17.775  0.00  0.00    +0.000 A 
ATOM     12  C   UNL     1       4.910   4.005  16.407  0.00  0.00    +0.000 A 
BRANCH   7  14
ATOM     13  F   UNL     1       7.665   5.133  14.243  0.00  0.00    +0.000 F 
ATOM     14  C   UNL     1       6.407   4.663  14.488  0.00  0.00    +0.000 C 
ATOM     15  F   UNL     1       6.305   3.510  13.769  0.00  0.00    +0.000 F 
ENDBRANCH   7  14
ENDBRANCH   1  11
BRANCH   6  16
ATOM     16  N   UNL     1       2.495   5.893  19.023  0.00  0.00    +0.000 N 
ATOM     17  C   UNL     1       2.468   6.536  20.341  0.00  0.00    +0.000 C 
ATOM     18  C   UNL     1       1.590   7.784  20.305  0.00  0.00    +0.000 C 
ATOM     19  C   UNL     1       1.959   8.719  19.154  0.00  0.00    +0.000 C 
ATOM     20  C   UNL     1       2.021   7.967  17.823  0.00  0.00    +0.000 C 
ATOM     21  C   UNL     1       2.945   6.754  17.922  0.00  0.00    +0.000 C 
ENDBRANCH   6  16
TORSDOF 3
ENDMDL
MODEL 5
REMARK VINA RESULT:      -7.2      2.648      4.617
REMARK  Name = 
REMARK  3 active torsions:
REMARK  status: ('A' for Active; 'I' for Inactive)
REMARK    1  A    between atoms: C_2  and  C_4
REMARK    2  A    between atoms: C_8  and  C_9
REMARK    3  A    between atoms: C_14  and  N_15
REMARK                            x       y       z     vdW  Elec       q    Type
REMARK                         _______ _______ _______ _____ _____    ______ ____
ROOT
ATOM      1  C   UNL     1       3.485   3.762  18.111  0.00  0.00    +0.000 A 
ATOM      2  N   UNL     1       3.314   2.413  17.944  0.00  0.00    +0.000 NA
ATOM      3  C   UNL     1       2.119   1.871  18.236  0.00  0.00    +0.000 A 
ATOM      4  C   UNL     1       1.053   2.605  18.697  0.00  0.00    +0.000 A 
ATOM      5  C   UNL     1       1.237   3.975  18.881  0.00  0.00    +0.000 A 
ATOM      6  C   UNL     1       2.462   4.616  18.601  0.00  0.00    +0.000 A 
ENDROOT
BRANCH   1  11
ATOM      7  C   UNL     1       7.049   5.100  18.096  0.00  0.00    +0.000 A 
ATOM      8  C   UNL     1       7.373   4.807  16.782  0.00  0.00    +0.000 A 
ATOM      9  N   UNL     1       6.508   4.262  15.902  0.00  0.00    +0.000 NA
ATOM     10  C   UNL     1       5.268   3.962  16.371  0.00  0.00    +0.000 A 
ATOM     11  C   UNL     1       4.829   4.188  17.677  0.00  0.00    +0.000 A 
ATOM     12  C   UNL     1       5.739   4.837  18.519  0.00  0.00    +0.000 A 
BRANCH   7  14
ATOM     13  F   UNL     1       8.342   6.969  18.787  0.00  0.00    +0.000 F 
ATOM     14  C   UNL     1       8.065   5.657  19.041  0.00  0.00    +0.000 C 
ATOM     15  F   UNL     1       7.667   5.617  20.344  0.00  0.00    +0.000 F 
ENDBRANCH   7  14
ENDBRANCH   1  11
BRANCH   6  16
ATOM     16  N   UNL     1       2.555   5.978  18.876  0.00  0.00    +0.000 N 
ATOM     17  C   UNL     1       2.548   6.543  20.230  0.00  0.00    +0.000 C 
ATOM     18  C   UNL     1       1.602   7.740  20.301  0.00  0.00    +0.000 C 
ATOM     19  C   UNL     1       1.869   8.757  19.193  0.00  0.00    +0.000 C 
ATOM     20  C   UNL     1       1.917   8.086  17.819  0.00  0.00    +0.000 C 
ATOM     21  C   UNL     1       2.909   6.925  17.811  0.00  0.00    +0.000 C 
ENDBRANCH   6  16
TORSDOF 3
ENDMDL
MODEL 6
REMARK VINA RESULT:      -7.2      2.829      4.827
REMARK  Name = 
REMARK  3 active torsions:
REMARK  status: ('A' for Active; 'I' for Inactive)
REMARK    1  A    between atoms: C_2  and  C_4
REMARK    2  A    between atoms: C_8  and  C_9
REMARK    3  A    between atoms: C_14  and  N_15
REMARK                            x       y       z     vdW  Elec       q    Type
REMARK                         _______ _______ _______ _____ _____    ______ ____
ROOT
ATOM      1  C   UNL     1       3.217   4.181  19.217  0.00  0.00    +0.000 A 
ATOM      2  N   UNL     1       3.089   2.836  19.450  0.00  0.00    +0.000 NA
ATOM      3  C   UNL     1       1.974   2.388  20.052  0.00  0.00    +0.000 A 
ATOM      4  C   UNL     1       0.950   3.214  20.449  0.00  0.00    +0.000 A 
ATOM      5  C   UNL     1       1.092   4.583  20.224  0.00  0.00    +0.000 A 
ATOM      6  C   UNL     1       2.234   5.130  19.601  0.00  0.00    +0.000 A 
ENDROOT
BRANCH   1  11
ATOM      7  C   UNL     1       6.785   5.218  18.386  0.00  0.00    +0.000 A 
ATOM      8  C   UNL     1       6.798   4.856  17.050  0.00  0.00    +0.000 A 
ATOM      9  N   UNL     1       5.728   4.355  16.399  0.00  0.00    +0.000 NA
ATOM     10  C   UNL     1       4.598   4.174  17.133  0.00  0.00    +0.000 A 
ATOM     11  C   UNL     1       4.465   4.479  18.489  0.00  0.00    +0.000 A 
ATOM     12  C   UNL     1       5.580   5.078  19.087  0.00  0.00    +0.000 A 
BRANCH   7  14
ATOM     13  F   UNL     1       8.260   7.035  18.793  0.00  0.00    +0.000 F 
ATOM     14  C   UNL     1       8.018   5.720  19.067  0.00  0.00    +0.000 C 
ATOM     15  F   UNL     1       7.952   5.639  20.426  0.00  0.00    +0.000 F 
ENDBRANCH   7  14
ENDBRANCH   1  11
BRANCH   6  16
ATOM     16  N   UNL     1       2.301   6.516  19.479  0.00  0.00    +0.000 N 
ATOM     17  C   UNL     1       2.095   7.448  20.593  0.00  0.00    +0.000 C 
ATOM     18  C   UNL     1       1.163   8.582  20.171  0.00  0.00    +0.000 C 
ATOM     19  C   UNL     1       1.608   9.243  18.868  0.00  0.00    +0.000 C 
ATOM     20  C   UNL     1       1.857   8.205  17.772  0.00  0.00    +0.000 C 
ATOM     21  C   UNL     1       2.825   7.125  18.250  0.00  0.00    +0.000 C 
ENDBRANCH   6  16
TORSDOF 3
ENDMDL
MODEL 7
REMARK VINA RESULT:      -7.2      3.748      5.855
REMARK  Name = 
REMARK  3 active torsions:
REMARK  status: ('A' for Active; 'I' for Inactive)
REMARK    1  A    between atoms: C_2  and  C_4
REMARK    2  A    between atoms: C_8  and  C_9
REMARK    3  A    between atoms: C_14  and  N_15
REMARK                            x       y       z     vdW  Elec       q    Type
REMARK                         _______ _______ _______ _____ _____    ______ ____
ROOT
ATOM      1  C   UNL     1       3.860   6.053  17.629  0.00  0.00    +0.000 A 
ATOM      2  N   UNL     1       4.773   6.650  16.799  0.00  0.00    +0.000 NA
ATOM      3  C   UNL     1       5.651   5.876  16.139  0.00  0.00    +0.000 A 
ATOM      4  C   UNL     1       5.681   4.507  16.254  0.00  0.00    +0.000 A 
ATOM      5  C   UNL     1       4.761   3.905  17.111  0.00  0.00    +0.000 A 
ATOM      6  C   UNL     1       3.811   4.650  17.842  0.00  0.00    +0.000 A 
ENDROOT
BRANCH   1  11
ATOM      7  C   UNL     1       1.669   7.994  20.062  0.00  0.00    +0.000 A 
ATOM      8  C   UNL     1       1.328   9.051  19.234  0.00  0.00    +0.000 A 
ATOM      9  N   UNL     1       1.714   9.146  17.945  0.00  0.00    +0.000 NA
ATOM     10  C   UNL     1       2.510   8.150  17.472  0.00  0.00    +0.000 A 
ATOM     11  C   UNL     1       2.939   7.046  18.211  0.00  0.00    +0.000 A 
ATOM     12  C   UNL     1       2.434   6.957  19.513  0.00  0.00    +0.000 A 
BRANCH   7  14
ATOM     13  F   UNL     1       1.755   9.027  22.200  0.00  0.00    +0.000 F 
ATOM     14  C   UNL     1       1.254   7.969  21.499  0.00  0.00    +0.000 C 
ATOM     15  F   UNL     1      -0.097   8.029  21.669  0.00  0.00    +0.000 F 
ENDBRANCH   7  14
ENDBRANCH   1  11
BRANCH   6  16
ATOM     16  N   UNL     1       2.977   3.954  18.714  0.00  0.00    +0.000 N 
ATOM     17  C   UNL     1       1.611   3.534  18.382  0.00  0.00    +0.000 C 
ATOM     18  C   UNL     1       0.660   3.867  19.529  0.00  0.00    +0.000 C 
ATOM     19  C   UNL     1       1.171   3.352  20.874  0.00  0.00    +0.000 C 
ATOM     20  C   UNL     1       2.618   3.782  21.123  0.00  0.00    +0.000 C 
ATOM     21  C   UNL     1       3.517   3.384  19.955  0.00  0.00    +0.000 C 
ENDBRANCH   6  16
TORSDOF 3
ENDMDL
MODEL 8
REMARK VINA RESULT:      -7.2      2.671      4.602
REMARK  Name = 
REMARK  3 active torsions:
REMARK  status: ('A' for Active; 'I' for Inactive)
REMARK    1  A    between atoms: C_2  and  C_4
REMARK    2  A    between atoms: C_8  and  C_9
REMARK    3  A    between atoms: C_14  and  N_15
REMARK                            x       y       z     vdW  Elec       q    Type
REMARK                         _______ _______ _______ _____ _____    ______ ____
ROOT
ATOM      1  C   UNL     1       4.246   3.981  19.304  0.00  0.00    +0.000 A 
ATOM      2  N   UNL     1       4.827   2.834  19.780  0.00  0.00    +0.000 NA
ATOM      3  C   UNL     1       4.190   2.134  20.733  0.00  0.00    +0.000 A 
ATOM      4  C   UNL     1       2.977   2.512  21.259  0.00  0.00    +0.000 A 
ATOM      5  C   UNL     1       2.398   3.687  20.784  0.00  0.00    +0.000 A 
ATOM      6  C   UNL     1       3.008   4.479  19.787  0.00  0.00    +0.000 A 
ENDROOT
BRANCH   1  11
ATOM      7  C   UNL     1       6.726   6.127  17.370  0.00  0.00    +0.000 A 
ATOM      8  C   UNL     1       6.615   5.508  16.136  0.00  0.00    +0.000 A 
ATOM      9  N   UNL     1       5.765   4.491  15.882  0.00  0.00    +0.000 NA
ATOM     10  C   UNL     1       5.014   4.050  16.926  0.00  0.00    +0.000 A 
ATOM     11  C   UNL     1       5.050   4.575  18.219  0.00  0.00    +0.000 A 
ATOM     12  C   UNL     1       5.884   5.684  18.399  0.00  0.00    +0.000 A 
BRANCH   7  14
ATOM     13  F   UNL     1       7.152   8.455  17.578  0.00  0.00    +0.000 F 
ATOM     14  C   UNL     1       7.724   7.216  17.605  0.00  0.00    +0.000 C 
ATOM     15  F   UNL     1       8.339   7.127  18.818  0.00  0.00    +0.000 F 
ENDBRANCH   7  14
ENDBRANCH   1  11
BRANCH   6  16
ATOM     16  N   UNL     1       2.372   5.664  19.426  0.00  0.00    +0.000 N 
ATOM     17  C   UNL     1       2.278   6.157  18.048  0.00  0.00    +0.000 C 
ATOM     18  C   UNL     1       2.625   7.643  17.991  0.00  0.00    +0.000 C 
ATOM     19  C   UNL     1       1.836   8.463  19.010  0.00  0.00    +0.000 C 
ATOM     20  C   UNL     1       1.936   7.856  20.411  0.00  0.00    +0.000 C 
ATOM     21  C   UNL     1       1.539   6.381  20.399  0.00  0.00    +0.000 C 
ENDBRANCH   6  16
TORSDOF 3
ENDMDL
MODEL 9
REMARK VINA RESULT:      -7.0      2.967      4.819
REMARK  Name = 
REMARK  3 active torsions:
REMARK  status: ('A' for Active; 'I' for Inactive)
REMARK    1  A    between atoms: C_2  and  C_4
REMARK    2  A    between atoms: C_8  and  C_9
REMARK    3  A    between atoms: C_14  and  N_15
REMARK                            x       y       z     vdW  Elec       q    Type
REMARK                         _______ _______ _______ _____ _____    ______ ____
ROOT
ATOM      1  C   UNL     1       6.570   4.960  15.848  0.00  0.00    +0.000 A 
ATOM      2  N   UNL     1       7.396   5.004  14.755  0.00  0.00    +0.000 NA
ATOM      3  C   UNL     1       6.939   4.539  13.580  0.00  0.00    +0.000 A 
ATOM      4  C   UNL     1       5.678   4.018  13.417  0.00  0.00    +0.000 A 
ATOM      5  C   UNL     1       4.847   3.960  14.535  0.00  0.00    +0.000 A 
ATOM      6  C   UNL     1       5.256   4.425  15.803  0.00  0.00    +0.000 A 
ENDROOT
BRANCH   1  11
ATOM      7  C   UNL     1       8.043   7.488  18.284  0.00  0.00    +0.000 A 
ATOM      8  C   UNL     1       8.281   6.634  19.348  0.00  0.00    +0.000 A 
ATOM      9  N   UNL     1       8.047   5.306  19.308  0.00  0.00    +0.000 NA
ATOM     10  C   UNL     1       7.515   4.815  18.158  0.00  0.00    +0.000 A 
ATOM     11  C   UNL     1       7.211   5.574  17.026  0.00  0.00    +0.000 A 
ATOM     12  C   UNL     1       7.558   6.928  17.094  0.00  0.00    +0.000 A 
BRANCH   7  14
ATOM     13  F   UNL     1       9.225   9.260  19.336  0.00  0.00    +0.000 F 
ATOM     14  C   UNL     1       8.274   8.960  18.404  0.00  0.00    +0.000 C 
ATOM     15  F   UNL     1       8.709   9.532  17.246  0.00  0.00    +0.000 F 
ENDBRANCH   7  14
ENDBRANCH   1  11
BRANCH   6  16
ATOM     16  N   UNL     1       4.368   4.267  16.865  0.00  0.00    +0.000 N 
ATOM     17  C   UNL     1       4.061   2.976  17.490  0.00  0.00    +0.000 C 
ATOM     18  C   UNL     1       2.553   2.823  17.678  0.00  0.00    +0.000 C 
ATOM     19  C   UNL     1       1.931   4.029  18.380  0.00  0.00    +0.000 C 
ATOM     20  C   UNL     1       2.343   5.340  17.706  0.00  0.00    +0.000 C 
ATOM     21  C   UNL     1       3.861   5.441  17.586  0.00  0.00    +0.000 C 
ENDBRANCH   6  16
TORSDOF 3
ENDMDL
