MODEL 1
REMARK VINA RESULT:      -8.7      0.000      0.000
REMARK  Name = 
REMARK  3 active torsions:
REMARK  status: ('A' for Active; 'I' for Inactive)
REMARK    1  A    between atoms: C_2  and  C_3
REMARK    2  A    between atoms: N_6  and  C_7
REMARK    3  A    between atoms: N_26  and  C_27
REMARK                            x       y       z     vdW  Elec       q    Type
REMARK                         _______ _______ _______ _____ _____    ______ ____
ROOT
ATOM      1  C   UNL     1      -0.442  10.137  20.205  0.00  0.00    +0.000 C 
ATOM      2  C   UNL     1      -0.288   9.155  21.377  0.00  0.00    +0.000 C 
ATOM      3  C   UNL     1       1.103   8.548  21.524  0.00  0.00    +0.000 C 
ATOM      4  N   UNL     1       1.587   8.119  20.220  0.00  0.00    +0.000 N 
ATOM      5  C   UNL     1       1.669   9.143  19.197  0.00  0.00    +0.000 C 
ATOM      6  C   UNL     1       0.244   9.633  18.926  0.00  0.00    +0.000 C 
ENDROOT
BRANCH   4   7
ATOM      7  C   UNL     1       2.103   6.852  20.046  0.00  0.00    +0.000 A 
ATOM      8  N   UNL     1       1.593   5.836  20.809  0.00  0.00    +0.000 NA
ATOM      9  C   UNL     1       2.023   4.572  20.616  0.00  0.00    +0.000 A 
ATOM     10  N   UNL     1       2.951   4.131  19.751  0.00  0.00    +0.000 NA
ATOM     11  C   UNL     1       3.457   5.149  19.038  0.00  0.00    +0.000 A 
ATOM     12  C   UNL     1       3.108   6.490  19.110  0.00  0.00    +0.000 A 
ATOM     13  N   UNL     1       3.868   7.221  18.209  0.00  0.00    +0.000 NA
ATOM     14  C   UNL     1       4.662   6.352  17.613  0.00  0.00    +0.000 A 
ATOM     15  N   UNL     1       4.433   5.082  18.082  0.00  0.00    +0.000 N 
ATOM     16  C   UNL     1       5.105   3.885  17.628  0.00  0.00    +0.000 C 
ATOM     17  C   UNL     1       4.872   3.604  16.145  0.00  0.00    +0.000 C 
ATOM     18  C   UNL     1       5.706   4.484  15.211  0.00  0.00    +0.000 C 
ATOM     19  C   UNL     1       5.351   5.973  15.237  0.00  0.00    +0.000 C 
ATOM     20  C   UNL     1       5.672   6.660  16.564  0.00  0.00    +0.000 C 
ENDBRANCH   4   7
BRANCH   1  22
ATOM     21  O   UNL     1       1.166  11.924  20.109  0.00  0.00    +0.000 OA
ATOM     22  C   UNL     1       0.059  11.555  20.495  0.00  0.00    +0.000 C 
ATOM     23  N   UNL     1      -0.830  12.415  21.135  0.00  0.00    +0.000 N 
ATOM     24  C   UNL     1      -2.149  12.049  21.696  0.00  0.00    +0.000 C 
ATOM     25  C   UNL     1      -2.367  12.661  23.096  0.00  0.00    +0.000 C 
ATOM     26  N   UNL     1      -2.166  14.106  22.998  0.00  0.00    +0.000 N 
ATOM     27  C   UNL     1      -0.823  14.499  22.533  0.00  0.00    +0.000 C 
ATOM     28  C   UNL     1      -0.549  13.863  21.155  0.00  0.00    +0.000 C 
BRANCH  26  29
ATOM     29  C   UNL     1      -2.949  15.008  23.684  0.00  0.00    +0.000 A 
ATOM     30  C   UNL     1      -4.342  15.077  23.533  0.00  0.00    +0.000 A 
ATOM     31  C   UNL     1      -5.095  16.039  24.214  0.00  0.00    +0.000 A 
ATOM     32  C   UNL     1      -4.459  16.953  25.040  0.00  0.00    +0.000 A 
ATOM     33  F   UNL     1      -5.176  17.881  25.682  0.00  0.00    +0.000 F 
ATOM     34  C   UNL     1      -3.081  16.918  25.205  0.00  0.00    +0.000 A 
ATOM     35  C   UNL     1      -2.339  15.947  24.535  0.00  0.00    +0.000 A 
ENDBRANCH  26  29
ENDBRANCH   1  22
TORSDOF 3
ENDMDL
MODEL 2
REMARK VINA RESULT:      -8.5      4.049     12.190
REMARK  Name = 
REMARK  3 active torsions:
REMARK  status: ('A' for Active; 'I' for Inactive)
REMARK    1  A    between atoms: C_2  and  C_3
REMARK    2  A    between atoms: N_6  and  C_7
REMARK    3  A    between atoms: N_26  and  C_27
REMARK                            x       y       z     vdW  Elec       q    Type
REMARK                         _______ _______ _______ _____ _____    ______ ____
ROOT
ATOM      1  C   UNL     1       0.507  10.991  19.457  0.00  0.00    +0.000 C 
ATOM      2  C   UNL     1       1.060  12.281  20.081  0.00  0.00    +0.000 C 
ATOM      3  C   UNL     1       0.325  12.752  21.331  0.00  0.00    +0.000 C 
ATOM      4  N   UNL     1      -1.112  12.675  21.109  0.00  0.00    +0.000 N 
ATOM      5  C   UNL     1      -1.638  11.368  20.765  0.00  0.00    +0.000 C 
ATOM      6  C   UNL     1      -1.028  10.970  19.419  0.00  0.00    +0.000 C 
ENDROOT
BRANCH   4   7
ATOM      7  C   UNL     1      -1.924  13.752  21.394  0.00  0.00    +0.000 A 
ATOM      8  N   UNL     1      -1.634  14.953  20.807  0.00  0.00    +0.000 NA
ATOM      9  C   UNL     1      -2.448  16.011  21.006  0.00  0.00    +0.000 A 
ATOM     10  N   UNL     1      -3.557  16.077  21.759  0.00  0.00    +0.000 NA
ATOM     11  C   UNL     1      -3.803  14.896  22.348  0.00  0.00    +0.000 A 
ATOM     12  C   UNL     1      -3.074  13.722  22.229  0.00  0.00    +0.000 A 
ATOM     13  N   UNL     1      -3.655  12.729  23.002  0.00  0.00    +0.000 NA
ATOM     14  C   UNL     1      -4.702  13.284  23.581  0.00  0.00    +0.000 A 
ATOM     15  N   UNL     1      -4.830  14.597  23.199  0.00  0.00    +0.000 N 
ATOM     16  C   UNL     1      -5.882  15.495  23.621  0.00  0.00    +0.000 C 
ATOM     17  C   UNL     1      -7.271  15.019  23.197  0.00  0.00    +0.000 C 
ATOM     18  C   UNL     1      -7.826  13.886  24.064  0.00  0.00    +0.000 C 
ATOM     19  C   UNL     1      -7.068  12.559  23.958  0.00  0.00    +0.000 C 
ATOM     20  C   UNL     1      -5.647  12.615  24.517  0.00  0.00    +0.000 C 
ENDBRANCH   4   7
BRANCH   1  22
ATOM     21  O   UNL     1       0.799   9.506  21.328  0.00  0.00    +0.000 OA
ATOM     22  C   UNL     1       0.991   9.702  20.130  0.00  0.00    +0.000 C 
ATOM     23  N   UNL     1       1.575   8.745  19.304  0.00  0.00    +0.000 N 
ATOM     24  C   UNL     1       1.911   8.913  17.873  0.00  0.00    +0.000 C 
ATOM     25  C   UNL     1       3.316   8.365  17.544  0.00  0.00    +0.000 C 
ATOM     26  N   UNL     1       3.377   6.973  17.989  0.00  0.00    +0.000 N 
ATOM     27  C   UNL     1       3.142   6.789  19.433  0.00  0.00    +0.000 C 
ATOM     28  C   UNL     1       1.765   7.372  19.808  0.00  0.00    +0.000 C 
BRANCH  26  29
ATOM     29  C   UNL     1       4.026   5.996  17.266  0.00  0.00    +0.000 A 
ATOM     30  C   UNL     1       3.851   4.626  17.511  0.00  0.00    +0.000 A 
ATOM     31  C   UNL     1       4.564   3.666  16.785  0.00  0.00    +0.000 A 
ATOM     32  C   UNL     1       5.472   4.069  15.817  0.00  0.00    +0.000 A 
ATOM     33  F   UNL     1       6.164   3.154  15.131  0.00  0.00    +0.000 F 
ATOM     34  C   UNL     1       5.676   5.418  15.557  0.00  0.00    +0.000 A 
ATOM     35  C   UNL     1       4.950   6.368  16.274  0.00  0.00    +0.000 A 
ENDBRANCH  26  29
ENDBRANCH   1  22
TORSDOF 3
ENDMDL
MODEL 3
REMARK VINA RESULT:      -8.4      4.008     12.047
REMARK  Name = 
REMARK  3 active torsions:
REMARK  status: ('A' for Active; 'I' for Inactive)
REMARK    1  A    between atoms: C_2  and  C_3
REMARK    2  A    between atoms: N_6  and  C_7
REMARK    3  A    between atoms: N_26  and  C_27
REMARK                            x       y       z     vdW  Elec       q    Type
REMARK                         _______ _______ _______ _____ _____    ______ ____
ROOT
ATOM      1  C   UNL     1       0.312   9.513  20.189  0.00  0.00    +0.000 C 
ATOM      2  C   UNL     1       0.970  10.866  19.881  0.00  0.00    +0.000 C 
ATOM      3  C   UNL     1       1.242  11.738  21.103  0.00  0.00    +0.000 C 
ATOM      4  N   UNL     1       0.071  11.740  21.968  0.00  0.00    +0.000 N 
ATOM      5  C   UNL     1      -0.374  10.447  22.450  0.00  0.00    +0.000 C 
ATOM      6  C   UNL     1      -0.810   9.631  21.231  0.00  0.00    +0.000 C 
ENDROOT
BRANCH   4   7
ATOM      7  C   UNL     1      -0.454  12.928  22.435  0.00  0.00    +0.000 A 
ATOM      8  N   UNL     1       0.317  14.054  22.343  0.00  0.00    +0.000 NA
ATOM      9  C   UNL     1      -0.189  15.246  22.722  0.00  0.00    +0.000 A 
ATOM     10  N   UNL     1      -1.403  15.510  23.232  0.00  0.00    +0.000 NA
ATOM     11  C   UNL     1      -2.127  14.385  23.341  0.00  0.00    +0.000 A 
ATOM     12  C   UNL     1      -1.754  13.099  22.980  0.00  0.00    +0.000 A 
ATOM     13  N   UNL     1      -2.786  12.216  23.258  0.00  0.00    +0.000 NA
ATOM     14  C   UNL     1      -3.756  12.942  23.780  0.00  0.00    +0.000 A 
ATOM     15  N   UNL     1      -3.397  14.266  23.836  0.00  0.00    +0.000 N 
ATOM     16  C   UNL     1      -4.229  15.343  24.324  0.00  0.00    +0.000 C 
ATOM     17  C   UNL     1      -5.514  15.510  23.514  0.00  0.00    +0.000 C 
ATOM     18  C   UNL     1      -6.588  14.468  23.837  0.00  0.00    +0.000 C 
ATOM     19  C   UNL     1      -6.235  13.031  23.443  0.00  0.00    +0.000 C 
ATOM     20  C   UNL     1      -5.077  12.439  24.247  0.00  0.00    +0.000 C 
ENDBRANCH   4   7
BRANCH   1  22
ATOM     21  O   UNL     1       1.441   8.180  21.844  0.00  0.00    +0.000 OA
ATOM     22  C   UNL     1       1.286   8.423  20.649  0.00  0.00    +0.000 C 
ATOM     23  N   UNL     1       1.912   7.679  19.652  0.00  0.00    +0.000 N 
ATOM     24  C   UNL     1       1.844   7.938  18.196  0.00  0.00    +0.000 C 
ATOM     25  C   UNL     1       3.231   7.827  17.528  0.00  0.00    +0.000 C 
ATOM     26  N   UNL     1       3.789   6.514  17.854  0.00  0.00    +0.000 N 
ATOM     27  C   UNL     1       3.957   6.270  19.298  0.00  0.00    +0.000 C 
ATOM     28  C   UNL     1       2.597   6.423  20.007  0.00  0.00    +0.000 C 
BRANCH  26  29
ATOM     29  C   UNL     1       4.504   5.770  16.941  0.00  0.00    +0.000 A 
ATOM     30  C   UNL     1       5.153   6.339  15.836  0.00  0.00    +0.000 A 
ATOM     31  C   UNL     1       5.829   5.543  14.906  0.00  0.00    +0.000 A 
ATOM     32  C   UNL     1       5.848   4.166  15.065  0.00  0.00    +0.000 A 
ATOM     33  F   UNL     1       6.483   3.401  14.170  0.00  0.00    +0.000 F 
ATOM     34  C   UNL     1       5.208   3.569  16.142  0.00  0.00    +0.000 A 
ATOM     35  C   UNL     1       4.549   4.370  17.073  0.00  0.00    +0.000 A 
ENDBRANCH  26  29
ENDBRANCH   1  22
TORSDOF 3
ENDMDL
MODEL 4
REMARK VINA RESULT:      -8.3      0.974      1.469
REMARK  Name = 
REMARK  3 active torsions:
REMARK  status: ('A' for Active; 'I' for Inactive)
REMARK    1  A    between atoms: C_2  and  C_3
REMARK    2  A    between atoms: N_6  and  C_7
REMARK    3  A    between atoms: N_26  and  C_27
REMARK                            x       y       z     vdW  Elec       q    Type
REMARK                         _______ _______ _______ _____ _____    ______ ____
ROOT
ATOM      1  C   UNL     1       1.010  11.389  19.822  0.00  0.00    +0.000 C 
ATOM      2  C   UNL     1       1.728  10.739  18.630  0.00  0.00    +0.000 C 
ATOM      3  C   UNL     1       1.332   9.290  18.359  0.00  0.00    +0.000 C 
ATOM      4  N   UNL     1       1.304   8.551  19.613  0.00  0.00    +0.000 N 
ATOM      5  C   UNL     1       0.412   9.058  20.637  0.00  0.00    +0.000 C 
ATOM      6  C   UNL     1       0.914  10.448  21.032  0.00  0.00    +0.000 C 
ENDROOT
BRANCH   4   7
ATOM      7  C   UNL     1       1.958   7.342  19.728  0.00  0.00    +0.000 A 
ATOM      8  N   UNL     1       1.559   6.484  20.716  0.00  0.00    +0.000 NA
ATOM      9  C   UNL     1       2.126   5.264  20.815  0.00  0.00    +0.000 A 
ATOM     10  N   UNL     1       3.101   4.736  20.057  0.00  0.00    +0.000 NA
ATOM     11  C   UNL     1       3.495   5.607  19.115  0.00  0.00    +0.000 A 
ATOM     12  C   UNL     1       3.001   6.882  18.880  0.00  0.00    +0.000 A 
ATOM     13  N   UNL     1       3.680   7.459  17.818  0.00  0.00    +0.000 NA
ATOM     14  C   UNL     1       4.566   6.566  17.424  0.00  0.00    +0.000 A 
ATOM     15  N   UNL     1       4.477   5.424  18.181  0.00  0.00    +0.000 N 
ATOM     16  C   UNL     1       5.278   4.233  18.004  0.00  0.00    +0.000 C 
ATOM     17  C   UNL     1       5.084   3.590  16.632  0.00  0.00    +0.000 C 
ATOM     18  C   UNL     1       5.821   4.312  15.501  0.00  0.00    +0.000 C 
ATOM     19  C   UNL     1       5.303   5.719  15.187  0.00  0.00    +0.000 C 
ATOM     20  C   UNL     1       5.541   6.727  16.310  0.00  0.00    +0.000 C 
ENDBRANCH   4   7
BRANCH   1  22
ATOM     21  O   UNL     1      -0.927  11.682  18.425  0.00  0.00    +0.000 OA
ATOM     22  C   UNL     1      -0.395  11.915  19.507  0.00  0.00    +0.000 C 
ATOM     23  N   UNL     1      -1.056  12.588  20.532  0.00  0.00    +0.000 N 
ATOM     24  C   UNL     1      -0.479  12.976  21.838  0.00  0.00    +0.000 C 
ATOM     25  C   UNL     1      -0.853  14.423  22.225  0.00  0.00    +0.000 C 
ATOM     26  N   UNL     1      -2.310  14.543  22.182  0.00  0.00    +0.000 N 
ATOM     27  C   UNL     1      -2.902  14.256  20.862  0.00  0.00    +0.000 C 
ATOM     28  C   UNL     1      -2.507  12.833  20.420  0.00  0.00    +0.000 C 
BRANCH  26  29
ATOM     29  C   UNL     1      -3.017  15.276  23.109  0.00  0.00    +0.000 A 
ATOM     30  C   UNL     1      -4.410  15.187  23.249  0.00  0.00    +0.000 A 
ATOM     31  C   UNL     1      -5.096  15.983  24.173  0.00  0.00    +0.000 A 
ATOM     32  C   UNL     1      -4.395  16.890  24.953  0.00  0.00    +0.000 A 
ATOM     33  F   UNL     1      -5.049  17.662  25.827  0.00  0.00    +0.000 F 
ATOM     34  C   UNL     1      -3.017  17.011  24.833  0.00  0.00    +0.000 A 
ATOM     35  C   UNL     1      -2.339  16.202  23.922  0.00  0.00    +0.000 A 
ENDBRANCH  26  29
ENDBRANCH   1  22
TORSDOF 3
ENDMDL
MODEL 5
REMARK VINA RESULT:      -8.3      0.849      1.007
REMARK  Name = 
REMARK  3 active torsions:
REMARK  status: ('A' for Active; 'I' for Inactive)
REMARK    1  A    between atoms: C_2  and  C_3
REMARK    2  A    between atoms: N_6  and  C_7
REMARK    3  A    between atoms: N_26  and  C_27
REMARK                            x       y       z     vdW  Elec       q    Type
REMARK                         _______ _______ _______ _____ _____    ______ ____
ROOT
ATOM      1  C   UNL     1      -0.547  10.462  19.158  0.00  0.00    +0.000 C 
ATOM      2  C   UNL     1      -0.499   9.659  20.467  0.00  0.00    +0.000 C 
ATOM      3  C   UNL     1       0.884   9.137  20.846  0.00  0.00    +0.000 C 
ATOM      4  N   UNL     1       1.521   8.553  19.675  0.00  0.00    +0.000 N 
ATOM      5  C   UNL     1       1.689   9.429  18.532  0.00  0.00    +0.000 C 
ATOM      6  C   UNL     1       0.291   9.817  18.044  0.00  0.00    +0.000 C 
ENDROOT
BRANCH   4   7
ATOM      7  C   UNL     1       2.087   7.296  19.737  0.00  0.00    +0.000 A 
ATOM      8  N   UNL     1       1.621   6.425  20.683  0.00  0.00    +0.000 NA
ATOM      9  C   UNL     1       2.100   5.164  20.728  0.00  0.00    +0.000 A 
ATOM     10  N   UNL     1       3.042   4.605  19.952  0.00  0.00    +0.000 NA
ATOM     11  C   UNL     1       3.504   5.488  19.054  0.00  0.00    +0.000 A 
ATOM     12  C   UNL     1       3.102   6.803  18.875  0.00  0.00    +0.000 A 
ATOM     13  N   UNL     1       3.829   7.380  17.845  0.00  0.00    +0.000 NA
ATOM     14  C   UNL     1       4.655   6.445  17.415  0.00  0.00    +0.000 A 
ATOM     15  N   UNL     1       4.479   5.279  18.117  0.00  0.00    +0.000 N 
ATOM     16  C   UNL     1       5.197   4.044  17.890  0.00  0.00    +0.000 C 
ATOM     17  C   UNL     1       4.970   3.479  16.489  0.00  0.00    +0.000 C 
ATOM     18  C   UNL     1       5.765   4.198  15.396  0.00  0.00    +0.000 C 
ATOM     19  C   UNL     1       5.350   5.651  15.145  0.00  0.00    +0.000 C 
ATOM     20  C   UNL     1       5.648   6.588  16.315  0.00  0.00    +0.000 C 
ENDBRANCH   4   7
BRANCH   1  22
ATOM     21  O   UNL     1       0.801  12.382  18.621  0.00  0.00    +0.000 OA
ATOM     22  C   UNL     1      -0.119  11.927  19.297  0.00  0.00    +0.000 C 
ATOM     23  N   UNL     1      -0.875  12.722  20.156  0.00  0.00    +0.000 N 
ATOM     24  C   UNL     1      -1.950  12.255  21.059  0.00  0.00    +0.000 C 
ATOM     25  C   UNL     1      -1.833  12.883  22.464  0.00  0.00    +0.000 C 
ATOM     26  N   UNL     1      -1.801  14.337  22.311  0.00  0.00    +0.000 N 
ATOM     27  C   UNL     1      -0.679  14.835  21.494  0.00  0.00    +0.000 C 
ATOM     28  C   UNL     1      -0.735  14.189  20.095  0.00  0.00    +0.000 C 
BRANCH  26  29
ATOM     29  C   UNL     1      -2.446  15.185  23.185  0.00  0.00    +0.000 A 
ATOM     30  C   UNL     1      -2.497  14.958  24.568  0.00  0.00    +0.000 A 
ATOM     31  C   UNL     1      -3.202  15.819  25.416  0.00  0.00    +0.000 A 
ATOM     32  C   UNL     1      -3.879  16.906  24.884  0.00  0.00    +0.000 A 
ATOM     33  F   UNL     1      -4.565  17.722  25.691  0.00  0.00    +0.000 F 
ATOM     34  C   UNL     1      -3.858  17.153  23.519  0.00  0.00    +0.000 A 
ATOM     35  C   UNL     1      -3.139  16.300  22.682  0.00  0.00    +0.000 A 
ENDBRANCH  26  29
ENDBRANCH   1  22
TORSDOF 3
ENDMDL
MODEL 6
REMARK VINA RESULT:      -8.3      1.680      3.133
REMARK  Name = 
REMARK  3 active torsions:
REMARK  status: ('A' for Active; 'I' for Inactive)
REMARK    1  A    between atoms: C_2  and  C_3
REMARK    2  A    between atoms: N_6  and  C_7
REMARK    3  A    between atoms: N_26  and  C_27
REMARK                            x       y       z     vdW  Elec       q    Type
REMARK                         _______ _______ _______ _____ _____    ______ ____
ROOT
ATOM      1  C   UNL     1      -0.806  10.387  20.938  0.00  0.00    +0.000 C 
ATOM      2  C   UNL     1      -0.139   9.199  21.648  0.00  0.00    +0.000 C 
ATOM      3  C   UNL     1       1.318   8.960  21.262  0.00  0.00    +0.000 C 
ATOM      4  N   UNL     1       1.458   9.044  19.816  0.00  0.00    +0.000 N 
ATOM      5  C   UNL     1       1.048  10.292  19.202  0.00  0.00    +0.000 C 
ATOM      6  C   UNL     1      -0.455  10.448  19.444  0.00  0.00    +0.000 C 
ENDROOT
BRANCH   4   7
ATOM      7  C   UNL     1       2.113   8.052  19.116  0.00  0.00    +0.000 A 
ATOM      8  N   UNL     1       2.864   8.415  18.031  0.00  0.00    +0.000 NA
ATOM      9  C   UNL     1       3.576   7.483  17.366  0.00  0.00    +0.000 A 
ATOM     10  N   UNL     1       3.648   6.163  17.606  0.00  0.00    +0.000 NA
ATOM     11  C   UNL     1       2.880   5.828  18.654  0.00  0.00    +0.000 A 
ATOM     12  C   UNL     1       2.109   6.670  19.443  0.00  0.00    +0.000 A 
ATOM     13  N   UNL     1       1.461   5.932  20.421  0.00  0.00    +0.000 NA
ATOM     14  C   UNL     1       1.821   4.677  20.229  0.00  0.00    +0.000 A 
ATOM     15  N   UNL     1       2.691   4.577  19.172  0.00  0.00    +0.000 N 
ATOM     16  C   UNL     1       3.306   3.355  18.703  0.00  0.00    +0.000 C 
ATOM     17  C   UNL     1       4.187   2.693  19.761  0.00  0.00    +0.000 C 
ATOM     18  C   UNL     1       3.400   1.940  20.837  0.00  0.00    +0.000 C 
ATOM     19  C   UNL     1       2.544   2.824  21.749  0.00  0.00    +0.000 C 
ATOM     20  C   UNL     1       1.378   3.503  21.031  0.00  0.00    +0.000 C 
ENDBRANCH   4   7
BRANCH   1  22
ATOM     21  O   UNL     1       0.652  12.071  21.850  0.00  0.00    +0.000 OA
ATOM     22  C   UNL     1      -0.500  11.753  21.561  0.00  0.00    +0.000 C 
ATOM     23  N   UNL     1      -1.571  12.632  21.701  0.00  0.00    +0.000 N 
ATOM     24  C   UNL     1      -2.995  12.322  21.448  0.00  0.00    +0.000 C 
ATOM     25  C   UNL     1      -3.909  12.870  22.565  0.00  0.00    +0.000 C 
ATOM     26  N   UNL     1      -3.649  14.302  22.704  0.00  0.00    +0.000 N 
ATOM     27  C   UNL     1      -2.255  14.632  23.052  0.00  0.00    +0.000 C 
ATOM     28  C   UNL     1      -1.307  14.056  21.982  0.00  0.00    +0.000 C 
BRANCH  26  29
ATOM     29  C   UNL     1      -4.654  15.215  22.942  0.00  0.00    +0.000 A 
ATOM     30  C   UNL     1      -4.441  16.422  23.622  0.00  0.00    +0.000 A 
ATOM     31  C   UNL     1      -5.498  17.300  23.884  0.00  0.00    +0.000 A 
ATOM     32  C   UNL     1      -6.782  16.969  23.482  0.00  0.00    +0.000 A 
ATOM     33  F   UNL     1      -7.797  17.800  23.744  0.00  0.00    +0.000 F 
ATOM     34  C   UNL     1      -7.030  15.777  22.815  0.00  0.00    +0.000 A 
ATOM     35  C   UNL     1      -5.969  14.915  22.544  0.00  0.00    +0.000 A 
ENDBRANCH  26  29
ENDBRANCH   1  22
TORSDOF 3
ENDMDL
MODEL 7
REMARK VINA RESULT:      -8.2      6.359      8.006
REMARK  Name = 
REMARK  3 active torsions:
REMARK  status: ('A' for Active; 'I' for Inactive)
REMARK    1  A    between atoms: C_2  and  C_3
REMARK    2  A    between atoms: N_6  and  C_7
REMARK    3  A    between atoms: N_26  and  C_27
REMARK                            x       y       z     vdW  Elec       q    Type
REMARK                         _______ _______ _______ _____ _____    ______ ____
ROOT
ATOM      1  C   UNL     1       2.886  14.872  18.636  0.00  0.00    +0.000 C 
ATOM      2  C   UNL     1       3.889  14.610  19.770  0.00  0.00    +0.000 C 
ATOM      3  C   UNL     1       4.889  15.736  20.012  0.00  0.00    +0.000 C 
ATOM      4  N   UNL     1       5.420  16.197  18.738  0.00  0.00    +0.000 N 
ATOM      5  C   UNL     1       4.450  16.681  17.775  0.00  0.00    +0.000 C 
ATOM      6  C   UNL     1       3.549  15.501  17.402  0.00  0.00    +0.000 C 
ENDROOT
BRANCH   4   7
ATOM      7  C   UNL     1       6.780  16.327  18.552  0.00  0.00    +0.000 A 
ATOM      8  N   UNL     1       7.319  17.584  18.585  0.00  0.00    +0.000 NA
ATOM      9  C   UNL     1       8.655  17.745  18.478  0.00  0.00    +0.000 A 
ATOM     10  N   UNL     1       9.595  16.801  18.309  0.00  0.00    +0.000 NA
ATOM     11  C   UNL     1       9.039  15.582  18.249  0.00  0.00    +0.000 A 
ATOM     12  C   UNL     1       7.695  15.257  18.358  0.00  0.00    +0.000 A 
ATOM     13  N   UNL     1       7.532  13.886  18.237  0.00  0.00    +0.000 NA
ATOM     14  C   UNL     1       8.740  13.391  18.051  0.00  0.00    +0.000 A 
ATOM     15  N   UNL     1       9.683  14.389  18.063  0.00  0.00    +0.000 N 
ATOM     16  C   UNL     1      11.109  14.201  17.917  0.00  0.00    +0.000 C 
ATOM     17  C   UNL     1      11.707  13.337  19.027  0.00  0.00    +0.000 C 
ATOM     18  C   UNL     1      11.443  11.839  18.853  0.00  0.00    +0.000 C 
ATOM     19  C   UNL     1       9.974  11.422  18.982  0.00  0.00    +0.000 C 
ATOM     20  C   UNL     1       9.083  11.954  17.861  0.00  0.00    +0.000 C 
ENDBRANCH   4   7
BRANCH   1  22
ATOM     21  O   UNL     1       1.587  16.897  18.633  0.00  0.00    +0.000 OA
ATOM     22  C   UNL     1       1.689  15.741  19.036  0.00  0.00    +0.000 C 
ATOM     23  N   UNL     1       0.697  15.129  19.799  0.00  0.00    +0.000 N 
ATOM     24  C   UNL     1       0.759  13.773  20.387  0.00  0.00    +0.000 C 
ATOM     25  C   UNL     1       0.263  13.757  21.848  0.00  0.00    +0.000 C 
ATOM     26  N   UNL     1      -1.080  14.336  21.879  0.00  0.00    +0.000 N 
ATOM     27  C   UNL     1      -1.151  15.724  21.388  0.00  0.00    +0.000 C 
ATOM     28  C   UNL     1      -0.615  15.787  19.944  0.00  0.00    +0.000 C 
BRANCH  26  29
ATOM     29  C   UNL     1      -2.080  13.838  22.686  0.00  0.00    +0.000 A 
ATOM     30  C   UNL     1      -2.941  14.661  23.426  0.00  0.00    +0.000 A 
ATOM     31  C   UNL     1      -3.914  14.115  24.270  0.00  0.00    +0.000 A 
ATOM     32  C   UNL     1      -4.021  12.738  24.395  0.00  0.00    +0.000 A 
ATOM     33  F   UNL     1      -4.941  12.214  25.212  0.00  0.00    +0.000 F 
ATOM     34  C   UNL     1      -3.177  11.895  23.685  0.00  0.00    +0.000 A 
ATOM     35  C   UNL     1      -2.221  12.447  22.833  0.00  0.00    +0.000 A 
ENDBRANCH  26  29
ENDBRANCH   1  22
TORSDOF 3
ENDMDL
MODEL 8
REMARK VINA RESULT:      -8.2      6.335      8.014
REMARK  Name = 
REMARK  3 active torsions:
REMARK  status: ('A' for Active; 'I' for Inactive)
REMARK    1  A    between atoms: C_2  and  C_3
REMARK    2  A    between atoms: N_6  and  C_7
REMARK    3  A    between atoms: N_26  and  C_27
REMARK                            x       y       z     vdW  Elec       q    Type
REMARK                         _______ _______ _______ _____ _____    ______ ____
ROOT
ATOM      1  C   UNL     1       2.406  15.099  19.323  0.00  0.00    +0.000 C 
ATOM      2  C   UNL     1       3.022  15.286  17.928  0.00  0.00    +0.000 C 
ATOM      3  C   UNL     1       4.436  14.736  17.775  0.00  0.00    +0.000 C 
ATOM      4  N   UNL     1       5.239  15.131  18.923  0.00  0.00    +0.000 N 
ATOM      5  C   UNL     1       4.750  14.712  20.222  0.00  0.00    +0.000 C 
ATOM      6  C   UNL     1       3.404  15.403  20.449  0.00  0.00    +0.000 C 
ENDROOT
BRANCH   4   7
ATOM      7  C   UNL     1       6.478  15.709  18.746  0.00  0.00    +0.000 A 
ATOM      8  N   UNL     1       6.591  17.061  18.919  0.00  0.00    +0.000 NA
ATOM      9  C   UNL     1       7.801  17.651  18.825  0.00  0.00    +0.000 A 
ATOM     10  N   UNL     1       8.984  17.082  18.545  0.00  0.00    +0.000 NA
ATOM     11  C   UNL     1       8.842  15.762  18.350  0.00  0.00    +0.000 A 
ATOM     12  C   UNL     1       7.676  15.014  18.428  0.00  0.00    +0.000 A 
ATOM     13  N   UNL     1       7.953  13.684  18.153  0.00  0.00    +0.000 NA
ATOM     14  C   UNL     1       9.247  13.625  17.906  0.00  0.00    +0.000 A 
ATOM     15  N   UNL     1       9.823  14.865  18.027  0.00  0.00    +0.000 N 
ATOM     16  C   UNL     1      11.228  15.160  17.854  0.00  0.00    +0.000 C 
ATOM     17  C   UNL     1      12.115  14.421  18.855  0.00  0.00    +0.000 C 
ATOM     18  C   UNL     1      12.333  12.944  18.514  0.00  0.00    +0.000 C 
ATOM     19  C   UNL     1      11.080  12.068  18.602  0.00  0.00    +0.000 C 
ATOM     20  C   UNL     1      10.020  12.402  17.553  0.00  0.00    +0.000 C 
ENDBRANCH   4   7
BRANCH   1  22
ATOM     21  O   UNL     1       2.337  12.703  19.110  0.00  0.00    +0.000 OA
ATOM     22  C   UNL     1       1.806  13.711  19.571  0.00  0.00    +0.000 C 
ATOM     23  N   UNL     1       0.693  13.649  20.405  0.00  0.00    +0.000 N 
ATOM     24  C   UNL     1      -0.056  14.803  20.950  0.00  0.00    +0.000 C 
ATOM     25  C   UNL     1      -1.583  14.603  20.836  0.00  0.00    +0.000 C 
ATOM     26  N   UNL     1      -1.925  13.338  21.485  0.00  0.00    +0.000 N 
ATOM     27  C   UNL     1      -1.265  12.158  20.895  0.00  0.00    +0.000 C 
ATOM     28  C   UNL     1       0.264  12.346  20.946  0.00  0.00    +0.000 C 
BRANCH  26  29
ATOM     29  C   UNL     1      -3.065  13.183  22.243  0.00  0.00    +0.000 A 
ATOM     30  C   UNL     1      -3.033  12.865  23.609  0.00  0.00    +0.000 A 
ATOM     31  C   UNL     1      -4.214  12.671  24.333  0.00  0.00    +0.000 A 
ATOM     32  C   UNL     1      -5.439  12.776  23.692  0.00  0.00    +0.000 A 
ATOM     33  F   UNL     1      -6.569  12.577  24.378  0.00  0.00    +0.000 F 
ATOM     34  C   UNL     1      -5.506  13.079  22.339  0.00  0.00    +0.000 A 
ATOM     35  C   UNL     1      -4.325  13.287  21.628  0.00  0.00    +0.000 A 
ENDBRANCH  26  29
ENDBRANCH   1  22
TORSDOF 3
ENDMDL
MODEL 9
REMARK VINA RESULT:      -8.1      1.247      2.883
REMARK  Name = 
REMARK  3 active torsions:
REMARK  status: ('A' for Active; 'I' for Inactive)
REMARK    1  A    between atoms: C_2  and  C_3
REMARK    2  A    between atoms: N_6  and  C_7
REMARK    3  A    between atoms: N_26  and  C_27
REMARK                            x       y       z     vdW  Elec       q    Type
REMARK                         _______ _______ _______ _____ _____    ______ ____
ROOT
ATOM      1  C   UNL     1      -0.330  10.393  19.539  0.00  0.00    +0.000 C 
ATOM      2  C   UNL     1       0.392   9.487  20.549  0.00  0.00    +0.000 C 
ATOM      3  C   UNL     1       1.843   9.170  20.200  0.00  0.00    +0.000 C 
ATOM      4  N   UNL     1       1.938   8.816  18.792  0.00  0.00    +0.000 N 
ATOM      5  C   UNL     1       1.475   9.813  17.846  0.00  0.00    +0.000 C 
ATOM      6  C   UNL     1      -0.025  10.006  18.084  0.00  0.00    +0.000 C 
ENDROOT
BRANCH   4   7
ATOM      7  C   UNL     1       2.601   7.671  18.400  0.00  0.00    +0.000 A 
ATOM      8  N   UNL     1       3.543   7.776  17.413  0.00  0.00    +0.000 NA
ATOM      9  C   UNL     1       4.262   6.693  17.054  0.00  0.00    +0.000 A 
ATOM     10  N   UNL     1       4.173   5.440  17.530  0.00  0.00    +0.000 NA
ATOM     11  C   UNL     1       3.222   5.357  18.473  0.00  0.00    +0.000 A 
ATOM     12  C   UNL     1       2.418   6.378  18.958  0.00  0.00    +0.000 A 
ATOM     13  N   UNL     1       1.558   5.879  19.925  0.00  0.00    +0.000 NA
ATOM     14  C   UNL     1       1.826   4.591  20.020  0.00  0.00    +0.000 A 
ATOM     15  N   UNL     1       2.839   4.239  19.162  0.00  0.00    +0.000 N 
ATOM     16  C   UNL     1       3.404   2.915  19.026  0.00  0.00    +0.000 C 
ATOM     17  C   UNL     1       4.043   2.411  20.319  0.00  0.00    +0.000 C 
ATOM     18  C   UNL     1       3.030   1.924  21.360  0.00  0.00    +0.000 C 
ATOM     19  C   UNL     1       2.127   3.015  21.942  0.00  0.00    +0.000 C 
ATOM     20  C   UNL     1       1.156   3.618  20.926  0.00  0.00    +0.000 C 
ENDBRANCH   4   7
BRANCH   1  22
ATOM     21  O   UNL     1       0.899  12.422  19.131  0.00  0.00    +0.000 OA
ATOM     22  C   UNL     1      -0.044  11.889  19.711  0.00  0.00    +0.000 C 
ATOM     23  N   UNL     1      -0.950  12.615  20.481  0.00  0.00    +0.000 N 
ATOM     24  C   UNL     1      -2.070  12.057  21.271  0.00  0.00    +0.000 C 
ATOM     25  C   UNL     1      -2.153  12.690  22.676  0.00  0.00    +0.000 C 
ATOM     26  N   UNL     1      -2.229  14.142  22.517  0.00  0.00    +0.000 N 
ATOM     27  C   UNL     1      -1.074  14.735  21.817  0.00  0.00    +0.000 C 
ATOM     28  C   UNL     1      -0.930  14.089  20.425  0.00  0.00    +0.000 C 
BRANCH  26  29
ATOM     29  C   UNL     1      -3.031  14.930  23.313  0.00  0.00    +0.000 A 
ATOM     30  C   UNL     1      -4.431  14.909  23.241  0.00  0.00    +0.000 A 
ATOM     31  C   UNL     1      -5.209  15.759  24.034  0.00  0.00    +0.000 A 
ATOM     32  C   UNL     1      -4.590  16.650  24.897  0.00  0.00    +0.000 A 
ATOM     33  F   UNL     1      -5.331  17.473  25.647  0.00  0.00    +0.000 F 
ATOM     34  C   UNL     1      -3.206  16.704  24.986  0.00  0.00    +0.000 A 
ATOM     35  C   UNL     1      -2.439  15.843  24.203  0.00  0.00    +0.000 A 
ENDBRANCH  26  29
ENDBRANCH   1  22
TORSDOF 3
ENDMDL
