MODEL 1
REMARK VINA RESULT:      -7.2      0.000      0.000
REMARK  Name = 
REMARK  6 active torsions:
REMARK  status: ('A' for Active; 'I' for Inactive)
REMARK    1  A    between atoms: C_1  and  C_2
REMARK    2  A    between atoms: C_2  and  O_3
REMARK    3  A    between atoms: O_3  and  C_4
REMARK    4  A    between atoms: C_4  and  C_6
REMARK    5  A    between atoms: C_6  and  S_7
REMARK    6  A    between atoms: S_7  and  C_8
REMARK                            x       y       z     vdW  Elec       q    Type
REMARK                         _______ _______ _______ _____ _____    ______ ____
ROOT
ATOM      1  C   UNL     1       5.476   4.987  19.008  0.00  0.00    +0.000 A 
ATOM      2  N   UNL     1       5.696   3.674  19.160  0.00  0.00    +0.000 NA
ATOM      3  C   UNL     1       4.684   2.948  19.643  0.00  0.00    +0.000 A 
ATOM      4  N   UNL     1       4.948   1.579  19.771  0.00  0.00    +0.000 N 
ATOM      5  C   UNL     1       3.433   3.486  19.962  0.00  0.00    +0.000 A 
ATOM      6  C   UNL     1       2.322   2.742  20.436  0.00  0.00    +0.000 A 
ATOM      7  C   UNL     1       1.109   3.370  20.698  0.00  0.00    +0.000 A 
ATOM      8  C   UNL     1       0.992   4.736  20.483  0.00  0.00    +0.000 A 
ATOM      9  C   UNL     1       2.092   5.468  20.020  0.00  0.00    +0.000 A 
ATOM     10  C   UNL     1       3.316   4.864  19.752  0.00  0.00    +0.000 A 
ATOM     11  N   UNL     1       4.326   5.615  19.298  0.00  0.00    +0.000 NA
ATOM     12  H   UNL     1       5.925   1.440  19.522  0.00  0.00    +0.000 HD
ATOM     13  H   UNL     1       4.750   1.237  20.703  0.00  0.00    +0.000 HD
ENDROOT
BRANCH   1  14
ATOM     14  S   UNL     1       6.801   5.940  18.295  0.00  0.00    +0.000 S 
BRANCH  14  15
ATOM     15  C   UNL     1       7.293   4.820  16.945  0.00  0.00    +0.000 C 
BRANCH  15  16
ATOM     16  C   UNL     1       6.546   5.132  15.666  0.00  0.00    +0.000 C 
ATOM     17  O   UNL     1       5.833   6.109  15.477  0.00  0.00    +0.000 OA
BRANCH  16  18
ATOM     18  O   UNL     1       6.780   4.154  14.741  0.00  0.00    +0.000 OA
BRANCH  18  20
ATOM     19  C   UNL     1       6.338   3.499  12.437  0.00  0.00    +0.000 C 
ATOM     20  C   UNL     1       5.756   3.983  13.751  0.00  0.00    +0.000 C 
ENDBRANCH  18  20
ENDBRANCH  16  18
ENDBRANCH  15  16
ENDBRANCH  14  15
ENDBRANCH   1  14
TORSDOF 5
ENDMDL
MODEL 2
REMARK VINA RESULT:      -7.1      2.058      2.841
REMARK  Name = 
REMARK  6 active torsions:
REMARK  status: ('A' for Active; 'I' for Inactive)
REMARK    1  A    between atoms: C_1  and  C_2
REMARK    2  A    between atoms: C_2  and  O_3
REMARK    3  A    between atoms: O_3  and  C_4
REMARK    4  A    between atoms: C_4  and  C_6
REMARK    5  A    between atoms: C_6  and  S_7
REMARK    6  A    between atoms: S_7  and  C_8
REMARK                            x       y       z     vdW  Elec       q    Type
REMARK                         _______ _______ _______ _____ _____    ______ ____
ROOT
ATOM      1  C   UNL     1       4.194   4.012  16.998  0.00  0.00    +0.000 A 
ATOM      2  N   UNL     1       4.352   2.699  17.219  0.00  0.00    +0.000 NA
ATOM      3  C   UNL     1       3.698   2.183  18.263  0.00  0.00    +0.000 A 
ATOM      4  N   UNL     1       3.876   0.807  18.450  0.00  0.00    +0.000 N 
ATOM      5  C   UNL     1       2.858   2.933  19.094  0.00  0.00    +0.000 A 
ATOM      6  C   UNL     1       2.115   2.414  20.185  0.00  0.00    +0.000 A 
ATOM      7  C   UNL     1       1.285   3.241  20.934  0.00  0.00    +0.000 A 
ATOM      8  C   UNL     1       1.184   4.584  20.599  0.00  0.00    +0.000 A 
ATOM      9  C   UNL     1       1.924   5.095  19.524  0.00  0.00    +0.000 A 
ATOM     10  C   UNL     1       2.761   4.288  18.760  0.00  0.00    +0.000 A 
ATOM     11  N   UNL     1       3.431   4.832  17.738  0.00  0.00    +0.000 NA
ATOM     12  H   UNL     1       4.555   0.498  17.757  0.00  0.00    +0.000 HD
ATOM     13  H   UNL     1       4.178   0.586  19.391  0.00  0.00    +0.000 HD
ENDROOT
BRANCH   1  14
ATOM     14  S   UNL     1       5.006   4.682  15.563  0.00  0.00    +0.000 S 
BRANCH  14  15
ATOM     15  C   UNL     1       6.709   4.113  15.880  0.00  0.00    +0.000 C 
BRANCH  15  16
ATOM     16  C   UNL     1       7.373   4.931  16.966  0.00  0.00    +0.000 C 
ATOM     17  O   UNL     1       7.718   4.513  18.063  0.00  0.00    +0.000 OA
BRANCH  16  18
ATOM     18  O   UNL     1       7.534   6.220  16.543  0.00  0.00    +0.000 OA
BRANCH  18  20
ATOM     19  C   UNL     1       8.077   8.208  17.843  0.00  0.00    +0.000 C 
ATOM     20  C   UNL     1       7.003   7.227  17.416  0.00  0.00    +0.000 C 
ENDBRANCH  18  20
ENDBRANCH  16  18
ENDBRANCH  15  16
ENDBRANCH  14  15
ENDBRANCH   1  14
TORSDOF 5
ENDMDL
MODEL 3
REMARK VINA RESULT:      -7.0      1.054      1.139
REMARK  Name = 
REMARK  6 active torsions:
REMARK  status: ('A' for Active; 'I' for Inactive)
REMARK    1  A    between atoms: C_1  and  C_2
REMARK    2  A    between atoms: C_2  and  O_3
REMARK    3  A    between atoms: O_3  and  C_4
REMARK    4  A    between atoms: C_4  and  C_6
REMARK    5  A    between atoms: C_6  and  S_7
REMARK    6  A    between atoms: S_7  and  C_8
REMARK                            x       y       z     vdW  Elec       q    Type
REMARK                         _______ _______ _______ _____ _____    ______ ____
ROOT
ATOM      1  C   UNL     1       5.065   4.558  18.360  0.00  0.00    +0.000 A 
ATOM      2  N   UNL     1       5.515   3.425  18.914  0.00  0.00    +0.000 NA
ATOM      3  C   UNL     1       4.690   2.802  19.761  0.00  0.00    +0.000 A 
ATOM      4  N   UNL     1       5.190   1.613  20.307  0.00  0.00    +0.000 N 
ATOM      5  C   UNL     1       3.403   3.261  20.060  0.00  0.00    +0.000 A 
ATOM      6  C   UNL     1       2.483   2.606  20.919  0.00  0.00    +0.000 A 
ATOM      7  C   UNL     1       1.213   3.132  21.130  0.00  0.00    +0.000 A 
ATOM      8  C   UNL     1       0.848   4.305  20.483  0.00  0.00    +0.000 A 
ATOM      9  C   UNL     1       1.761   4.952  19.640  0.00  0.00    +0.000 A 
ATOM     10  C   UNL     1       3.038   4.446  19.414  0.00  0.00    +0.000 A 
ATOM     11  N   UNL     1       3.859   5.102  18.587  0.00  0.00    +0.000 NA
ATOM     12  H   UNL     1       6.149   1.515  19.977  0.00  0.00    +0.000 HD
ATOM     13  H   UNL     1       5.142   1.607  21.318  0.00  0.00    +0.000 HD
ENDROOT
BRANCH   1  14
ATOM     14  S   UNL     1       6.136   5.347  17.176  0.00  0.00    +0.000 S 
BRANCH  14  15
ATOM     15  C   UNL     1       5.355   4.780  15.630  0.00  0.00    +0.000 C 
BRANCH  15  16
ATOM     16  C   UNL     1       6.371   4.635  14.517  0.00  0.00    +0.000 C 
ATOM     17  O   UNL     1       7.232   5.456  14.227  0.00  0.00    +0.000 OA
BRANCH  16  18
ATOM     18  O   UNL     1       6.186   3.445  13.872  0.00  0.00    +0.000 OA
BRANCH  18  20
ATOM     19  C   UNL     1       4.926   3.304  11.792  0.00  0.00    +0.000 C 
ATOM     20  C   UNL     1       6.282   3.498  12.442  0.00  0.00    +0.000 C 
ENDBRANCH  18  20
ENDBRANCH  16  18
ENDBRANCH  15  16
ENDBRANCH  14  15
ENDBRANCH   1  14
TORSDOF 5
ENDMDL
MODEL 4
REMARK VINA RESULT:      -7.0      2.234      3.636
REMARK  Name = 
REMARK  6 active torsions:
REMARK  status: ('A' for Active; 'I' for Inactive)
REMARK    1  A    between atoms: C_1  and  C_2
REMARK    2  A    between atoms: C_2  and  O_3
REMARK    3  A    between atoms: O_3  and  C_4
REMARK    4  A    between atoms: C_4  and  C_6
REMARK    5  A    between atoms: C_6  and  S_7
REMARK    6  A    between atoms: S_7  and  C_8
REMARK                            x       y       z     vdW  Elec       q    Type
REMARK                         _______ _______ _______ _____ _____    ______ ____
ROOT
ATOM      1  C   UNL     1       4.014   5.298  17.199  0.00  0.00    +0.000 A 
ATOM      2  N   UNL     1       3.593   6.393  17.847  0.00  0.00    +0.000 NA
ATOM      3  C   UNL     1       2.751   6.201  18.866  0.00  0.00    +0.000 A 
ATOM      4  N   UNL     1       2.347   7.367  19.526  0.00  0.00    +0.000 N 
ATOM      5  C   UNL     1       2.326   4.936  19.286  0.00  0.00    +0.000 A 
ATOM      6  C   UNL     1       1.467   4.689  20.388  0.00  0.00    +0.000 A 
ATOM      7  C   UNL     1       1.126   3.387  20.742  0.00  0.00    +0.000 A 
ATOM      8  C   UNL     1       1.641   2.327  20.009  0.00  0.00    +0.000 A 
ATOM      9  C   UNL     1       2.483   2.576  18.918  0.00  0.00    +0.000 A 
ATOM     10  C   UNL     1       2.839   3.868  18.544  0.00  0.00    +0.000 A 
ATOM     11  N   UNL     1       3.659   4.039  17.500  0.00  0.00    +0.000 NA
ATOM     12  H   UNL     1       2.748   8.151  19.016  0.00  0.00    +0.000 HD
ATOM     13  H   UNL     1       1.339   7.441  19.590  0.00  0.00    +0.000 HD
ENDROOT
BRANCH   1  14
ATOM     14  S   UNL     1       5.193   5.550  15.889  0.00  0.00    +0.000 S 
BRANCH  14  15
ATOM     15  C   UNL     1       6.462   4.337  16.380  0.00  0.00    +0.000 C 
BRANCH  15  16
ATOM     16  C   UNL     1       7.454   4.936  17.354  0.00  0.00    +0.000 C 
ATOM     17  O   UNL     1       8.002   4.338  18.271  0.00  0.00    +0.000 OA
BRANCH  16  18
ATOM     18  O   UNL     1       7.652   6.255  17.062  0.00  0.00    +0.000 OA
BRANCH  18  20
ATOM     19  C   UNL     1       7.991   8.563  17.764  0.00  0.00    +0.000 C 
ATOM     20  C   UNL     1       7.813   7.120  18.195  0.00  0.00    +0.000 C 
ENDBRANCH  18  20
ENDBRANCH  16  18
ENDBRANCH  15  16
ENDBRANCH  14  15
ENDBRANCH   1  14
TORSDOF 5
ENDMDL
MODEL 5
REMARK VINA RESULT:      -7.0      1.955      2.730
REMARK  Name = 
REMARK  6 active torsions:
REMARK  status: ('A' for Active; 'I' for Inactive)
REMARK    1  A    between atoms: C_1  and  C_2
REMARK    2  A    between atoms: C_2  and  O_3
REMARK    3  A    between atoms: O_3  and  C_4
REMARK    4  A    between atoms: C_4  and  C_6
REMARK    5  A    between atoms: C_6  and  S_7
REMARK    6  A    between atoms: S_7  and  C_8
REMARK                            x       y       z     vdW  Elec       q    Type
REMARK                         _______ _______ _______ _____ _____    ______ ____
ROOT
ATOM      1  C   UNL     1       3.696   6.177  17.812  0.00  0.00    +0.000 A 
ATOM      2  N   UNL     1       3.257   6.834  18.894  0.00  0.00    +0.000 NA
ATOM      3  C   UNL     1       2.393   6.185  19.680  0.00  0.00    +0.000 A 
ATOM      4  N   UNL     1       1.970   6.898  20.808  0.00  0.00    +0.000 N 
ATOM      5  C   UNL     1       1.962   4.877  19.436  0.00  0.00    +0.000 A 
ATOM      6  C   UNL     1       1.079   4.141  20.267  0.00  0.00    +0.000 A 
ATOM      7  C   UNL     1       0.733   2.832  19.950  0.00  0.00    +0.000 A 
ATOM      8  C   UNL     1       1.268   2.246  18.811  0.00  0.00    +0.000 A 
ATOM      9  C   UNL     1       2.135   2.978  17.989  0.00  0.00    +0.000 A 
ATOM     10  C   UNL     1       2.495   4.289  18.285  0.00  0.00    +0.000 A 
ATOM     11  N   UNL     1       3.338   4.930  17.468  0.00  0.00    +0.000 NA
ATOM     12  H   UNL     1       2.381   7.828  20.743  0.00  0.00    +0.000 HD
ATOM     13  H   UNL     1       0.961   6.941  20.878  0.00  0.00    +0.000 HD
ENDROOT
BRANCH   1  14
ATOM     14  S   UNL     1       4.905   7.015  16.807  0.00  0.00    +0.000 S 
BRANCH  14  15
ATOM     15  C   UNL     1       6.414   6.159  17.366  0.00  0.00    +0.000 C 
BRANCH  15  16
ATOM     16  C   UNL     1       6.966   5.249  16.290  0.00  0.00    +0.000 C 
ATOM     17  O   UNL     1       7.864   4.430  16.440  0.00  0.00    +0.000 OA
BRANCH  16  18
ATOM     18  O   UNL     1       6.314   5.477  15.111  0.00  0.00    +0.000 OA
BRANCH  18  20
ATOM     19  C   UNL     1       6.338   3.866  13.283  0.00  0.00    +0.000 C 
ATOM     20  C   UNL     1       5.646   4.340  14.547  0.00  0.00    +0.000 C 
ENDBRANCH  18  20
ENDBRANCH  16  18
ENDBRANCH  15  16
ENDBRANCH  14  15
ENDBRANCH   1  14
TORSDOF 5
ENDMDL
MODEL 6
REMARK VINA RESULT:      -6.9      1.371      1.418
REMARK  Name = 
REMARK  6 active torsions:
REMARK  status: ('A' for Active; 'I' for Inactive)
REMARK    1  A    between atoms: C_1  and  C_2
REMARK    2  A    between atoms: C_2  and  O_3
REMARK    3  A    between atoms: O_3  and  C_4
REMARK    4  A    between atoms: C_4  and  C_6
REMARK    5  A    between atoms: C_6  and  S_7
REMARK    6  A    between atoms: S_7  and  C_8
REMARK                            x       y       z     vdW  Elec       q    Type
REMARK                         _______ _______ _______ _____ _____    ______ ____
ROOT
ATOM      1  C   UNL     1       4.758   5.053  17.824  0.00  0.00    +0.000 A 
ATOM      2  N   UNL     1       4.853   3.743  17.557  0.00  0.00    +0.000 NA
ATOM      3  C   UNL     1       3.985   2.939  18.177  0.00  0.00    +0.000 A 
ATOM      4  N   UNL     1       4.106   1.581  17.860  0.00  0.00    +0.000 N 
ATOM      5  C   UNL     1       2.993   3.402  19.049  0.00  0.00    +0.000 A 
ATOM      6  C   UNL     1       2.028   2.586  19.693  0.00  0.00    +0.000 A 
ATOM      7  C   UNL     1       1.063   3.150  20.521  0.00  0.00    +0.000 A 
ATOM      8  C   UNL     1       1.048   4.525  20.707  0.00  0.00    +0.000 A 
ATOM      9  C   UNL     1       2.007   5.327  20.074  0.00  0.00    +0.000 A 
ATOM     10  C   UNL     1       2.982   4.787  19.241  0.00  0.00    +0.000 A 
ATOM     11  N   UNL     1       3.861   5.607  18.655  0.00  0.00    +0.000 NA
ATOM     12  H   UNL     1       4.916   1.490  17.249  0.00  0.00    +0.000 HD
ATOM     13  H   UNL     1       4.197   1.002  18.686  0.00  0.00    +0.000 HD
ENDROOT
BRANCH   1  14
ATOM     14  S   UNL     1       5.867   6.129  16.940  0.00  0.00    +0.000 S 
BRANCH  14  15
ATOM     15  C   UNL     1       5.448   5.663  15.229  0.00  0.00    +0.000 C 
BRANCH  15  16
ATOM     16  C   UNL     1       6.598   4.947  14.552  0.00  0.00    +0.000 C 
ATOM     17  O   UNL     1       7.761   5.328  14.532  0.00  0.00    +0.000 OA
BRANCH  16  18
ATOM     18  O   UNL     1       6.147   3.803  13.958  0.00  0.00    +0.000 OA
BRANCH  18  20
ATOM     19  C   UNL     1       5.508   2.755  11.854  0.00  0.00    +0.000 C 
ATOM     20  C   UNL     1       6.501   3.644  12.578  0.00  0.00    +0.000 C 
ENDBRANCH  18  20
ENDBRANCH  16  18
ENDBRANCH  15  16
ENDBRANCH  14  15
ENDBRANCH   1  14
TORSDOF 5
ENDMDL
MODEL 7
REMARK VINA RESULT:      -6.9      3.040      5.597
REMARK  Name = 
REMARK  6 active torsions:
REMARK  status: ('A' for Active; 'I' for Inactive)
REMARK    1  A    between atoms: C_1  and  C_2
REMARK    2  A    between atoms: C_2  and  O_3
REMARK    3  A    between atoms: O_3  and  C_4
REMARK    4  A    between atoms: C_4  and  C_6
REMARK    5  A    between atoms: C_6  and  S_7
REMARK    6  A    between atoms: S_7  and  C_8
REMARK                            x       y       z     vdW  Elec       q    Type
REMARK                         _______ _______ _______ _____ _____    ______ ____
ROOT
ATOM      1  C   UNL     1       3.830   5.434  19.026  0.00  0.00    +0.000 A 
ATOM      2  N   UNL     1       4.994   5.478  19.688  0.00  0.00    +0.000 NA
ATOM      3  C   UNL     1       6.096   5.204  18.985  0.00  0.00    +0.000 A 
ATOM      4  N   UNL     1       7.292   5.276  19.708  0.00  0.00    +0.000 N 
ATOM      5  C   UNL     1       6.083   4.908  17.617  0.00  0.00    +0.000 A 
ATOM      6  C   UNL     1       7.234   4.653  16.828  0.00  0.00    +0.000 A 
ATOM      7  C   UNL     1       7.115   4.395  15.466  0.00  0.00    +0.000 A 
ATOM      8  C   UNL     1       5.856   4.396  14.882  0.00  0.00    +0.000 A 
ATOM      9  C   UNL     1       4.722   4.642  15.666  0.00  0.00    +0.000 A 
ATOM     10  C   UNL     1       4.814   4.902  17.030  0.00  0.00    +0.000 A 
ATOM     11  N   UNL     1       3.695   5.143  17.722  0.00  0.00    +0.000 NA
ATOM     12  H   UNL     1       7.042   5.463  20.677  0.00  0.00    +0.000 HD
ATOM     13  H   UNL     1       7.843   4.431  19.622  0.00  0.00    +0.000 HD
ENDROOT
BRANCH   1  14
ATOM     14  S   UNL     1       2.371   5.873  19.947  0.00  0.00    +0.000 S 
BRANCH  14  15
ATOM     15  C   UNL     1       1.552   4.246  20.018  0.00  0.00    +0.000 C 
BRANCH  15  16
ATOM     16  C   UNL     1       2.249   3.317  20.989  0.00  0.00    +0.000 C 
ATOM     17  O   UNL     1       2.177   3.378  22.210  0.00  0.00    +0.000 OA
BRANCH  16  18
ATOM     18  O   UNL     1       2.980   2.390  20.302  0.00  0.00    +0.000 OA
BRANCH  18  20
ATOM     19  C   UNL     1       3.523   1.605  18.061  0.00  0.00    +0.000 C 
ATOM     20  C   UNL     1       2.430   1.983  19.041  0.00  0.00    +0.000 C 
ENDBRANCH  18  20
ENDBRANCH  16  18
ENDBRANCH  15  16
ENDBRANCH  14  15
ENDBRANCH   1  14
TORSDOF 5
ENDMDL
MODEL 8
REMARK VINA RESULT:      -6.9      2.647      4.114
REMARK  Name = 
REMARK  6 active torsions:
REMARK  status: ('A' for Active; 'I' for Inactive)
REMARK    1  A    between atoms: C_1  and  C_2
REMARK    2  A    between atoms: C_2  and  O_3
REMARK    3  A    between atoms: O_3  and  C_4
REMARK    4  A    between atoms: C_4  and  C_6
REMARK    5  A    between atoms: C_6  and  S_7
REMARK    6  A    between atoms: S_7  and  C_8
REMARK                            x       y       z     vdW  Elec       q    Type
REMARK                         _______ _______ _______ _____ _____    ______ ____
ROOT
ATOM      1  C   UNL     1       5.460   4.678  18.437  0.00  0.00    +0.000 A 
ATOM      2  N   UNL     1       4.677   5.713  18.104  0.00  0.00    +0.000 NA
ATOM      3  C   UNL     1       3.430   5.702  18.582  0.00  0.00    +0.000 A 
ATOM      4  N   UNL     1       2.649   6.808  18.226  0.00  0.00    +0.000 N 
ATOM      5  C   UNL     1       2.933   4.692  19.414  0.00  0.00    +0.000 A 
ATOM      6  C   UNL     1       1.631   4.665  19.976  0.00  0.00    +0.000 A 
ATOM      7  C   UNL     1       1.243   3.627  20.816  0.00  0.00    +0.000 A 
ATOM      8  C   UNL     1       2.148   2.616  21.108  0.00  0.00    +0.000 A 
ATOM      9  C   UNL     1       3.431   2.643  20.547  0.00  0.00    +0.000 A 
ATOM     10  C   UNL     1       3.843   3.670  19.703  0.00  0.00    +0.000 A 
ATOM     11  N   UNL     1       5.086   3.646  19.210  0.00  0.00    +0.000 NA
ATOM     12  H   UNL     1       3.209   7.373  17.590  0.00  0.00    +0.000 HD
ATOM     13  H   UNL     1       1.770   6.535  17.805  0.00  0.00    +0.000 HD
ENDROOT
BRANCH   1  14
ATOM     14  S   UNL     1       7.143   4.733  17.859  0.00  0.00    +0.000 S 
BRANCH  14  15
ATOM     15  C   UNL     1       7.762   6.130  18.851  0.00  0.00    +0.000 C 
BRANCH  15  16
ATOM     16  C   UNL     1       7.910   7.382  18.014  0.00  0.00    +0.000 C 
ATOM     17  O   UNL     1       7.498   7.527  16.870  0.00  0.00    +0.000 OA
BRANCH  16  18
ATOM     18  O   UNL     1       8.578   8.340  18.723  0.00  0.00    +0.000 OA
BRANCH  18  20
ATOM     19  C   UNL     1       9.506  10.591  18.804  0.00  0.00    +0.000 C 
ATOM     20  C   UNL     1       8.433   9.681  18.237  0.00  0.00    +0.000 C 
ENDBRANCH  18  20
ENDBRANCH  16  18
ENDBRANCH  15  16
ENDBRANCH  14  15
ENDBRANCH   1  14
TORSDOF 5
ENDMDL
MODEL 9
REMARK VINA RESULT:      -6.9      1.919      2.663
REMARK  Name = 
REMARK  6 active torsions:
REMARK  status: ('A' for Active; 'I' for Inactive)
REMARK    1  A    between atoms: C_1  and  C_2
REMARK    2  A    between atoms: C_2  and  O_3
REMARK    3  A    between atoms: O_3  and  C_4
REMARK    4  A    between atoms: C_4  and  C_6
REMARK    5  A    between atoms: C_6  and  S_7
REMARK    6  A    between atoms: S_7  and  C_8
REMARK                            x       y       z     vdW  Elec       q    Type
REMARK                         _______ _______ _______ _____ _____    ______ ____
ROOT
ATOM      1  C   UNL     1       4.174   5.561  17.417  0.00  0.00    +0.000 A 
ATOM      2  N   UNL     1       3.749   6.418  18.355  0.00  0.00    +0.000 NA
ATOM      3  C   UNL     1       2.769   5.993  19.156  0.00  0.00    +0.000 A 
ATOM      4  N   UNL     1       2.363   6.911  20.133  0.00  0.00    +0.000 N 
ATOM      5  C   UNL     1       2.204   4.715  19.073  0.00  0.00    +0.000 A 
ATOM      6  C   UNL     1       1.193   4.213  19.931  0.00  0.00    +0.000 A 
ATOM      7  C   UNL     1       0.717   2.914  19.781  0.00  0.00    +0.000 A 
ATOM      8  C   UNL     1       1.249   2.108  18.784  0.00  0.00    +0.000 A 
ATOM      9  C   UNL     1       2.243   2.610  17.935  0.00  0.00    +0.000 A 
ATOM     10  C   UNL     1       2.735   3.905  18.064  0.00  0.00    +0.000 A 
ATOM     11  N   UNL     1       3.695   4.321  17.231  0.00  0.00    +0.000 NA
ATOM     12  H   UNL     1       2.883   7.771  19.966  0.00  0.00    +0.000 HD
ATOM     13  H   UNL     1       1.364   7.070  20.116  0.00  0.00    +0.000 HD
ENDROOT
BRANCH   1  14
ATOM     14  S   UNL     1       5.531   6.102  16.398  0.00  0.00    +0.000 S 
BRANCH  14  15
ATOM     15  C   UNL     1       6.190   4.484  15.880  0.00  0.00    +0.000 C 
BRANCH  15  16
ATOM     16  C   UNL     1       6.692   4.521  14.452  0.00  0.00    +0.000 C 
ATOM     17  O   UNL     1       7.413   5.387  13.973  0.00  0.00    +0.000 OA
BRANCH  16  18
ATOM     18  O   UNL     1       6.217   3.440  13.765  0.00  0.00    +0.000 OA
BRANCH  18  20
ATOM     19  C   UNL     1       5.772   2.324  11.646  0.00  0.00    +0.000 C 
ATOM     20  C   UNL     1       6.031   3.638  12.356  0.00  0.00    +0.000 C 
ENDBRANCH  18  20
ENDBRANCH  16  18
ENDBRANCH  15  16
ENDBRANCH  14  15
ENDBRANCH   1  14
TORSDOF 5
ENDMDL
