MODEL 1
REMARK VINA RESULT:      -6.6      0.000      0.000
REMARK  Name = 
REMARK  7 active torsions:
REMARK  status: ('A' for Active; 'I' for Inactive)
REMARK    1  A    between atoms: C_1  and  C_2
REMARK    2  A    between atoms: C_5  and  C_6
REMARK    3  A    between atoms: N_8  and  C_9
REMARK    4  A    between atoms: C_16  and  N_17
REMARK    5  A    between atoms: N_18  and  N_19
REMARK    6  A    between atoms: N_19  and  C_20
REMARK    7  A    between atoms: N_19  and  C_21
REMARK                            x       y       z     vdW  Elec       q    Type
REMARK                         _______ _______ _______ _____ _____    ______ ____
ROOT
ATOM      1  C   UNL     1      -0.052  10.153  21.840  0.00  0.00    +0.000 C 
ATOM      2  C   UNL     1       0.699   9.350  20.809  0.00  0.00    +0.000 A 
ATOM      3  C   UNL     1       1.184   8.086  21.196  0.00  0.00    +0.000 A 
ATOM      4  C   UNL     1       1.907   7.293  20.308  0.00  0.00    +0.000 A 
ATOM      5  C   UNL     1       2.151   7.728  19.004  0.00  0.00    +0.000 A 
ATOM      6  C   UNL     1       1.683   8.995  18.612  0.00  0.00    +0.000 A 
ATOM      7  C   UNL     1       0.951   9.820  19.496  0.00  0.00    +0.000 A 
ENDROOT
BRANCH   5   8
ATOM      8  C   UNL     1       2.973   6.846  18.129  0.00  0.00    +0.000 C 
ATOM      9  O   UNL     1       3.823   7.340  17.389  0.00  0.00    +0.000 OA
ATOM     10  N   UNL     1       2.761   5.482  18.223  0.00  0.00    +0.000 N 
ATOM     11  H   UNL     1       2.227   5.145  19.011  0.00  0.00    +0.000 HD
BRANCH  10  12
ATOM     12  C   UNL     1       3.590   4.522  17.491  0.00  0.00    +0.000 C 
ATOM     13  C   UNL     1       4.783   4.039  18.329  0.00  0.00    +0.000 C 
ATOM     14  C   UNL     1       4.353   3.158  19.503  0.00  0.00    +0.000 C 
ATOM     15  C   UNL     1       3.459   1.999  19.062  0.00  0.00    +0.000 C 
ATOM     16  C   UNL     1       2.288   2.462  18.199  0.00  0.00    +0.000 C 
ATOM     17  C   UNL     1       2.763   3.317  17.026  0.00  0.00    +0.000 C 
ENDBRANCH  10  12
ENDBRANCH   5   8
BRANCH   7  18
ATOM     18  N   UNL     1       0.614  11.117  19.028  0.00  0.00    +0.000 NA
ATOM     19  N   UNL     1       1.584  11.899  19.032  0.00  0.00    +0.000 NA
BRANCH  19  20
ATOM     20  N   UNL     1       1.321  13.130  18.500  0.00  0.00    +0.000 N 
ATOM     21  C   UNL     1       0.010  13.752  18.495  0.00  0.00    +0.000 C 
ATOM     22  C   UNL     1       2.468  13.953  18.170  0.00  0.00    +0.000 C 
ENDBRANCH  19  20
ENDBRANCH   7  18
TORSDOF 4
ENDMDL
MODEL 2
REMARK VINA RESULT:      -6.5      5.239      8.317
REMARK  Name = 
REMARK  7 active torsions:
REMARK  status: ('A' for Active; 'I' for Inactive)
REMARK    1  A    between atoms: C_1  and  C_2
REMARK    2  A    between atoms: C_5  and  C_6
REMARK    3  A    between atoms: N_8  and  C_9
REMARK    4  A    between atoms: C_16  and  N_17
REMARK    5  A    between atoms: N_18  and  N_19
REMARK    6  A    between atoms: N_19  and  C_20
REMARK    7  A    between atoms: N_19  and  C_21
REMARK                            x       y       z     vdW  Elec       q    Type
REMARK                         _______ _______ _______ _____ _____    ______ ____
ROOT
ATOM      1  C   UNL     1       8.001   5.435  13.031  0.00  0.00    +0.000 C 
ATOM      2  C   UNL     1       7.269   5.106  14.307  0.00  0.00    +0.000 A 
ATOM      3  C   UNL     1       7.593   5.854  15.454  0.00  0.00    +0.000 A 
ATOM      4  C   UNL     1       6.978   5.595  16.677  0.00  0.00    +0.000 A 
ATOM      5  C   UNL     1       6.009   4.596  16.786  0.00  0.00    +0.000 A 
ATOM      6  C   UNL     1       5.689   3.832  15.650  0.00  0.00    +0.000 A 
ATOM      7  C   UNL     1       6.303   4.073  14.400  0.00  0.00    +0.000 A 
ENDROOT
BRANCH   5   8
ATOM      8  C   UNL     1       5.432   4.345  18.138  0.00  0.00    +0.000 C 
ATOM      9  O   UNL     1       6.171   4.300  19.120  0.00  0.00    +0.000 OA
ATOM     10  N   UNL     1       4.058   4.211  18.226  0.00  0.00    +0.000 N 
ATOM     11  H   UNL     1       3.508   4.493  17.427  0.00  0.00    +0.000 HD
BRANCH  10  12
ATOM     12  C   UNL     1       3.379   4.072  19.517  0.00  0.00    +0.000 C 
ATOM     13  C   UNL     1       1.962   4.664  19.485  0.00  0.00    +0.000 C 
ATOM     14  C   UNL     1       1.009   3.850  18.609  0.00  0.00    +0.000 C 
ATOM     15  C   UNL     1       1.000   2.368  18.984  0.00  0.00    +0.000 C 
ATOM     16  C   UNL     1       2.405   1.775  19.052  0.00  0.00    +0.000 C 
ATOM     17  C   UNL     1       3.317   2.604  19.956  0.00  0.00    +0.000 C 
ENDBRANCH  10  12
ENDBRANCH   5   8
BRANCH   7  18
ATOM     18  N   UNL     1       5.977   3.180  13.346  0.00  0.00    +0.000 NA
ATOM     19  N   UNL     1       5.105   3.633  12.580  0.00  0.00    +0.000 NA
BRANCH  19  20
ATOM     20  N   UNL     1       4.832   2.842  11.500  0.00  0.00    +0.000 N 
ATOM     21  C   UNL     1       5.576   1.643  11.160  0.00  0.00    +0.000 C 
ATOM     22  C   UNL     1       3.570   3.076  10.827  0.00  0.00    +0.000 C 
ENDBRANCH  19  20
ENDBRANCH   7  18
TORSDOF 4
ENDMDL
MODEL 3
REMARK VINA RESULT:      -6.5      2.115      3.410
REMARK  Name = 
REMARK  7 active torsions:
REMARK  status: ('A' for Active; 'I' for Inactive)
REMARK    1  A    between atoms: C_1  and  C_2
REMARK    2  A    between atoms: C_5  and  C_6
REMARK    3  A    between atoms: N_8  and  C_9
REMARK    4  A    between atoms: C_16  and  N_17
REMARK    5  A    between atoms: N_18  and  N_19
REMARK    6  A    between atoms: N_19  and  C_20
REMARK    7  A    between atoms: N_19  and  C_21
REMARK                            x       y       z     vdW  Elec       q    Type
REMARK                         _______ _______ _______ _____ _____    ______ ____
ROOT
ATOM      1  C   UNL     1       0.234  11.125  18.448  0.00  0.00    +0.000 C 
ATOM      2  C   UNL     1       0.935   9.853  18.851  0.00  0.00    +0.000 A 
ATOM      3  C   UNL     1       1.695   9.191  17.868  0.00  0.00    +0.000 A 
ATOM      4  C   UNL     1       2.354   7.997  18.154  0.00  0.00    +0.000 A 
ATOM      5  C   UNL     1       2.289   7.440  19.433  0.00  0.00    +0.000 A 
ATOM      6  C   UNL     1       1.520   8.085  20.418  0.00  0.00    +0.000 A 
ATOM      7  C   UNL     1       0.839   9.295  20.149  0.00  0.00    +0.000 A 
ENDROOT
BRANCH   5   8
ATOM      8  C   UNL     1       2.979   6.136  19.649  0.00  0.00    +0.000 C 
ATOM      9  O   UNL     1       2.485   5.302  20.406  0.00  0.00    +0.000 OA
ATOM     10  N   UNL     1       4.145   5.910  18.940  0.00  0.00    +0.000 N 
ATOM     11  H   UNL     1       4.354   6.532  18.172  0.00  0.00    +0.000 HD
BRANCH  10  12
ATOM     12  C   UNL     1       4.841   4.622  18.994  0.00  0.00    +0.000 C 
ATOM     13  C   UNL     1       4.239   3.605  18.014  0.00  0.00    +0.000 C 
ATOM     14  C   UNL     1       4.503   3.974  16.554  0.00  0.00    +0.000 C 
ATOM     15  C   UNL     1       5.986   4.224  16.278  0.00  0.00    +0.000 C 
ATOM     16  C   UNL     1       6.605   5.209  17.267  0.00  0.00    +0.000 C 
ATOM     17  C   UNL     1       6.340   4.790  18.711  0.00  0.00    +0.000 C 
ENDBRANCH  10  12
ENDBRANCH   5   8
BRANCH   7  18
ATOM     18  N   UNL     1       0.015   9.806  21.186  0.00  0.00    +0.000 NA
ATOM     19  N   UNL     1       0.354  10.947  21.554  0.00  0.00    +0.000 NA
BRANCH  19  20
ATOM     20  N   UNL     1      -0.472  11.511  22.485  0.00  0.00    +0.000 N 
ATOM     21  C   UNL     1      -0.807  12.923  22.527  0.00  0.00    +0.000 C 
ATOM     22  C   UNL     1      -1.253  10.600  23.298  0.00  0.00    +0.000 C 
ENDBRANCH  19  20
ENDBRANCH   7  18
TORSDOF 4
ENDMDL
MODEL 4
REMARK VINA RESULT:      -6.4      1.440      2.044
REMARK  Name = 
REMARK  7 active torsions:
REMARK  status: ('A' for Active; 'I' for Inactive)
REMARK    1  A    between atoms: C_1  and  C_2
REMARK    2  A    between atoms: C_5  and  C_6
REMARK    3  A    between atoms: N_8  and  C_9
REMARK    4  A    between atoms: C_16  and  N_17
REMARK    5  A    between atoms: N_18  and  N_19
REMARK    6  A    between atoms: N_19  and  C_20
REMARK    7  A    between atoms: N_19  and  C_21
REMARK                            x       y       z     vdW  Elec       q    Type
REMARK                         _______ _______ _______ _____ _____    ______ ____
ROOT
ATOM      1  C   UNL     1      -0.806  11.394  22.463  0.00  0.00    +0.000 C 
ATOM      2  C   UNL     1      -0.047  10.335  21.704  0.00  0.00    +0.000 A 
ATOM      3  C   UNL     1       0.237   9.131  22.376  0.00  0.00    +0.000 A 
ATOM      4  C   UNL     1       0.954   8.113  21.752  0.00  0.00    +0.000 A 
ATOM      5  C   UNL     1       1.391   8.259  20.434  0.00  0.00    +0.000 A 
ATOM      6  C   UNL     1       1.126   9.463  19.758  0.00  0.00    +0.000 A 
ATOM      7  C   UNL     1       0.405  10.512  20.373  0.00  0.00    +0.000 A 
ENDROOT
BRANCH   5   8
ATOM      8  C   UNL     1       2.195   7.147  19.851  0.00  0.00    +0.000 C 
ATOM      9  O   UNL     1       2.975   7.375  18.928  0.00  0.00    +0.000 OA
ATOM     10  N   UNL     1       2.047   5.893  20.417  0.00  0.00    +0.000 N 
ATOM     11  H   UNL     1       1.577   5.834  21.309  0.00  0.00    +0.000 HD
BRANCH  10  12
ATOM     12  C   UNL     1       2.869   4.756  19.994  0.00  0.00    +0.000 C 
ATOM     13  C   UNL     1       2.595   3.505  20.841  0.00  0.00    +0.000 C 
ATOM     14  C   UNL     1       1.204   2.921  20.588  0.00  0.00    +0.000 C 
ATOM     15  C   UNL     1       0.942   2.673  19.102  0.00  0.00    +0.000 C 
ATOM     16  C   UNL     1       1.243   3.898  18.244  0.00  0.00    +0.000 C 
ATOM     17  C   UNL     1       2.648   4.434  18.510  0.00  0.00    +0.000 C 
ENDBRANCH  10  12
ENDBRANCH   5   8
BRANCH   7  18
ATOM     18  N   UNL     1       0.280  11.718  19.635  0.00  0.00    +0.000 NA
ATOM     19  N   UNL     1       1.298  12.433  19.701  0.00  0.00    +0.000 NA
BRANCH  19  20
ATOM     20  N   UNL     1       1.253  13.559  18.928  0.00  0.00    +0.000 N 
ATOM     21  C   UNL     1       2.394  14.105  18.217  0.00  0.00    +0.000 C 
ATOM     22  C   UNL     1      -0.064  14.067  18.598  0.00  0.00    +0.000 C 
ENDBRANCH  19  20
ENDBRANCH   7  18
TORSDOF 4
ENDMDL
MODEL 5
REMARK VINA RESULT:      -6.3      2.066      8.067
REMARK  Name = 
REMARK  7 active torsions:
REMARK  status: ('A' for Active; 'I' for Inactive)
REMARK    1  A    between atoms: C_1  and  C_2
REMARK    2  A    between atoms: C_5  and  C_6
REMARK    3  A    between atoms: N_8  and  C_9
REMARK    4  A    between atoms: C_16  and  N_17
REMARK    5  A    between atoms: N_18  and  N_19
REMARK    6  A    between atoms: N_19  and  C_20
REMARK    7  A    between atoms: N_19  and  C_21
REMARK                            x       y       z     vdW  Elec       q    Type
REMARK                         _______ _______ _______ _____ _____    ______ ____
ROOT
ATOM      1  C   UNL     1       4.311   5.797  17.098  0.00  0.00    +0.000 C 
ATOM      2  C   UNL     1       3.410   6.616  17.986  0.00  0.00    +0.000 A 
ATOM      3  C   UNL     1       2.970   7.861  17.495  0.00  0.00    +0.000 A 
ATOM      4  C   UNL     1       2.154   8.687  18.264  0.00  0.00    +0.000 A 
ATOM      5  C   UNL     1       1.738   8.289  19.536  0.00  0.00    +0.000 A 
ATOM      6  C   UNL     1       2.183   7.054  20.042  0.00  0.00    +0.000 A 
ATOM      7  C   UNL     1       3.015   6.201  19.282  0.00  0.00    +0.000 A 
ENDROOT
BRANCH   5   8
ATOM      8  C   UNL     1       0.907   9.248  20.317  0.00  0.00    +0.000 C 
ATOM      9  O   UNL     1       0.839   9.142  21.541  0.00  0.00    +0.000 OA
ATOM     10  N   UNL     1       0.271  10.256  19.615  0.00  0.00    +0.000 N 
ATOM     11  H   UNL     1       0.562  10.418  18.661  0.00  0.00    +0.000 HD
BRANCH  10  12
ATOM     12  C   UNL     1      -0.479  11.314  20.296  0.00  0.00    +0.000 C 
ATOM     13  C   UNL     1       0.408  12.525  20.621  0.00  0.00    +0.000 C 
ATOM     14  C   UNL     1       0.839  13.287  19.367  0.00  0.00    +0.000 C 
ATOM     15  C   UNL     1      -0.349  13.670  18.485  0.00  0.00    +0.000 C 
ATOM     16  C   UNL     1      -1.258  12.482  18.181  0.00  0.00    +0.000 C 
ATOM     17  C   UNL     1      -1.684  11.765  19.461  0.00  0.00    +0.000 C 
ENDBRANCH  10  12
ENDBRANCH   5   8
BRANCH   7  18
ATOM     18  N   UNL     1       3.484   5.027  19.927  0.00  0.00    +0.000 NA
ATOM     19  N   UNL     1       2.669   4.087  19.872  0.00  0.00    +0.000 NA
BRANCH  19  20
ATOM     20  N   UNL     1       3.122   2.911  20.401  0.00  0.00    +0.000 N 
ATOM     21  C   UNL     1       4.332   2.237  19.968  0.00  0.00    +0.000 C 
ATOM     22  C   UNL     1       2.497   2.469  21.632  0.00  0.00    +0.000 C 
ENDBRANCH  19  20
ENDBRANCH   7  18
TORSDOF 4
ENDMDL
MODEL 6
REMARK VINA RESULT:      -6.3      0.951      1.086
REMARK  Name = 
REMARK  7 active torsions:
REMARK  status: ('A' for Active; 'I' for Inactive)
REMARK    1  A    between atoms: C_1  and  C_2
REMARK    2  A    between atoms: C_5  and  C_6
REMARK    3  A    between atoms: N_8  and  C_9
REMARK    4  A    between atoms: C_16  and  N_17
REMARK    5  A    between atoms: N_18  and  N_19
REMARK    6  A    between atoms: N_19  and  C_20
REMARK    7  A    between atoms: N_19  and  C_21
REMARK                            x       y       z     vdW  Elec       q    Type
REMARK                         _______ _______ _______ _____ _____    ______ ____
ROOT
ATOM      1  C   UNL     1      -0.511  10.743  22.549  0.00  0.00    +0.000 C 
ATOM      2  C   UNL     1       0.217   9.877  21.553  0.00  0.00    +0.000 A 
ATOM      3  C   UNL     1       0.546   8.567  21.950  0.00  0.00    +0.000 A 
ATOM      4  C   UNL     1       1.239   7.711  21.096  0.00  0.00    +0.000 A 
ATOM      5  C   UNL     1       1.606   8.131  19.816  0.00  0.00    +0.000 A 
ATOM      6  C   UNL     1       1.296   9.443  19.415  0.00  0.00    +0.000 A 
ATOM      7  C   UNL     1       0.598  10.330  20.266  0.00  0.00    +0.000 A 
ENDROOT
BRANCH   5   8
ATOM      8  C   UNL     1       2.388   7.177  18.979  0.00  0.00    +0.000 C 
ATOM      9  O   UNL     1       3.024   7.592  18.012  0.00  0.00    +0.000 OA
ATOM     10  N   UNL     1       2.391   5.848  19.366  0.00  0.00    +0.000 N 
ATOM     11  H   UNL     1       2.048   5.629  20.291  0.00  0.00    +0.000 HD
BRANCH  10  12
ATOM     12  C   UNL     1       3.214   4.849  18.680  0.00  0.00    +0.000 C 
ATOM     13  C   UNL     1       3.871   3.874  19.668  0.00  0.00    +0.000 C 
ATOM     14  C   UNL     1       2.855   2.948  20.339  0.00  0.00    +0.000 C 
ATOM     15  C   UNL     1       1.972   2.223  19.323  0.00  0.00    +0.000 C 
ATOM     16  C   UNL     1       1.339   3.178  18.314  0.00  0.00    +0.000 C 
ATOM     17  C   UNL     1       2.390   4.066  17.650  0.00  0.00    +0.000 C 
ENDBRANCH  10  12
ENDBRANCH   5   8
BRANCH   7  18
ATOM     18  N   UNL     1       0.424  11.659  19.797  0.00  0.00    +0.000 NA
ATOM     19  N   UNL     1       1.385  12.059  19.113  0.00  0.00    +0.000 NA
BRANCH  19  20
ATOM     20  N   UNL     1       1.214  13.300  18.566  0.00  0.00    +0.000 N 
ATOM     21  C   UNL     1      -0.041  14.029  18.577  0.00  0.00    +0.000 C 
ATOM     22  C   UNL     1       2.418  14.019  18.198  0.00  0.00    +0.000 C 
ENDBRANCH  19  20
ENDBRANCH   7  18
TORSDOF 4
ENDMDL
MODEL 7
REMARK VINA RESULT:      -6.3      2.483      2.969
REMARK  Name = 
REMARK  7 active torsions:
REMARK  status: ('A' for Active; 'I' for Inactive)
REMARK    1  A    between atoms: C_1  and  C_2
REMARK    2  A    between atoms: C_5  and  C_6
REMARK    3  A    between atoms: N_8  and  C_9
REMARK    4  A    between atoms: C_16  and  N_17
REMARK    5  A    between atoms: N_18  and  N_19
REMARK    6  A    between atoms: N_19  and  C_20
REMARK    7  A    between atoms: N_19  and  C_21
REMARK                            x       y       z     vdW  Elec       q    Type
REMARK                         _______ _______ _______ _____ _____    ______ ____
ROOT
ATOM      1  C   UNL     1      -1.267  11.711  20.548  0.00  0.00    +0.000 C 
ATOM      2  C   UNL     1      -0.376  10.670  19.920  0.00  0.00    +0.000 A 
ATOM      3  C   UNL     1       0.595  10.066  20.740  0.00  0.00    +0.000 A 
ATOM      4  C   UNL     1       1.473   9.112  20.229  0.00  0.00    +0.000 A 
ATOM      5  C   UNL     1       1.394   8.720  18.891  0.00  0.00    +0.000 A 
ATOM      6  C   UNL     1       0.437   9.329  18.059  0.00  0.00    +0.000 A 
ATOM      7  C   UNL     1      -0.461  10.302  18.554  0.00  0.00    +0.000 A 
ENDROOT
BRANCH   5   8
ATOM      8  C   UNL     1       2.398   7.731  18.406  0.00  0.00    +0.000 C 
ATOM      9  O   UNL     1       3.296   8.094  17.648  0.00  0.00    +0.000 OA
ATOM     10  N   UNL     1       2.288   6.434  18.874  0.00  0.00    +0.000 N 
ATOM     11  H   UNL     1       1.681   6.271  19.665  0.00  0.00    +0.000 HD
BRANCH  10  12
ATOM     12  C   UNL     1       3.286   5.411  18.548  0.00  0.00    +0.000 C 
ATOM     13  C   UNL     1       3.781   4.674  19.801  0.00  0.00    +0.000 C 
ATOM     14  C   UNL     1       2.700   3.786  20.421  0.00  0.00    +0.000 C 
ATOM     15  C   UNL     1       2.083   2.829  19.402  0.00  0.00    +0.000 C 
ATOM     16  C   UNL     1       1.617   3.544  18.136  0.00  0.00    +0.000 C 
ATOM     17  C   UNL     1       2.732   4.399  17.537  0.00  0.00    +0.000 C 
ENDBRANCH  10  12
ENDBRANCH   5   8
BRANCH   7  18
ATOM     18  N   UNL     1      -1.317  10.921  17.606  0.00  0.00    +0.000 NA
ATOM     19  N   UNL     1      -2.115  10.120  17.081  0.00  0.00    +0.000 NA
BRANCH  19  20
ATOM     20  N   UNL     1      -3.018  10.695  16.232  0.00  0.00    +0.000 N 
ATOM     21  C   UNL     1      -3.107  10.396  14.815  0.00  0.00    +0.000 C 
ATOM     22  C   UNL     1      -4.105  11.433  16.843  0.00  0.00    +0.000 C 
ENDBRANCH  19  20
ENDBRANCH   7  18
TORSDOF 4
ENDMDL
MODEL 8
REMARK VINA RESULT:      -6.3      2.304      3.677
REMARK  Name = 
REMARK  7 active torsions:
REMARK  status: ('A' for Active; 'I' for Inactive)
REMARK    1  A    between atoms: C_1  and  C_2
REMARK    2  A    between atoms: C_5  and  C_6
REMARK    3  A    between atoms: N_8  and  C_9
REMARK    4  A    between atoms: C_16  and  N_17
REMARK    5  A    between atoms: N_18  and  N_19
REMARK    6  A    between atoms: N_19  and  C_20
REMARK    7  A    between atoms: N_19  and  C_21
REMARK                            x       y       z     vdW  Elec       q    Type
REMARK                         _______ _______ _______ _____ _____    ______ ____
ROOT
ATOM      1  C   UNL     1       0.444  10.889  18.421  0.00  0.00    +0.000 C 
ATOM      2  C   UNL     1       1.204   9.610  18.661  0.00  0.00    +0.000 A 
ATOM      3  C   UNL     1       1.993   9.114  17.605  0.00  0.00    +0.000 A 
ATOM      4  C   UNL     1       2.707   7.926  17.740  0.00  0.00    +0.000 A 
ATOM      5  C   UNL     1       2.670   7.208  18.937  0.00  0.00    +0.000 A 
ATOM      6  C   UNL     1       1.873   7.685  19.993  0.00  0.00    +0.000 A 
ATOM      7  C   UNL     1       1.136   8.886  19.878  0.00  0.00    +0.000 A 
ENDROOT
BRANCH   5   8
ATOM      8  C   UNL     1       3.420   5.921  18.988  0.00  0.00    +0.000 C 
ATOM      9  O   UNL     1       3.002   4.996  19.683  0.00  0.00    +0.000 OA
ATOM     10  N   UNL     1       4.554   5.815  18.202  0.00  0.00    +0.000 N 
ATOM     11  H   UNL     1       4.696   6.517  17.489  0.00  0.00    +0.000 HD
BRANCH  10  12
ATOM     12  C   UNL     1       5.301   4.560  18.093  0.00  0.00    +0.000 C 
ATOM     13  C   UNL     1       4.881   3.749  16.858  0.00  0.00    +0.000 C 
ATOM     14  C   UNL     1       5.312   4.414  15.550  0.00  0.00    +0.000 C 
ATOM     15  C   UNL     1       6.803   4.749  15.533  0.00  0.00    +0.000 C 
ATOM     16  C   UNL     1       7.240   5.526  16.771  0.00  0.00    +0.000 C 
ATOM     17  C   UNL     1       6.813   4.816  18.055  0.00  0.00    +0.000 C 
ENDBRANCH  10  12
ENDBRANCH   5   8
BRANCH   7  18
ATOM     18  N   UNL     1       0.290   9.222  20.967  0.00  0.00    +0.000 NA
ATOM     19  N   UNL     1       0.492  10.373  21.399  0.00  0.00    +0.000 NA
BRANCH  19  20
ATOM     20  N   UNL     1      -0.366  10.768  22.386  0.00  0.00    +0.000 N 
ATOM     21  C   UNL     1      -0.664   9.980  23.568  0.00  0.00    +0.000 C 
ATOM     22  C   UNL     1      -0.783  12.156  22.368  0.00  0.00    +0.000 C 
ENDBRANCH  19  20
ENDBRANCH   7  18
TORSDOF 4
ENDMDL
MODEL 9
REMARK VINA RESULT:      -6.2      2.427      7.449
REMARK  Name = 
REMARK  7 active torsions:
REMARK  status: ('A' for Active; 'I' for Inactive)
REMARK    1  A    between atoms: C_1  and  C_2
REMARK    2  A    between atoms: C_5  and  C_6
REMARK    3  A    between atoms: N_8  and  C_9
REMARK    4  A    between atoms: C_16  and  N_17
REMARK    5  A    between atoms: N_18  and  N_19
REMARK    6  A    between atoms: N_19  and  C_20
REMARK    7  A    between atoms: N_19  and  C_21
REMARK                            x       y       z     vdW  Elec       q    Type
REMARK                         _______ _______ _______ _____ _____    ______ ____
ROOT
ATOM      1  C   UNL     1       5.268   4.115  16.732  0.00  0.00    +0.000 C 
ATOM      2  C   UNL     1       4.381   5.259  17.151  0.00  0.00    +0.000 A 
ATOM      3  C   UNL     1       4.780   6.559  16.784  0.00  0.00    +0.000 A 
ATOM      4  C   UNL     1       4.027   7.671  17.153  0.00  0.00    +0.000 A 
ATOM      5  C   UNL     1       2.845   7.518  17.882  0.00  0.00    +0.000 A 
ATOM      6  C   UNL     1       2.445   6.225  18.266  0.00  0.00    +0.000 A 
ATOM      7  C   UNL     1       3.196   5.083  17.907  0.00  0.00    +0.000 A 
ENDROOT
BRANCH   5   8
ATOM      8  C   UNL     1       2.120   8.757  18.282  0.00  0.00    +0.000 C 
ATOM      9  O   UNL     1       1.987   9.675  17.474  0.00  0.00    +0.000 OA
ATOM     10  N   UNL     1       1.587   8.797  19.558  0.00  0.00    +0.000 N 
ATOM     11  H   UNL     1       1.531   7.927  20.069  0.00  0.00    +0.000 HD
BRANCH  10  12
ATOM     12  C   UNL     1       0.763   9.919  20.013  0.00  0.00    +0.000 C 
ATOM     13  C   UNL     1      -0.682   9.487  20.306  0.00  0.00    +0.000 C 
ATOM     14  C   UNL     1      -0.783   8.583  21.535  0.00  0.00    +0.000 C 
ATOM     15  C   UNL     1      -0.111   9.198  22.763  0.00  0.00    +0.000 C 
ATOM     16  C   UNL     1       1.314   9.662  22.477  0.00  0.00    +0.000 C 
ATOM     17  C   UNL     1       1.367  10.581  21.258  0.00  0.00    +0.000 C 
ENDBRANCH  10  12
ENDBRANCH   5   8
BRANCH   7  18
ATOM     18  N   UNL     1       2.754   3.839  18.431  0.00  0.00    +0.000 NA
ATOM     19  N   UNL     1       2.578   3.869  19.664  0.00  0.00    +0.000 NA
BRANCH  19  20
ATOM     20  N   UNL     1       2.063   2.718  20.191  0.00  0.00    +0.000 N 
ATOM     21  C   UNL     1       1.698   2.555  21.586  0.00  0.00    +0.000 C 
ATOM     22  C   UNL     1       1.618   1.713  19.247  0.00  0.00    +0.000 C 
ENDBRANCH  19  20
ENDBRANCH   7  18
TORSDOF 4
ENDMDL
