MODEL 1
REMARK VINA RESULT:      -8.5      0.000      0.000
REMARK  Name = 
REMARK  8 active torsions:
REMARK  status: ('A' for Active; 'I' for Inactive)
REMARK    1  A    between atoms: C_1  and  C_2
REMARK    2  A    between atoms: C_2  and  C_3
REMARK    3  A    between atoms: C_2  and  C_4
REMARK    4  A    between atoms: N_15  and  C_16
REMARK    5  A    between atoms: C_16  and  C_17
REMARK    6  A    between atoms: C_16  and  C_18
REMARK    7  A    between atoms: C_22  and  O_23
REMARK    8  A    between atoms: O_23  and  C_24
REMARK                            x       y       z     vdW  Elec       q    Type
REMARK                         _______ _______ _______ _____ _____    ______ ____
ROOT
ATOM      1  C   UNL     1      -0.566  11.465  18.366  0.00  0.00    +0.000 C 
ATOM      2  C   UNL     1      -0.640  12.943  17.999  0.00  0.00    +0.000 C 
ATOM      3  O   UNL     1       0.472  13.556  18.662  0.00  0.00    +0.000 OA
ATOM      4  C   UNL     1       0.885  12.716  19.661  0.00  0.00    +0.000 C 
ATOM      5  O   UNL     1       1.739  13.036  20.481  0.00  0.00    +0.000 OA
ATOM      6  N   UNL     1       0.229  11.511  19.563  0.00  0.00    +0.000 N 
ATOM      7  C   UNL     1       0.668  10.375  20.252  0.00  0.00    +0.000 A 
ATOM      8  C   UNL     1       0.631  10.417  21.627  0.00  0.00    +0.000 A 
ATOM      9  C   UNL     1       1.015   9.273  22.270  0.00  0.00    +0.000 A 
ATOM     10  N   UNL     1       1.491   8.199  21.629  0.00  0.00    +0.000 NA
ATOM     11  C   UNL     1       1.503   8.238  20.291  0.00  0.00    +0.000 A 
ATOM     12  N   UNL     1       2.025   7.121  19.689  0.00  0.00    +0.000 N 
ATOM     13  N   UNL     1       1.042   9.277  19.569  0.00  0.00    +0.000 NA
ATOM     14  H   UNL     1       2.628   6.610  20.317  0.00  0.00    +0.000 HD
ENDROOT
BRANCH   1  16
ATOM     15  C   UNL     1      -3.090  11.774  18.849  0.00  0.00    +0.000 C 
ATOM     16  C   UNL     1      -1.944  10.783  18.572  0.00  0.00    +0.000 C 
ATOM     17  C   UNL     1      -2.326   9.887  17.393  0.00  0.00    +0.000 C 
ENDBRANCH   1  16
BRANCH  12  18
ATOM     18  C   UNL     1       2.291   7.098  18.275  0.00  0.00    +0.000 C 
ATOM     19  C   UNL     1       3.351   8.121  17.854  0.00  0.00    +0.000 C 
BRANCH  18  20
ATOM     20  C   UNL     1       2.681   5.685  17.873  0.00  0.00    +0.000 A 
ATOM     21  C   UNL     1       1.880   4.559  18.113  0.00  0.00    +0.000 A 
ATOM     22  C   UNL     1       2.358   3.273  17.831  0.00  0.00    +0.000 A 
ATOM     23  C   UNL     1       3.657   3.097  17.346  0.00  0.00    +0.000 A 
ATOM     24  C   UNL     1       4.458   4.209  17.094  0.00  0.00    +0.000 A 
ATOM     25  C   UNL     1       3.932   5.493  17.270  0.00  0.00    +0.000 A 
BRANCH  24  26
ATOM     26  O   UNL     1       5.756   3.986  16.688  0.00  0.00    +0.000 OA
BRANCH  26  27
ATOM     27  C   UNL     1       6.062   4.149  15.348  0.00  0.00    +0.000 A 
ATOM     28  C   UNL     1       5.299   3.609  14.303  0.00  0.00    +0.000 A 
ATOM     29  C   UNL     1       5.724   3.732  12.981  0.00  0.00    +0.000 A 
ATOM     30  C   UNL     1       6.870   4.465  12.688  0.00  0.00    +0.000 A 
ATOM     31  C   UNL     1       7.590   5.075  13.716  0.00  0.00    +0.000 A 
ATOM     32  C   UNL     1       7.190   4.913  15.047  0.00  0.00    +0.000 A 
ENDBRANCH  26  27
ENDBRANCH  24  26
ENDBRANCH  18  20
ENDBRANCH  12  18
TORSDOF 5
ENDMDL
MODEL 2
REMARK VINA RESULT:      -8.4      2.119      9.009
REMARK  Name = 
REMARK  8 active torsions:
REMARK  status: ('A' for Active; 'I' for Inactive)
REMARK    1  A    between atoms: C_1  and  C_2
REMARK    2  A    between atoms: C_2  and  C_3
REMARK    3  A    between atoms: C_2  and  C_4
REMARK    4  A    between atoms: N_15  and  C_16
REMARK    5  A    between atoms: C_16  and  C_17
REMARK    6  A    between atoms: C_16  and  C_18
REMARK    7  A    between atoms: C_22  and  O_23
REMARK    8  A    between atoms: O_23  and  C_24
REMARK                            x       y       z     vdW  Elec       q    Type
REMARK                         _______ _______ _______ _____ _____    ______ ____
ROOT
ATOM      1  C   UNL     1       5.970   5.901  17.238  0.00  0.00    +0.000 C 
ATOM      2  C   UNL     1       6.526   5.526  15.869  0.00  0.00    +0.000 C 
ATOM      3  O   UNL     1       5.543   4.665  15.281  0.00  0.00    +0.000 OA
ATOM      4  C   UNL     1       4.745   4.186  16.286  0.00  0.00    +0.000 C 
ATOM      5  O   UNL     1       3.895   3.323  16.097  0.00  0.00    +0.000 OA
ATOM      6  N   UNL     1       5.033   4.835  17.464  0.00  0.00    +0.000 N 
ATOM      7  C   UNL     1       4.177   4.769  18.569  0.00  0.00    +0.000 A 
ATOM      8  C   UNL     1       3.995   3.537  19.155  0.00  0.00    +0.000 A 
ATOM      9  C   UNL     1       3.196   3.515  20.264  0.00  0.00    +0.000 A 
ATOM     10  N   UNL     1       2.546   4.593  20.718  0.00  0.00    +0.000 NA
ATOM     11  C   UNL     1       2.769   5.754  20.089  0.00  0.00    +0.000 A 
ATOM     12  N   UNL     1       2.056   6.819  20.580  0.00  0.00    +0.000 N 
ATOM     13  N   UNL     1       3.623   5.894  19.058  0.00  0.00    +0.000 NA
ATOM     14  H   UNL     1       1.236   6.514  21.084  0.00  0.00    +0.000 HD
ENDROOT
BRANCH   1  16
ATOM     15  C   UNL     1       7.947   4.788  18.483  0.00  0.00    +0.000 C 
ATOM     16  C   UNL     1       7.039   6.025  18.355  0.00  0.00    +0.000 C 
ATOM     17  C   UNL     1       7.907   7.273  18.186  0.00  0.00    +0.000 C 
ENDBRANCH   1  16
BRANCH  12  18
ATOM     18  C   UNL     1       2.036   8.079  19.886  0.00  0.00    +0.000 C 
ATOM     19  C   UNL     1       1.623   7.941  18.417  0.00  0.00    +0.000 C 
BRANCH  18  20
ATOM     20  C   UNL     1       1.126   9.038  20.638  0.00  0.00    +0.000 A 
ATOM     21  C   UNL     1       0.813   8.906  21.999  0.00  0.00    +0.000 A 
ATOM     22  C   UNL     1      -0.132   9.750  22.596  0.00  0.00    +0.000 A 
ATOM     23  C   UNL     1      -0.804  10.706  21.829  0.00  0.00    +0.000 A 
ATOM     24  C   UNL     1      -0.494  10.852  20.479  0.00  0.00    +0.000 A 
ATOM     25  C   UNL     1       0.531  10.083  19.919  0.00  0.00    +0.000 A 
BRANCH  24  26
ATOM     26  O   UNL     1      -1.234  11.754  19.745  0.00  0.00    +0.000 OA
BRANCH  26  27
ATOM     27  C   UNL     1      -2.008  11.273  18.702  0.00  0.00    +0.000 A 
ATOM     28  C   UNL     1      -1.559  10.328  17.769  0.00  0.00    +0.000 A 
ATOM     29  C   UNL     1      -2.362   9.965  16.689  0.00  0.00    +0.000 A 
ATOM     30  C   UNL     1      -3.650  10.482  16.579  0.00  0.00    +0.000 A 
ATOM     31  C   UNL     1      -4.133  11.362  17.549  0.00  0.00    +0.000 A 
ATOM     32  C   UNL     1      -3.311  11.762  18.608  0.00  0.00    +0.000 A 
ENDBRANCH  26  27
ENDBRANCH  24  26
ENDBRANCH  18  20
ENDBRANCH  12  18
TORSDOF 5
ENDMDL
MODEL 3
REMARK VINA RESULT:      -8.3      1.643      3.769
REMARK  Name = 
REMARK  8 active torsions:
REMARK  status: ('A' for Active; 'I' for Inactive)
REMARK    1  A    between atoms: C_1  and  C_2
REMARK    2  A    between atoms: C_2  and  C_3
REMARK    3  A    between atoms: C_2  and  C_4
REMARK    4  A    between atoms: N_15  and  C_16
REMARK    5  A    between atoms: C_16  and  C_17
REMARK    6  A    between atoms: C_16  and  C_18
REMARK    7  A    between atoms: C_22  and  O_23
REMARK    8  A    between atoms: O_23  and  C_24
REMARK                            x       y       z     vdW  Elec       q    Type
REMARK                         _______ _______ _______ _____ _____    ______ ____
ROOT
ATOM      1  C   UNL     1      -0.716  11.944  18.792  0.00  0.00    +0.000 C 
ATOM      2  C   UNL     1      -0.874  13.458  18.704  0.00  0.00    +0.000 C 
ATOM      3  O   UNL     1       0.148  13.998  19.552  0.00  0.00    +0.000 OA
ATOM      4  C   UNL     1       0.559  13.007  20.403  0.00  0.00    +0.000 C 
ATOM      5  O   UNL     1       1.335  13.214  21.328  0.00  0.00    +0.000 OA
ATOM      6  N   UNL     1      -0.001  11.806  20.031  0.00  0.00    +0.000 N 
ATOM      7  C   UNL     1       0.477  10.588  20.524  0.00  0.00    +0.000 A 
ATOM      8  C   UNL     1       0.352  10.361  21.876  0.00  0.00    +0.000 A 
ATOM      9  C   UNL     1       0.779   9.140  22.319  0.00  0.00    +0.000 A 
ATOM     10  N   UNL     1       1.369   8.239  21.525  0.00  0.00    +0.000 NA
ATOM     11  C   UNL     1       1.460   8.536  20.223  0.00  0.00    +0.000 A 
ATOM     12  N   UNL     1       2.098   7.589  19.461  0.00  0.00    +0.000 N 
ATOM     13  N   UNL     1       0.970   9.665  19.677  0.00  0.00    +0.000 NA
ATOM     14  H   UNL     1       2.696   7.004  20.025  0.00  0.00    +0.000 HD
ENDROOT
BRANCH   1  16
ATOM     15  C   UNL     1      -3.297  12.038  18.962  0.00  0.00    +0.000 C 
ATOM     16  C   UNL     1      -2.051  11.155  18.763  0.00  0.00    +0.000 C 
ATOM     17  C   UNL     1      -2.211  10.338  17.481  0.00  0.00    +0.000 C 
ENDBRANCH   1  16
BRANCH  12  18
ATOM     18  C   UNL     1       2.450   7.855  18.092  0.00  0.00    +0.000 C 
ATOM     19  C   UNL     1       3.013   9.265  17.887  0.00  0.00    +0.000 C 
BRANCH  18  20
ATOM     20  C   UNL     1       3.423   6.787  17.620  0.00  0.00    +0.000 A 
ATOM     21  C   UNL     1       4.384   6.997  16.619  0.00  0.00    +0.000 A 
ATOM     22  C   UNL     1       5.162   5.934  16.145  0.00  0.00    +0.000 A 
ATOM     23  C   UNL     1       4.958   4.641  16.636  0.00  0.00    +0.000 A 
ATOM     24  C   UNL     1       4.014   4.422  17.637  0.00  0.00    +0.000 A 
ATOM     25  C   UNL     1       3.324   5.508  18.185  0.00  0.00    +0.000 A 
BRANCH  24  26
ATOM     26  O   UNL     1       3.793   3.122  18.038  0.00  0.00    +0.000 OA
BRANCH  26  27
ATOM     27  C   UNL     1       2.958   2.901  19.119  0.00  0.00    +0.000 A 
ATOM     28  C   UNL     1       1.560   2.852  19.028  0.00  0.00    +0.000 A 
ATOM     29  C   UNL     1       0.781   2.725  20.177  0.00  0.00    +0.000 A 
ATOM     30  C   UNL     1       1.395   2.562  21.416  0.00  0.00    +0.000 A 
ATOM     31  C   UNL     1       2.788   2.528  21.504  0.00  0.00    +0.000 A 
ATOM     32  C   UNL     1       3.570   2.703  20.358  0.00  0.00    +0.000 A 
ENDBRANCH  26  27
ENDBRANCH  24  26
ENDBRANCH  18  20
ENDBRANCH  12  18
TORSDOF 5
ENDMDL
MODEL 4
REMARK VINA RESULT:      -8.1      1.864      2.466
REMARK  Name = 
REMARK  8 active torsions:
REMARK  status: ('A' for Active; 'I' for Inactive)
REMARK    1  A    between atoms: C_1  and  C_2
REMARK    2  A    between atoms: C_2  and  C_3
REMARK    3  A    between atoms: C_2  and  C_4
REMARK    4  A    between atoms: N_15  and  C_16
REMARK    5  A    between atoms: C_16  and  C_17
REMARK    6  A    between atoms: C_16  and  C_18
REMARK    7  A    between atoms: C_22  and  O_23
REMARK    8  A    between atoms: O_23  and  C_24
REMARK                            x       y       z     vdW  Elec       q    Type
REMARK                         _______ _______ _______ _____ _____    ______ ____
ROOT
ATOM      1  C   UNL     1      -0.935  11.284  18.444  0.00  0.00    +0.000 C 
ATOM      2  C   UNL     1      -0.861  12.630  17.731  0.00  0.00    +0.000 C 
ATOM      3  O   UNL     1       0.157  13.369  18.417  0.00  0.00    +0.000 OA
ATOM      4  C   UNL     1       0.348  12.790  19.643  0.00  0.00    +0.000 C 
ATOM      5  O   UNL     1       1.069  13.286  20.501  0.00  0.00    +0.000 OA
ATOM      6  N   UNL     1      -0.350  11.607  19.717  0.00  0.00    +0.000 N 
ATOM      7  C   UNL     1      -0.098  10.666  20.721  0.00  0.00    +0.000 A 
ATOM      8  C   UNL     1      -0.364  11.040  22.019  0.00  0.00    +0.000 A 
ATOM      9  C   UNL     1      -0.159  10.081  22.970  0.00  0.00    +0.000 A 
ATOM     10  N   UNL     1       0.355   8.876  22.696  0.00  0.00    +0.000 NA
ATOM     11  C   UNL     1       0.593   8.589  21.410  0.00  0.00    +0.000 A 
ATOM     12  N   UNL     1       1.145   7.352  21.190  0.00  0.00    +0.000 N 
ATOM     13  N   UNL     1       0.321   9.429  20.393  0.00  0.00    +0.000 NA
ATOM     14  H   UNL     1       1.603   6.999  22.018  0.00  0.00    +0.000 HD
ENDROOT
BRANCH   1  16
ATOM     15  C   UNL     1      -3.465  11.761  18.708  0.00  0.00    +0.000 C 
ATOM     16  C   UNL     1      -2.364  10.694  18.558  0.00  0.00    +0.000 C 
ATOM     17  C   UNL     1      -2.706   9.779  17.382  0.00  0.00    +0.000 C 
ENDBRANCH   1  16
BRANCH  12  18
ATOM     18  C   UNL     1       1.641   6.983  19.891  0.00  0.00    +0.000 C 
ATOM     19  C   UNL     1       2.758   7.908  19.399  0.00  0.00    +0.000 C 
BRANCH  18  20
ATOM     20  C   UNL     1       2.092   5.531  19.933  0.00  0.00    +0.000 A 
ATOM     21  C   UNL     1       1.325   4.495  20.488  0.00  0.00    +0.000 A 
ATOM     22  C   UNL     1       1.855   3.205  20.608  0.00  0.00    +0.000 A 
ATOM     23  C   UNL     1       3.170   2.946  20.214  0.00  0.00    +0.000 A 
ATOM     24  C   UNL     1       3.937   3.965  19.653  0.00  0.00    +0.000 A 
ATOM     25  C   UNL     1       3.362   5.220  19.432  0.00  0.00    +0.000 A 
BRANCH  24  26
ATOM     26  O   UNL     1       5.253   3.685  19.349  0.00  0.00    +0.000 OA
BRANCH  26  27
ATOM     27  C   UNL     1       5.967   4.613  18.612  0.00  0.00    +0.000 A 
ATOM     28  C   UNL     1       6.913   5.487  19.165  0.00  0.00    +0.000 A 
ATOM     29  C   UNL     1       7.521   6.462  18.376  0.00  0.00    +0.000 A 
ATOM     30  C   UNL     1       7.251   6.517  17.012  0.00  0.00    +0.000 A 
ATOM     31  C   UNL     1       6.372   5.596  16.438  0.00  0.00    +0.000 A 
ATOM     32  C   UNL     1       5.726   4.648  17.238  0.00  0.00    +0.000 A 
ENDBRANCH  26  27
ENDBRANCH  24  26
ENDBRANCH  18  20
ENDBRANCH  12  18
TORSDOF 5
ENDMDL
MODEL 5
REMARK VINA RESULT:      -8.1      2.656      9.073
REMARK  Name = 
REMARK  8 active torsions:
REMARK  status: ('A' for Active; 'I' for Inactive)
REMARK    1  A    between atoms: C_1  and  C_2
REMARK    2  A    between atoms: C_2  and  C_3
REMARK    3  A    between atoms: C_2  and  C_4
REMARK    4  A    between atoms: N_15  and  C_16
REMARK    5  A    between atoms: C_16  and  C_17
REMARK    6  A    between atoms: C_16  and  C_18
REMARK    7  A    between atoms: C_22  and  O_23
REMARK    8  A    between atoms: O_23  and  C_24
REMARK                            x       y       z     vdW  Elec       q    Type
REMARK                         _______ _______ _______ _____ _____    ______ ____
ROOT
ATOM      1  C   UNL     1       2.776   3.751  19.510  0.00  0.00    +0.000 C 
ATOM      2  C   UNL     1       3.658   2.582  19.934  0.00  0.00    +0.000 C 
ATOM      3  O   UNL     1       4.960   3.142  20.141  0.00  0.00    +0.000 OA
ATOM      4  C   UNL     1       5.011   4.347  19.492  0.00  0.00    +0.000 C 
ATOM      5  O   UNL     1       6.045   4.996  19.386  0.00  0.00    +0.000 OA
ATOM      6  N   UNL     1       3.758   4.688  19.037  0.00  0.00    +0.000 N 
ATOM      7  C   UNL     1       3.456   5.987  18.615  0.00  0.00    +0.000 A 
ATOM      8  C   UNL     1       4.117   6.460  17.504  0.00  0.00    +0.000 A 
ATOM      9  C   UNL     1       3.762   7.712  17.085  0.00  0.00    +0.000 A 
ATOM     10  N   UNL     1       2.896   8.487  17.749  0.00  0.00    +0.000 NA
ATOM     11  C   UNL     1       2.300   7.958  18.825  0.00  0.00    +0.000 A 
ATOM     12  N   UNL     1       1.443   8.806  19.481  0.00  0.00    +0.000 N 
ATOM     13  N   UNL     1       2.504   6.696  19.249  0.00  0.00    +0.000 NA
ATOM     14  H   UNL     1       1.653   9.772  19.279  0.00  0.00    +0.000 HD
ENDROOT
BRANCH   1  16
ATOM     15  C   UNL     1       2.297   2.947  17.097  0.00  0.00    +0.000 C 
ATOM     16  C   UNL     1       1.705   3.395  18.446  0.00  0.00    +0.000 C 
ATOM     17  C   UNL     1       0.726   2.332  18.945  0.00  0.00    +0.000 C 
ENDBRANCH   1  16
BRANCH  12  18
ATOM     18  C   UNL     1       0.888   8.452  20.760  0.00  0.00    +0.000 C 
ATOM     19  C   UNL     1       1.950   7.979  21.758  0.00  0.00    +0.000 C 
BRANCH  18  20
ATOM     20  C   UNL     1       0.101   9.637  21.297  0.00  0.00    +0.000 A 
ATOM     21  C   UNL     1      -0.312   9.756  22.632  0.00  0.00    +0.000 A 
ATOM     22  C   UNL     1      -1.142  10.811  23.029  0.00  0.00    +0.000 A 
ATOM     23  C   UNL     1      -1.603  11.735  22.087  0.00  0.00    +0.000 A 
ATOM     24  C   UNL     1      -1.191  11.633  20.760  0.00  0.00    +0.000 A 
ATOM     25  C   UNL     1      -0.271  10.645  20.396  0.00  0.00    +0.000 A 
BRANCH  24  26
ATOM     26  O   UNL     1      -1.728  12.520  19.851  0.00  0.00    +0.000 OA
BRANCH  26  27
ATOM     27  C   UNL     1      -2.529  12.018  18.840  0.00  0.00    +0.000 A 
ATOM     28  C   UNL     1      -3.917  11.855  18.953  0.00  0.00    +0.000 A 
ATOM     29  C   UNL     1      -4.644  11.251  17.928  0.00  0.00    +0.000 A 
ATOM     30  C   UNL     1      -4.002  10.880  16.750  0.00  0.00    +0.000 A 
ATOM     31  C   UNL     1      -2.634  11.113  16.598  0.00  0.00    +0.000 A 
ATOM     32  C   UNL     1      -1.896  11.677  17.644  0.00  0.00    +0.000 A 
ENDBRANCH  26  27
ENDBRANCH  24  26
ENDBRANCH  18  20
ENDBRANCH  12  18
TORSDOF 5
ENDMDL
MODEL 6
REMARK VINA RESULT:      -8.1      2.801     10.044
REMARK  Name = 
REMARK  8 active torsions:
REMARK  status: ('A' for Active; 'I' for Inactive)
REMARK    1  A    between atoms: C_1  and  C_2
REMARK    2  A    between atoms: C_2  and  C_3
REMARK    3  A    between atoms: C_2  and  C_4
REMARK    4  A    between atoms: N_15  and  C_16
REMARK    5  A    between atoms: C_16  and  C_17
REMARK    6  A    between atoms: C_16  and  C_18
REMARK    7  A    between atoms: C_22  and  O_23
REMARK    8  A    between atoms: O_23  and  C_24
REMARK                            x       y       z     vdW  Elec       q    Type
REMARK                         _______ _______ _______ _____ _____    ______ ____
ROOT
ATOM      1  C   UNL     1       5.724   6.000  17.118  0.00  0.00    +0.000 C 
ATOM      2  C   UNL     1       6.273   5.358  15.848  0.00  0.00    +0.000 C 
ATOM      3  O   UNL     1       5.270   4.426  15.428  0.00  0.00    +0.000 OA
ATOM      4  C   UNL     1       4.458   4.166  16.499  0.00  0.00    +0.000 C 
ATOM      5  O   UNL     1       3.587   3.303  16.472  0.00  0.00    +0.000 OA
ATOM      6  N   UNL     1       4.760   5.019  17.535  0.00  0.00    +0.000 N 
ATOM      7  C   UNL     1       3.901   5.185  18.627  0.00  0.00    +0.000 A 
ATOM      8  C   UNL     1       3.686   4.091  19.434  0.00  0.00    +0.000 A 
ATOM      9  C   UNL     1       2.885   4.299  20.522  0.00  0.00    +0.000 A 
ATOM     10  N   UNL     1       2.261   5.459  20.759  0.00  0.00    +0.000 NA
ATOM     11  C   UNL     1       2.515   6.474  19.924  0.00  0.00    +0.000 A 
ATOM     12  N   UNL     1       1.828   7.630  20.199  0.00  0.00    +0.000 N 
ATOM     13  N   UNL     1       3.374   6.395  18.890  0.00  0.00    +0.000 NA
ATOM     14  H   UNL     1       1.000   7.446  20.746  0.00  0.00    +0.000 HD
ENDROOT
BRANCH   1  16
ATOM     15  C   UNL     1       7.677   5.098  18.557  0.00  0.00    +0.000 C 
ATOM     16  C   UNL     1       6.794   6.307  18.198  0.00  0.00    +0.000 C 
ATOM     17  C   UNL     1       7.687   7.485  17.806  0.00  0.00    +0.000 C 
ENDBRANCH   1  16
BRANCH  12  18
ATOM     18  C   UNL     1       1.841   8.735  19.279  0.00  0.00    +0.000 C 
ATOM     19  C   UNL     1       1.715   8.293  17.818  0.00  0.00    +0.000 C 
BRANCH  18  20
ATOM     20  C   UNL     1       0.740   9.709  19.668  0.00  0.00    +0.000 A 
ATOM     21  C   UNL     1      -0.065  10.385  18.739  0.00  0.00    +0.000 A 
ATOM     22  C   UNL     1      -0.973  11.362  19.162  0.00  0.00    +0.000 A 
ATOM     23  C   UNL     1      -1.056  11.705  20.515  0.00  0.00    +0.000 A 
ATOM     24  C   UNL     1      -0.269  11.034  21.448  0.00  0.00    +0.000 A 
ATOM     25  C   UNL     1       0.550   9.981  21.030  0.00  0.00    +0.000 A 
BRANCH  24  26
ATOM     26  O   UNL     1      -0.328  11.455  22.759  0.00  0.00    +0.000 OA
BRANCH  26  27
ATOM     27  C   UNL     1      -1.326  12.345  23.118  0.00  0.00    +0.000 A 
ATOM     28  C   UNL     1      -1.147  13.734  23.180  0.00  0.00    +0.000 A 
ATOM     29  C   UNL     1      -2.170  14.558  23.645  0.00  0.00    +0.000 A 
ATOM     30  C   UNL     1      -3.407  14.009  23.973  0.00  0.00    +0.000 A 
ATOM     31  C   UNL     1      -3.618  12.636  23.836  0.00  0.00    +0.000 A 
ATOM     32  C   UNL     1      -2.577  11.803  23.414  0.00  0.00    +0.000 A 
ENDBRANCH  26  27
ENDBRANCH  24  26
ENDBRANCH  18  20
ENDBRANCH  12  18
TORSDOF 5
ENDMDL
MODEL 7
REMARK VINA RESULT:      -8.0      2.113      9.428
REMARK  Name = 
REMARK  8 active torsions:
REMARK  status: ('A' for Active; 'I' for Inactive)
REMARK    1  A    between atoms: C_1  and  C_2
REMARK    2  A    between atoms: C_2  and  C_3
REMARK    3  A    between atoms: C_2  and  C_4
REMARK    4  A    between atoms: N_15  and  C_16
REMARK    5  A    between atoms: C_16  and  C_17
REMARK    6  A    between atoms: C_16  and  C_18
REMARK    7  A    between atoms: C_22  and  O_23
REMARK    8  A    between atoms: O_23  and  C_24
REMARK                            x       y       z     vdW  Elec       q    Type
REMARK                         _______ _______ _______ _____ _____    ______ ____
ROOT
ATOM      1  C   UNL     1       6.334   6.420  17.251  0.00  0.00    +0.000 C 
ATOM      2  C   UNL     1       7.053   6.191  15.925  0.00  0.00    +0.000 C 
ATOM      3  O   UNL     1       6.186   5.343  15.163  0.00  0.00    +0.000 OA
ATOM      4  C   UNL     1       5.311   4.743  16.029  0.00  0.00    +0.000 C 
ATOM      5  O   UNL     1       4.534   3.863  15.677  0.00  0.00    +0.000 OA
ATOM      6  N   UNL     1       5.437   5.297  17.282  0.00  0.00    +0.000 N 
ATOM      7  C   UNL     1       4.473   5.097  18.276  0.00  0.00    +0.000 A 
ATOM      8  C   UNL     1       4.295   3.812  18.734  0.00  0.00    +0.000 A 
ATOM      9  C   UNL     1       3.384   3.657  19.742  0.00  0.00    +0.000 A 
ATOM     10  N   UNL     1       2.632   4.661  20.208  0.00  0.00    +0.000 NA
ATOM     11  C   UNL     1       2.859   5.881  19.707  0.00  0.00    +0.000 A 
ATOM     12  N   UNL     1       2.042   6.867  20.202  0.00  0.00    +0.000 N 
ATOM     13  N   UNL     1       3.810   6.150  18.792  0.00  0.00    +0.000 NA
ATOM     14  H   UNL     1       1.190   6.483  20.584  0.00  0.00    +0.000 HD
ENDROOT
BRANCH   1  16
ATOM     15  C   UNL     1       8.048   5.190  18.750  0.00  0.00    +0.000 C 
ATOM     16  C   UNL     1       7.270   6.492  18.485  0.00  0.00    +0.000 C 
ATOM     17  C   UNL     1       8.254   7.659  18.396  0.00  0.00    +0.000 C 
ENDBRANCH   1  16
BRANCH  12  18
ATOM     18  C   UNL     1       2.028   8.181  19.616  0.00  0.00    +0.000 C 
ATOM     19  C   UNL     1       1.578   8.173  18.152  0.00  0.00    +0.000 C 
BRANCH  18  20
ATOM     20  C   UNL     1       1.155   9.088  20.468  0.00  0.00    +0.000 A 
ATOM     21  C   UNL     1       0.727   8.762  21.764  0.00  0.00    +0.000 A 
ATOM     22  C   UNL     1      -0.178   9.586  22.442  0.00  0.00    +0.000 A 
ATOM     23  C   UNL     1      -0.699  10.722  21.816  0.00  0.00    +0.000 A 
ATOM     24  C   UNL     1      -0.274  11.061  20.534  0.00  0.00    +0.000 A 
ATOM     25  C   UNL     1       0.717  10.296  19.910  0.00  0.00    +0.000 A 
BRANCH  24  26
ATOM     26  O   UNL     1      -0.869  12.146  19.926  0.00  0.00    +0.000 OA
BRANCH  26  27
ATOM     27  C   UNL     1      -2.182  12.024  19.505  0.00  0.00    +0.000 A 
ATOM     28  C   UNL     1      -2.574  11.294  18.374  0.00  0.00    +0.000 A 
ATOM     29  C   UNL     1      -3.903  11.298  17.956  0.00  0.00    +0.000 A 
ATOM     30  C   UNL     1      -4.864  11.963  18.712  0.00  0.00    +0.000 A 
ATOM     31  C   UNL     1      -4.495  12.624  19.884  0.00  0.00    +0.000 A 
ATOM     32  C   UNL     1      -3.154  12.659  20.279  0.00  0.00    +0.000 A 
ENDBRANCH  26  27
ENDBRANCH  24  26
ENDBRANCH  18  20
ENDBRANCH  12  18
TORSDOF 5
ENDMDL
MODEL 8
REMARK VINA RESULT:      -8.0      1.132      1.491
REMARK  Name = 
REMARK  8 active torsions:
REMARK  status: ('A' for Active; 'I' for Inactive)
REMARK    1  A    between atoms: C_1  and  C_2
REMARK    2  A    between atoms: C_2  and  C_3
REMARK    3  A    between atoms: C_2  and  C_4
REMARK    4  A    between atoms: N_15  and  C_16
REMARK    5  A    between atoms: C_16  and  C_17
REMARK    6  A    between atoms: C_16  and  C_18
REMARK    7  A    between atoms: C_22  and  O_23
REMARK    8  A    between atoms: O_23  and  C_24
REMARK                            x       y       z     vdW  Elec       q    Type
REMARK                         _______ _______ _______ _____ _____    ______ ____
ROOT
ATOM      1  C   UNL     1      -0.412  11.396  18.318  0.00  0.00    +0.000 C 
ATOM      2  C   UNL     1      -0.503  12.888  18.018  0.00  0.00    +0.000 C 
ATOM      3  O   UNL     1       0.523  13.500  18.810  0.00  0.00    +0.000 OA
ATOM      4  C   UNL     1       0.873  12.622  19.801  0.00  0.00    +0.000 C 
ATOM      5  O   UNL     1       1.637  12.925  20.710  0.00  0.00    +0.000 OA
ATOM      6  N   UNL     1       0.270  11.404  19.584  0.00  0.00    +0.000 N 
ATOM      7  C   UNL     1       0.684  10.249  20.254  0.00  0.00    +0.000 A 
ATOM      8  C   UNL     1       0.521  10.218  21.621  0.00  0.00    +0.000 A 
ATOM      9  C   UNL     1       0.885   9.055  22.240  0.00  0.00    +0.000 A 
ATOM     10  N   UNL     1       1.454   8.030  21.594  0.00  0.00    +0.000 NA
ATOM     11  C   UNL     1       1.585   8.138  20.267  0.00  0.00    +0.000 A 
ATOM     12  N   UNL     1       2.199   7.070  19.661  0.00  0.00    +0.000 N 
ATOM     13  N   UNL     1       1.156   9.198  19.556  0.00  0.00    +0.000 NA
ATOM     14  H   UNL     1       2.759   6.545  20.317  0.00  0.00    +0.000 HD
ENDROOT
BRANCH   1  16
ATOM     15  C   UNL     1      -2.975  11.601  18.611  0.00  0.00    +0.000 C 
ATOM     16  C   UNL     1      -1.778  10.664  18.363  0.00  0.00    +0.000 C 
ATOM     17  C   UNL     1      -2.033   9.842  17.099  0.00  0.00    +0.000 C 
ENDBRANCH   1  16
BRANCH  12  18
ATOM     18  C   UNL     1       2.591   7.128  18.278  0.00  0.00    +0.000 C 
ATOM     19  C   UNL     1       2.867   8.557  17.800  0.00  0.00    +0.000 C 
BRANCH  18  20
ATOM     20  C   UNL     1       3.796   6.223  18.073  0.00  0.00    +0.000 A 
ATOM     21  C   UNL     1       4.229   5.280  19.016  0.00  0.00    +0.000 A 
ATOM     22  C   UNL     1       5.420   4.570  18.817  0.00  0.00    +0.000 A 
ATOM     23  C   UNL     1       6.211   4.827  17.695  0.00  0.00    +0.000 A 
ATOM     24  C   UNL     1       5.786   5.755  16.746  0.00  0.00    +0.000 A 
ATOM     25  C   UNL     1       4.541   6.374  16.896  0.00  0.00    +0.000 A 
BRANCH  24  26
ATOM     26  O   UNL     1       6.633   6.032  15.694  0.00  0.00    +0.000 OA
BRANCH  26  27
ATOM     27  C   UNL     1       6.590   5.208  14.583  0.00  0.00    +0.000 A 
ATOM     28  C   UNL     1       7.578   5.186  13.589  0.00  0.00    +0.000 A 
ATOM     29  C   UNL     1       7.417   4.401  12.449  0.00  0.00    +0.000 A 
ATOM     30  C   UNL     1       6.307   3.569  12.333  0.00  0.00    +0.000 A 
ATOM     31  C   UNL     1       5.359   3.524  13.356  0.00  0.00    +0.000 A 
ATOM     32  C   UNL     1       5.497   4.347  14.479  0.00  0.00    +0.000 A 
ENDBRANCH  26  27
ENDBRANCH  24  26
ENDBRANCH  18  20
ENDBRANCH  12  18
TORSDOF 5
ENDMDL
MODEL 9
REMARK VINA RESULT:      -7.9      2.704      9.373
REMARK  Name = 
REMARK  8 active torsions:
REMARK  status: ('A' for Active; 'I' for Inactive)
REMARK    1  A    between atoms: C_1  and  C_2
REMARK    2  A    between atoms: C_2  and  C_3
REMARK    3  A    between atoms: C_2  and  C_4
REMARK    4  A    between atoms: N_15  and  C_16
REMARK    5  A    between atoms: C_16  and  C_17
REMARK    6  A    between atoms: C_16  and  C_18
REMARK    7  A    between atoms: C_22  and  O_23
REMARK    8  A    between atoms: O_23  and  C_24
REMARK                            x       y       z     vdW  Elec       q    Type
REMARK                         _______ _______ _______ _____ _____    ______ ____
ROOT
ATOM      1  C   UNL     1       2.787   3.769  19.505  0.00  0.00    +0.000 C 
ATOM      2  C   UNL     1       3.673   2.604  19.935  0.00  0.00    +0.000 C 
ATOM      3  O   UNL     1       4.972   3.171  20.145  0.00  0.00    +0.000 OA
ATOM      4  C   UNL     1       5.020   4.375  19.495  0.00  0.00    +0.000 C 
ATOM      5  O   UNL     1       6.052   5.028  19.392  0.00  0.00    +0.000 OA
ATOM      6  N   UNL     1       3.767   4.710  19.035  0.00  0.00    +0.000 N 
ATOM      7  C   UNL     1       3.462   6.007  18.610  0.00  0.00    +0.000 A 
ATOM      8  C   UNL     1       4.125   6.481  17.500  0.00  0.00    +0.000 A 
ATOM      9  C   UNL     1       3.766   7.731  17.078  0.00  0.00    +0.000 A 
ATOM     10  N   UNL     1       2.895   8.503  17.738  0.00  0.00    +0.000 NA
ATOM     11  C   UNL     1       2.297   7.974  18.812  0.00  0.00    +0.000 A 
ATOM     12  N   UNL     1       1.434   8.819  19.464  0.00  0.00    +0.000 N 
ATOM     13  N   UNL     1       2.504   6.713  19.239  0.00  0.00    +0.000 NA
ATOM     14  H   UNL     1       1.641   9.786  19.261  0.00  0.00    +0.000 HD
ENDROOT
BRANCH   1  16
ATOM     15  C   UNL     1       2.320   2.965  17.090  0.00  0.00    +0.000 C 
ATOM     16  C   UNL     1       1.722   3.408  18.438  0.00  0.00    +0.000 C 
ATOM     17  C   UNL     1       0.748   2.338  18.934  0.00  0.00    +0.000 C 
ENDBRANCH   1  16
BRANCH  12  18
ATOM     18  C   UNL     1       0.876   8.465  20.742  0.00  0.00    +0.000 C 
ATOM     19  C   UNL     1       1.935   7.991  21.742  0.00  0.00    +0.000 C 
BRANCH  18  20
ATOM     20  C   UNL     1       0.088   9.650  21.277  0.00  0.00    +0.000 A 
ATOM     21  C   UNL     1      -0.290   9.790  22.621  0.00  0.00    +0.000 A 
ATOM     22  C   UNL     1      -1.123  10.842  23.020  0.00  0.00    +0.000 A 
ATOM     23  C   UNL     1      -1.622  11.741  22.073  0.00  0.00    +0.000 A 
ATOM     24  C   UNL     1      -1.245  11.618  20.737  0.00  0.00    +0.000 A 
ATOM     25  C   UNL     1      -0.322  10.634  20.368  0.00  0.00    +0.000 A 
BRANCH  24  26
ATOM     26  O   UNL     1      -1.819  12.479  19.826  0.00  0.00    +0.000 OA
BRANCH  26  27
ATOM     27  C   UNL     1      -2.955  12.062  19.155  0.00  0.00    +0.000 A 
ATOM     28  C   UNL     1      -2.930  11.315  17.969  0.00  0.00    +0.000 A 
ATOM     29  C   UNL     1      -4.114  11.015  17.297  0.00  0.00    +0.000 A 
ATOM     30  C   UNL     1      -5.336  11.388  17.848  0.00  0.00    +0.000 A 
ATOM     31  C   UNL     1      -5.373  12.060  19.070  0.00  0.00    +0.000 A 
ATOM     32  C   UNL     1      -4.184  12.402  19.722  0.00  0.00    +0.000 A 
ENDBRANCH  26  27
ENDBRANCH  24  26
ENDBRANCH  18  20
ENDBRANCH  12  18
TORSDOF 5
ENDMDL
