MODEL 1
REMARK VINA RESULT:      -7.8      0.000      0.000
REMARK  Name = 
REMARK  12 active torsions:
REMARK  status: ('A' for Active; 'I' for Inactive)
REMARK    1  A    between atoms: C_1  and  C_2
REMARK    2  A    between atoms: C_2  and  O_3
REMARK    3  A    between atoms: O_3  and  C_4
REMARK    4  A    between atoms: C_4  and  C_6
REMARK    5  A    between atoms: C_6  and  C_7
REMARK    6  A    between atoms: N_8  and  C_9
REMARK    7  A    between atoms: C_11  and  C_12
REMARK    8  A    between atoms: N_14  and  C_15
REMARK    9  A    between atoms: C_22  and  O_23
REMARK   10  A    between atoms: C_22  and  O_24
REMARK   11  A    between atoms: O_24  and  C_25
REMARK   12  A    between atoms: C_25  and  C_26
REMARK                            x       y       z     vdW  Elec       q    Type
REMARK                         _______ _______ _______ _____ _____    ______ ____
ROOT
ATOM      1  C   UNL     1       5.518   4.895  18.252  0.00  0.00    +0.000 C 
ATOM      2  N   UNL     1       4.536   5.604  18.687  0.00  0.00    +0.000 NA
ENDROOT
BRANCH   2   3
ATOM      3  C   UNL     1       3.569   4.998  19.430  0.00  0.00    +0.000 A 
ATOM      4  C   UNL     1       3.416   3.722  19.926  0.00  0.00    +0.000 A 
ATOM      5  C   UNL     1       2.277   3.760  20.753  0.00  0.00    +0.000 A 
ATOM      6  C   UNL     1       1.669   2.628  21.492  0.00  0.00    +0.000 C 
ATOM      7  N   UNL     1       1.770   4.992  20.844  0.00  0.00    +0.000 NA
ATOM      8  N   UNL     1       2.507   5.728  19.964  0.00  0.00    +0.000 N 
BRANCH   8   9
ATOM      9  C   UNL     1       2.135   7.064  19.652  0.00  0.00    +0.000 A 
ATOM     10  C   UNL     1       1.566   7.872  20.644  0.00  0.00    +0.000 A 
ATOM     11  C   UNL     1       1.148   9.166  20.324  0.00  0.00    +0.000 A 
ATOM     12  C   UNL     1       1.259   9.629  19.013  0.00  0.00    +0.000 A 
ATOM     13 CL   UNL     1       0.656  11.189  18.603  0.00  0.00    +0.000 Cl
ATOM     14  C   UNL     1       1.831   8.833  18.024  0.00  0.00    +0.000 A 
ATOM     15  C   UNL     1       2.290   7.556  18.347  0.00  0.00    +0.000 A 
ENDBRANCH   8   9
ENDBRANCH   2   3
BRANCH   1  16
ATOM     16  C   UNL     1       6.622   5.473  17.443  0.00  0.00    +0.000 C 
ATOM     17  C   UNL     1       6.744   5.039  16.171  0.00  0.00    +0.000 C 
BRANCH  16  18
ATOM     18  C   UNL     1       7.623   6.423  17.992  0.00  0.00    +0.000 C 
ATOM     19  O   UNL     1       8.087   6.303  19.116  0.00  0.00    +0.000 OA
BRANCH  18  20
ATOM     20  O   UNL     1       7.826   7.482  17.174  0.00  0.00    +0.000 OA
BRANCH  20  22
ATOM     21  C   UNL     1       8.541   9.519  18.164  0.00  0.00    +0.000 C 
ATOM     22  C   UNL     1       7.343   8.744  17.649  0.00  0.00    +0.000 C 
ENDBRANCH  20  22
ENDBRANCH  18  20
ENDBRANCH  16  18
BRANCH  17  23
ATOM     23  O   UNL     1       7.748   5.470  15.319  0.00  0.00    +0.000 OA
ATOM     24  H   UNL     1       8.189   4.690  14.914  0.00  0.00    +0.000 HD
ENDBRANCH  17  23
BRANCH  17  25
ATOM     25  O   UNL     1       5.805   4.151  15.660  0.00  0.00    +0.000 OA
BRANCH  25  26
ATOM     26  C   UNL     1       5.296   4.526  14.377  0.00  0.00    +0.000 C 
ATOM     27  C   UNL     1       5.953   3.639  13.333  0.00  0.00    +0.000 C 
ENDBRANCH  25  26
ENDBRANCH  17  25
ENDBRANCH   1  16
TORSDOF 9
ENDMDL
MODEL 2
REMARK VINA RESULT:      -7.7      1.415      1.529
REMARK  Name = 
REMARK  12 active torsions:
REMARK  status: ('A' for Active; 'I' for Inactive)
REMARK    1  A    between atoms: C_1  and  C_2
REMARK    2  A    between atoms: C_2  and  O_3
REMARK    3  A    between atoms: O_3  and  C_4
REMARK    4  A    between atoms: C_4  and  C_6
REMARK    5  A    between atoms: C_6  and  C_7
REMARK    6  A    between atoms: N_8  and  C_9
REMARK    7  A    between atoms: C_11  and  C_12
REMARK    8  A    between atoms: N_14  and  C_15
REMARK    9  A    between atoms: C_22  and  O_23
REMARK   10  A    between atoms: C_22  and  O_24
REMARK   11  A    between atoms: O_24  and  C_25
REMARK   12  A    between atoms: C_25  and  C_26
REMARK                            x       y       z     vdW  Elec       q    Type
REMARK                         _______ _______ _______ _____ _____    ______ ____
ROOT
ATOM      1  C   UNL     1       5.045   4.319  16.652  0.00  0.00    +0.000 C 
ATOM      2  N   UNL     1       4.517   4.661  17.775  0.00  0.00    +0.000 NA
ENDROOT
BRANCH   2   3
ATOM      3  C   UNL     1       3.339   4.087  18.146  0.00  0.00    +0.000 A 
ATOM      4  C   UNL     1       2.894   2.785  18.194  0.00  0.00    +0.000 A 
ATOM      5  C   UNL     1       1.633   2.827  18.820  0.00  0.00    +0.000 A 
ATOM      6  C   UNL     1       0.722   1.686  19.075  0.00  0.00    +0.000 C 
ATOM      7  N   UNL     1       1.316   4.063  19.216  0.00  0.00    +0.000 NA
ATOM      8  N   UNL     1       2.319   4.844  18.724  0.00  0.00    +0.000 N 
BRANCH   8   9
ATOM      9  C   UNL     1       2.230   6.261  18.792  0.00  0.00    +0.000 A 
ATOM     10  C   UNL     1       1.945   6.877  20.017  0.00  0.00    +0.000 A 
ATOM     11  C   UNL     1       1.801   8.265  20.075  0.00  0.00    +0.000 A 
ATOM     12  C   UNL     1       1.897   9.023  18.908  0.00  0.00    +0.000 A 
ATOM     13 CL   UNL     1       1.625  10.722  18.969  0.00  0.00    +0.000 Cl
ATOM     14  C   UNL     1       2.187   8.418  17.688  0.00  0.00    +0.000 A 
ATOM     15  C   UNL     1       2.375   7.038  17.632  0.00  0.00    +0.000 A 
ENDBRANCH   8   9
ENDBRANCH   2   3
BRANCH   1  16
ATOM     16  C   UNL     1       6.332   4.885  16.172  0.00  0.00    +0.000 C 
ATOM     17  C   UNL     1       6.558   4.855  14.842  0.00  0.00    +0.000 C 
BRANCH  16  18
ATOM     18  C   UNL     1       7.390   5.392  17.082  0.00  0.00    +0.000 C 
ATOM     19  O   UNL     1       7.765   4.761  18.060  0.00  0.00    +0.000 OA
BRANCH  18  20
ATOM     20  O   UNL     1       7.756   6.661  16.786  0.00  0.00    +0.000 OA
BRANCH  20  22
ATOM     21  C   UNL     1       8.161   8.701  17.934  0.00  0.00    +0.000 C 
ATOM     22  C   UNL     1       7.100   7.694  17.530  0.00  0.00    +0.000 C 
ENDBRANCH  20  22
ENDBRANCH  18  20
ENDBRANCH  16  18
BRANCH  17  23
ATOM     23  O   UNL     1       7.728   5.319  14.263  0.00  0.00    +0.000 OA
ATOM     24  H   UNL     1       8.493   5.061  14.824  0.00  0.00    +0.000 HD
ENDBRANCH  17  23
BRANCH  17  25
ATOM     25  O   UNL     1       5.566   4.382  13.991  0.00  0.00    +0.000 OA
BRANCH  25  26
ATOM     26  C   UNL     1       6.062   3.590  12.909  0.00  0.00    +0.000 C 
ATOM     27  C   UNL     1       4.904   3.301  11.969  0.00  0.00    +0.000 C 
ENDBRANCH  25  26
ENDBRANCH  17  25
ENDBRANCH   1  16
TORSDOF 9
ENDMDL
MODEL 3
REMARK VINA RESULT:      -7.5      0.646      1.147
REMARK  Name = 
REMARK  12 active torsions:
REMARK  status: ('A' for Active; 'I' for Inactive)
REMARK    1  A    between atoms: C_1  and  C_2
REMARK    2  A    between atoms: C_2  and  O_3
REMARK    3  A    between atoms: O_3  and  C_4
REMARK    4  A    between atoms: C_4  and  C_6
REMARK    5  A    between atoms: C_6  and  C_7
REMARK    6  A    between atoms: N_8  and  C_9
REMARK    7  A    between atoms: C_11  and  C_12
REMARK    8  A    between atoms: N_14  and  C_15
REMARK    9  A    between atoms: C_22  and  O_23
REMARK   10  A    between atoms: C_22  and  O_24
REMARK   11  A    between atoms: O_24  and  C_25
REMARK   12  A    between atoms: C_25  and  C_26
REMARK                            x       y       z     vdW  Elec       q    Type
REMARK                         _______ _______ _______ _____ _____    ______ ____
ROOT
ATOM      1  C   UNL     1       5.274   4.485  18.305  0.00  0.00    +0.000 C 
ATOM      2  N   UNL     1       4.696   5.125  19.260  0.00  0.00    +0.000 NA
ENDROOT
BRANCH   2   3
ATOM      3  C   UNL     1       3.594   4.578  19.843  0.00  0.00    +0.000 A 
ATOM      4  C   UNL     1       3.328   3.344  20.394  0.00  0.00    +0.000 A 
ATOM      5  C   UNL     1       2.050   3.446  20.977  0.00  0.00    +0.000 A 
ATOM      6  C   UNL     1       1.293   2.374  21.665  0.00  0.00    +0.000 C 
ATOM      7  N   UNL     1       1.554   4.682  20.875  0.00  0.00    +0.000 NA
ATOM      8  N   UNL     1       2.460   5.347  20.103  0.00  0.00    +0.000 N 
BRANCH   8   9
ATOM      9  C   UNL     1       2.176   6.656  19.625  0.00  0.00    +0.000 A 
ATOM     10  C   UNL     1       2.491   6.991  18.302  0.00  0.00    +0.000 A 
ATOM     11  C   UNL     1       2.265   8.292  17.848  0.00  0.00    +0.000 A 
ATOM     12  C   UNL     1       1.769   9.259  18.723  0.00  0.00    +0.000 A 
ATOM     13 CL   UNL     1       1.582  10.883  18.184  0.00  0.00    +0.000 Cl
ATOM     14  C   UNL     1       1.447   8.930  20.037  0.00  0.00    +0.000 A 
ATOM     15  C   UNL     1       1.630   7.622  20.484  0.00  0.00    +0.000 A 
ENDBRANCH   8   9
ENDBRANCH   2   3
BRANCH   1  16
ATOM     16  C   UNL     1       6.487   5.000  17.619  0.00  0.00    +0.000 C 
ATOM     17  C   UNL     1       6.658   4.648  16.328  0.00  0.00    +0.000 C 
BRANCH  16  18
ATOM     18  C   UNL     1       7.536   5.796  18.306  0.00  0.00    +0.000 C 
ATOM     19  O   UNL     1       8.143   5.372  19.278  0.00  0.00    +0.000 OA
BRANCH  18  20
ATOM     20  O   UNL     1       7.614   7.060  17.829  0.00  0.00    +0.000 OA
BRANCH  20  22
ATOM     21  C   UNL     1       8.287   9.336  17.943  0.00  0.00    +0.000 C 
ATOM     22  C   UNL     1       8.435   7.965  18.577  0.00  0.00    +0.000 C 
ENDBRANCH  20  22
ENDBRANCH  18  20
ENDBRANCH  16  18
BRANCH  17  23
ATOM     23  O   UNL     1       7.760   5.031  15.580  0.00  0.00    +0.000 OA
ATOM     24  H   UNL     1       8.507   5.240  16.183  0.00  0.00    +0.000 HD
ENDBRANCH  17  23
BRANCH  17  25
ATOM     25  O   UNL     1       5.675   3.905  15.687  0.00  0.00    +0.000 OA
BRANCH  25  26
ATOM     26  C   UNL     1       5.254   4.460  14.437  0.00  0.00    +0.000 C 
ATOM     27  C   UNL     1       5.849   3.615  13.324  0.00  0.00    +0.000 C 
ENDBRANCH  25  26
ENDBRANCH  17  25
ENDBRANCH   1  16
TORSDOF 9
ENDMDL
MODEL 4
REMARK VINA RESULT:      -7.4      1.652      1.938
REMARK  Name = 
REMARK  12 active torsions:
REMARK  status: ('A' for Active; 'I' for Inactive)
REMARK    1  A    between atoms: C_1  and  C_2
REMARK    2  A    between atoms: C_2  and  O_3
REMARK    3  A    between atoms: O_3  and  C_4
REMARK    4  A    between atoms: C_4  and  C_6
REMARK    5  A    between atoms: C_6  and  C_7
REMARK    6  A    between atoms: N_8  and  C_9
REMARK    7  A    between atoms: C_11  and  C_12
REMARK    8  A    between atoms: N_14  and  C_15
REMARK    9  A    between atoms: C_22  and  O_23
REMARK   10  A    between atoms: C_22  and  O_24
REMARK   11  A    between atoms: O_24  and  C_25
REMARK   12  A    between atoms: C_25  and  C_26
REMARK                            x       y       z     vdW  Elec       q    Type
REMARK                         _______ _______ _______ _____ _____    ______ ____
ROOT
ATOM      1  C   UNL     1       4.743   4.784  16.480  0.00  0.00    +0.000 C 
ATOM      2  N   UNL     1       4.344   4.941  17.693  0.00  0.00    +0.000 NA
ENDROOT
BRANCH   2   3
ATOM      3  C   UNL     1       3.190   4.334  18.087  0.00  0.00    +0.000 A 
ATOM      4  C   UNL     1       2.765   3.024  18.098  0.00  0.00    +0.000 A 
ATOM      5  C   UNL     1       1.530   3.021  18.775  0.00  0.00    +0.000 A 
ATOM      6  C   UNL     1       0.646   1.856  19.017  0.00  0.00    +0.000 C 
ATOM      7  N   UNL     1       1.213   4.234  19.235  0.00  0.00    +0.000 NA
ATOM      8  N   UNL     1       2.184   5.050  18.736  0.00  0.00    +0.000 N 
BRANCH   8   9
ATOM      9  C   UNL     1       2.078   6.461  18.868  0.00  0.00    +0.000 A 
ATOM     10  C   UNL     1       1.821   7.020  20.126  0.00  0.00    +0.000 A 
ATOM     11  C   UNL     1       1.660   8.402  20.247  0.00  0.00    +0.000 A 
ATOM     12  C   UNL     1       1.713   9.211  19.113  0.00  0.00    +0.000 A 
ATOM     13 CL   UNL     1       1.419  10.902  19.254  0.00  0.00    +0.000 Cl
ATOM     14  C   UNL     1       1.975   8.663  17.860  0.00  0.00    +0.000 A 
ATOM     15  C   UNL     1       2.180   7.289  17.739  0.00  0.00    +0.000 A 
ENDBRANCH   8   9
ENDBRANCH   2   3
BRANCH   1  16
ATOM     16  C   UNL     1       5.994   5.400  15.967  0.00  0.00    +0.000 C 
ATOM     17  C   UNL     1       6.433   4.984  14.760  0.00  0.00    +0.000 C 
BRANCH  16  18
ATOM     18  C   UNL     1       6.806   6.367  16.748  0.00  0.00    +0.000 C 
ATOM     19  O   UNL     1       6.506   7.548  16.837  0.00  0.00    +0.000 OA
BRANCH  18  20
ATOM     20  O   UNL     1       7.960   5.820  17.199  0.00  0.00    +0.000 OA
BRANCH  20  22
ATOM     21  C   UNL     1       7.749   5.709  19.563  0.00  0.00    +0.000 C 
ATOM     22  C   UNL     1       7.834   4.894  18.285  0.00  0.00    +0.000 C 
ENDBRANCH  20  22
ENDBRANCH  18  20
ENDBRANCH  16  18
BRANCH  17  23
ATOM     23  O   UNL     1       7.601   5.451  14.179  0.00  0.00    +0.000 OA
ATOM     24  H   UNL     1       7.491   6.399  13.943  0.00  0.00    +0.000 HD
ENDBRANCH  17  23
BRANCH  17  25
ATOM     25  O   UNL     1       5.670   4.081  14.030  0.00  0.00    +0.000 OA
BRANCH  25  26
ATOM     26  C   UNL     1       6.298   3.635  12.826  0.00  0.00    +0.000 C 
ATOM     27  C   UNL     1       5.213   3.140  11.885  0.00  0.00    +0.000 C 
ENDBRANCH  25  26
ENDBRANCH  17  25
ENDBRANCH   1  16
TORSDOF 9
ENDMDL
MODEL 5
REMARK VINA RESULT:      -7.0      0.958      1.317
REMARK  Name = 
REMARK  12 active torsions:
REMARK  status: ('A' for Active; 'I' for Inactive)
REMARK    1  A    between atoms: C_1  and  C_2
REMARK    2  A    between atoms: C_2  and  O_3
REMARK    3  A    between atoms: O_3  and  C_4
REMARK    4  A    between atoms: C_4  and  C_6
REMARK    5  A    between atoms: C_6  and  C_7
REMARK    6  A    between atoms: N_8  and  C_9
REMARK    7  A    between atoms: C_11  and  C_12
REMARK    8  A    between atoms: N_14  and  C_15
REMARK    9  A    between atoms: C_22  and  O_23
REMARK   10  A    between atoms: C_22  and  O_24
REMARK   11  A    between atoms: O_24  and  C_25
REMARK   12  A    between atoms: C_25  and  C_26
REMARK                            x       y       z     vdW  Elec       q    Type
REMARK                         _______ _______ _______ _____ _____    ______ ____
ROOT
ATOM      1  C   UNL     1       5.094   5.022  17.339  0.00  0.00    +0.000 C 
ATOM      2  N   UNL     1       4.653   5.524  18.440  0.00  0.00    +0.000 NA
ENDROOT
BRANCH   2   3
ATOM      3  C   UNL     1       3.650   4.880  19.098  0.00  0.00    +0.000 A 
ATOM      4  C   UNL     1       3.464   3.574  19.496  0.00  0.00    +0.000 A 
ATOM      5  C   UNL     1       2.293   3.569  20.277  0.00  0.00    +0.000 A 
ATOM      6  C   UNL     1       1.644   2.395  20.908  0.00  0.00    +0.000 C 
ATOM      7  N   UNL     1       1.795   4.798  20.436  0.00  0.00    +0.000 NA
ATOM      8  N   UNL     1       2.576   5.584  19.641  0.00  0.00    +0.000 N 
BRANCH   8   9
ATOM      9  C   UNL     1       2.230   6.944  19.410  0.00  0.00    +0.000 A 
ATOM     10  C   UNL     1       1.669   7.699  20.447  0.00  0.00    +0.000 A 
ATOM     11  C   UNL     1       1.277   9.018  20.205  0.00  0.00    +0.000 A 
ATOM     12  C   UNL     1       1.407   9.560  18.926  0.00  0.00    +0.000 A 
ATOM     13 CL   UNL     1       0.835  11.153  18.611  0.00  0.00    +0.000 Cl
ATOM     14  C   UNL     1       1.971   8.816  17.893  0.00  0.00    +0.000 A 
ATOM     15  C   UNL     1       2.404   7.514  18.139  0.00  0.00    +0.000 A 
ENDBRANCH   8   9
ENDBRANCH   2   3
BRANCH   1  16
ATOM     16  C   UNL     1       6.191   5.651  16.560  0.00  0.00    +0.000 C 
ATOM     17  C   UNL     1       6.563   5.037  15.417  0.00  0.00    +0.000 C 
BRANCH  16  18
ATOM     18  C   UNL     1       6.935   6.851  17.021  0.00  0.00    +0.000 C 
ATOM     19  O   UNL     1       6.563   7.986  16.763  0.00  0.00    +0.000 OA
BRANCH  18  20
ATOM     20  O   UNL     1       8.113   6.530  17.605  0.00  0.00    +0.000 OA
BRANCH  20  22
ATOM     21  C   UNL     1       8.022   5.532  19.759  0.00  0.00    +0.000 C 
ATOM     22  C   UNL     1       8.224   6.831  19.002  0.00  0.00    +0.000 C 
ENDBRANCH  20  22
ENDBRANCH  18  20
ENDBRANCH  16  18
BRANCH  17  23
ATOM     23  O   UNL     1       7.593   5.496  14.613  0.00  0.00    +0.000 OA
ATOM     24  H   UNL     1       7.418   6.431  14.363  0.00  0.00    +0.000 HD
ENDBRANCH  17  23
BRANCH  17  25
ATOM     25  O   UNL     1       5.865   3.915  14.987  0.00  0.00    +0.000 OA
BRANCH  25  26
ATOM     26  C   UNL     1       5.253   4.072  13.704  0.00  0.00    +0.000 C 
ATOM     27  C   UNL     1       6.105   3.337  12.684  0.00  0.00    +0.000 C 
ENDBRANCH  25  26
ENDBRANCH  17  25
ENDBRANCH   1  16
TORSDOF 9
ENDMDL
MODEL 6
REMARK VINA RESULT:      -6.9      0.858      1.285
REMARK  Name = 
REMARK  12 active torsions:
REMARK  status: ('A' for Active; 'I' for Inactive)
REMARK    1  A    between atoms: C_1  and  C_2
REMARK    2  A    between atoms: C_2  and  O_3
REMARK    3  A    between atoms: O_3  and  C_4
REMARK    4  A    between atoms: C_4  and  C_6
REMARK    5  A    between atoms: C_6  and  C_7
REMARK    6  A    between atoms: N_8  and  C_9
REMARK    7  A    between atoms: C_11  and  C_12
REMARK    8  A    between atoms: N_14  and  C_15
REMARK    9  A    between atoms: C_22  and  O_23
REMARK   10  A    between atoms: C_22  and  O_24
REMARK   11  A    between atoms: O_24  and  C_25
REMARK   12  A    between atoms: C_25  and  C_26
REMARK                            x       y       z     vdW  Elec       q    Type
REMARK                         _______ _______ _______ _____ _____    ______ ____
ROOT
ATOM      1  C   UNL     1       5.430   4.840  17.560  0.00  0.00    +0.000 C 
ATOM      2  N   UNL     1       4.284   5.413  17.682  0.00  0.00    +0.000 NA
ENDROOT
BRANCH   2   3
ATOM      3  C   UNL     1       3.285   4.748  18.325  0.00  0.00    +0.000 A 
ATOM      4  C   UNL     1       3.037   3.415  18.568  0.00  0.00    +0.000 A 
ATOM      5  C   UNL     1       1.921   3.376  19.425  0.00  0.00    +0.000 A 
ATOM      6  C   UNL     1       1.237   2.170  19.949  0.00  0.00    +0.000 C 
ATOM      7  N   UNL     1       1.518   4.601  19.772  0.00  0.00    +0.000 NA
ATOM      8  N   UNL     1       2.296   5.437  19.028  0.00  0.00    +0.000 N 
BRANCH   8   9
ATOM      9  C   UNL     1       2.029   6.833  18.995  0.00  0.00    +0.000 A 
ATOM     10  C   UNL     1       2.140   7.529  17.785  0.00  0.00    +0.000 A 
ATOM     11  C   UNL     1       1.932   8.910  17.763  0.00  0.00    +0.000 A 
ATOM     12  C   UNL     1       1.659   9.593  18.948  0.00  0.00    +0.000 A 
ATOM     13 CL   UNL     1       1.498  11.307  18.930  0.00  0.00    +0.000 Cl
ATOM     14  C   UNL     1       1.540   8.905  20.153  0.00  0.00    +0.000 A 
ATOM     15  C   UNL     1       1.703   7.520  20.175  0.00  0.00    +0.000 A 
ENDBRANCH   8   9
ENDBRANCH   2   3
BRANCH   1  16
ATOM     16  C   UNL     1       6.580   5.494  16.883  0.00  0.00    +0.000 C 
ATOM     17  C   UNL     1       6.783   5.188  15.584  0.00  0.00    +0.000 C 
BRANCH  16  18
ATOM     18  C   UNL     1       7.540   6.383  17.584  0.00  0.00    +0.000 C 
ATOM     19  O   UNL     1       8.008   6.102  18.678  0.00  0.00    +0.000 OA
BRANCH  18  20
ATOM     20  O   UNL     1       7.701   7.567  16.948  0.00  0.00    +0.000 OA
BRANCH  20  22
ATOM     21  C   UNL     1       8.619   9.455  18.059  0.00  0.00    +0.000 C 
ATOM     22  C   UNL     1       7.335   8.735  17.692  0.00  0.00    +0.000 C 
ENDBRANCH  20  22
ENDBRANCH  18  20
ENDBRANCH  16  18
BRANCH  17  23
ATOM     23  O   UNL     1       7.835   5.700  14.843  0.00  0.00    +0.000 OA
ATOM     24  H   UNL     1       7.489   6.077  14.004  0.00  0.00    +0.000 HD
ENDBRANCH  17  23
BRANCH  17  25
ATOM     25  O   UNL     1       5.881   4.357  14.929  0.00  0.00    +0.000 OA
BRANCH  25  26
ATOM     26  C   UNL     1       6.340   3.898  13.655  0.00  0.00    +0.000 C 
ATOM     27  C   UNL     1       5.122   3.592  12.800  0.00  0.00    +0.000 C 
ENDBRANCH  25  26
ENDBRANCH  17  25
ENDBRANCH   1  16
TORSDOF 9
ENDMDL
MODEL 7
REMARK VINA RESULT:      -6.9      3.248      6.713
REMARK  Name = 
REMARK  12 active torsions:
REMARK  status: ('A' for Active; 'I' for Inactive)
REMARK    1  A    between atoms: C_1  and  C_2
REMARK    2  A    between atoms: C_2  and  O_3
REMARK    3  A    between atoms: O_3  and  C_4
REMARK    4  A    between atoms: C_4  and  C_6
REMARK    5  A    between atoms: C_6  and  C_7
REMARK    6  A    between atoms: N_8  and  C_9
REMARK    7  A    between atoms: C_11  and  C_12
REMARK    8  A    between atoms: N_14  and  C_15
REMARK    9  A    between atoms: C_22  and  O_23
REMARK   10  A    between atoms: C_22  and  O_24
REMARK   11  A    between atoms: O_24  and  C_25
REMARK   12  A    between atoms: C_25  and  C_26
REMARK                            x       y       z     vdW  Elec       q    Type
REMARK                         _______ _______ _______ _____ _____    ______ ____
ROOT
ATOM      1  C   UNL     1       3.416   5.525  17.847  0.00  0.00    +0.000 C 
ATOM      2  N   UNL     1       4.552   4.919  17.871  0.00  0.00    +0.000 NA
ENDROOT
BRANCH   2   3
ATOM      3  C   UNL     1       5.220   4.733  16.699  0.00  0.00    +0.000 A 
ATOM      4  C   UNL     1       5.039   3.884  15.630  0.00  0.00    +0.000 A 
ATOM      5  C   UNL     1       5.968   4.286  14.652  0.00  0.00    +0.000 A 
ATOM      6  C   UNL     1       6.199   3.662  13.327  0.00  0.00    +0.000 C 
ATOM      7  N   UNL     1       6.654   5.367  15.033  0.00  0.00    +0.000 NA
ATOM      8  N   UNL     1       6.258   5.584  16.319  0.00  0.00    +0.000 N 
BRANCH   8   9
ATOM      9  C   UNL     1       6.916   6.554  17.122  0.00  0.00    +0.000 A 
ATOM     10  C   UNL     1       6.819   7.910  16.786  0.00  0.00    +0.000 A 
ATOM     11  C   UNL     1       7.511   8.859  17.542  0.00  0.00    +0.000 A 
ATOM     12  C   UNL     1       8.328   8.450  18.596  0.00  0.00    +0.000 A 
ATOM     13 CL   UNL     1       9.253   9.614  19.463  0.00  0.00    +0.000 Cl
ATOM     14  C   UNL     1       8.423   7.104  18.940  0.00  0.00    +0.000 A 
ATOM     15  C   UNL     1       7.700   6.156  18.217  0.00  0.00    +0.000 A 
ENDBRANCH   8   9
ENDBRANCH   2   3
BRANCH   1  16
ATOM     16  C   UNL     1       2.623   5.780  19.077  0.00  0.00    +0.000 C 
ATOM     17  C   UNL     1       2.389   7.069  19.401  0.00  0.00    +0.000 C 
BRANCH  16  18
ATOM     18  C   UNL     1       2.163   4.702  19.988  0.00  0.00    +0.000 C 
ATOM     19  O   UNL     1       2.554   4.613  21.143  0.00  0.00    +0.000 OA
BRANCH  18  20
ATOM     20  O   UNL     1       1.405   3.780  19.349  0.00  0.00    +0.000 OA
BRANCH  20  22
ATOM     21  C   UNL     1       2.728   1.929  18.666  0.00  0.00    +0.000 C 
ATOM     22  C   UNL     1       1.687   2.410  19.659  0.00  0.00    +0.000 C 
ENDBRANCH  20  22
ENDBRANCH  18  20
ENDBRANCH  16  18
BRANCH  17  23
ATOM     23  O   UNL     1       1.693   7.449  20.536  0.00  0.00    +0.000 OA
ATOM     24  H   UNL     1       2.170   8.185  20.980  0.00  0.00    +0.000 HD
ENDBRANCH  17  23
BRANCH  17  25
ATOM     25  O   UNL     1       2.820   8.076  18.545  0.00  0.00    +0.000 OA
BRANCH  25  26
ATOM     26  C   UNL     1       1.764   8.696  17.806  0.00  0.00    +0.000 C 
ATOM     27  C   UNL     1       1.575  10.103  18.347  0.00  0.00    +0.000 C 
ENDBRANCH  25  26
ENDBRANCH  17  25
ENDBRANCH   1  16
TORSDOF 9
ENDMDL
MODEL 8
REMARK VINA RESULT:      -6.9      1.456      1.999
REMARK  Name = 
REMARK  12 active torsions:
REMARK  status: ('A' for Active; 'I' for Inactive)
REMARK    1  A    between atoms: C_1  and  C_2
REMARK    2  A    between atoms: C_2  and  O_3
REMARK    3  A    between atoms: O_3  and  C_4
REMARK    4  A    between atoms: C_4  and  C_6
REMARK    5  A    between atoms: C_6  and  C_7
REMARK    6  A    between atoms: N_8  and  C_9
REMARK    7  A    between atoms: C_11  and  C_12
REMARK    8  A    between atoms: N_14  and  C_15
REMARK    9  A    between atoms: C_22  and  O_23
REMARK   10  A    between atoms: C_22  and  O_24
REMARK   11  A    between atoms: O_24  and  C_25
REMARK   12  A    between atoms: C_25  and  C_26
REMARK                            x       y       z     vdW  Elec       q    Type
REMARK                         _______ _______ _______ _____ _____    ______ ____
ROOT
ATOM      1  C   UNL     1       4.913   4.781  16.601  0.00  0.00    +0.000 C 
ATOM      2  N   UNL     1       4.446   5.048  17.770  0.00  0.00    +0.000 NA
ENDROOT
BRANCH   2   3
ATOM      3  C   UNL     1       3.355   4.365  18.213  0.00  0.00    +0.000 A 
ATOM      4  C   UNL     1       3.052   3.025  18.310  0.00  0.00    +0.000 A 
ATOM      5  C   UNL     1       1.826   2.952  18.998  0.00  0.00    +0.000 A 
ATOM      6  C   UNL     1       1.053   1.729  19.322  0.00  0.00    +0.000 C 
ATOM      7  N   UNL     1       1.400   4.157  19.384  0.00  0.00    +0.000 NA
ATOM      8  N   UNL     1       2.290   5.026  18.825  0.00  0.00    +0.000 N 
BRANCH   8   9
ATOM      9  C   UNL     1       2.054   6.427  18.869  0.00  0.00    +0.000 A 
ATOM     10  C   UNL     1       2.146   7.180  17.692  0.00  0.00    +0.000 A 
ATOM     11  C   UNL     1       1.971   8.565  17.743  0.00  0.00    +0.000 A 
ATOM     12  C   UNL     1       1.749   9.193  18.968  0.00  0.00    +0.000 A 
ATOM     13 CL   UNL     1       1.628  10.909  19.039  0.00  0.00    +0.000 Cl
ATOM     14  C   UNL     1       1.649   8.450  20.141  0.00  0.00    +0.000 A 
ATOM     15  C   UNL     1       1.780   7.062  20.090  0.00  0.00    +0.000 A 
ENDBRANCH   8   9
ENDBRANCH   2   3
BRANCH   1  16
ATOM     16  C   UNL     1       6.105   5.469  16.042  0.00  0.00    +0.000 C 
ATOM     17  C   UNL     1       6.663   4.930  14.938  0.00  0.00    +0.000 C 
BRANCH  16  18
ATOM     18  C   UNL     1       6.741   6.647  16.683  0.00  0.00    +0.000 C 
ATOM     19  O   UNL     1       6.298   7.779  16.552  0.00  0.00    +0.000 OA
BRANCH  18  20
ATOM     20  O   UNL     1       7.916   6.334  17.278  0.00  0.00    +0.000 OA
BRANCH  20  22
ATOM     21  C   UNL     1       7.703   5.608  19.530  0.00  0.00    +0.000 C 
ATOM     22  C   UNL     1       8.072   6.775  18.632  0.00  0.00    +0.000 C 
ENDBRANCH  20  22
ENDBRANCH  18  20
ENDBRANCH  16  18
BRANCH  17  23
ATOM     23  O   UNL     1       7.796   5.450  14.333  0.00  0.00    +0.000 OA
ATOM     24  H   UNL     1       8.409   5.786  15.024  0.00  0.00    +0.000 HD
ENDBRANCH  17  23
BRANCH  17  25
ATOM     25  O   UNL     1       6.065   3.828  14.338  0.00  0.00    +0.000 OA
BRANCH  25  26
ATOM     26  C   UNL     1       6.348   3.706  12.942  0.00  0.00    +0.000 C 
ATOM     27  C   UNL     1       5.037   3.454  12.217  0.00  0.00    +0.000 C 
ENDBRANCH  25  26
ENDBRANCH  17  25
ENDBRANCH   1  16
TORSDOF 9
ENDMDL
MODEL 9
REMARK VINA RESULT:      -6.8      2.551      5.076
REMARK  Name = 
REMARK  12 active torsions:
REMARK  status: ('A' for Active; 'I' for Inactive)
REMARK    1  A    between atoms: C_1  and  C_2
REMARK    2  A    between atoms: C_2  and  O_3
REMARK    3  A    between atoms: O_3  and  C_4
REMARK    4  A    between atoms: C_4  and  C_6
REMARK    5  A    between atoms: C_6  and  C_7
REMARK    6  A    between atoms: N_8  and  C_9
REMARK    7  A    between atoms: C_11  and  C_12
REMARK    8  A    between atoms: N_14  and  C_15
REMARK    9  A    between atoms: C_22  and  O_23
REMARK   10  A    between atoms: C_22  and  O_24
REMARK   11  A    between atoms: O_24  and  C_25
REMARK   12  A    between atoms: C_25  and  C_26
REMARK                            x       y       z     vdW  Elec       q    Type
REMARK                         _______ _______ _______ _____ _____    ______ ____
ROOT
ATOM      1  C   UNL     1       5.653   6.271  17.108  0.00  0.00    +0.000 C 
ATOM      2  N   UNL     1       4.431   5.956  17.362  0.00  0.00    +0.000 NA
ENDROOT
BRANCH   2   3
ATOM      3  C   UNL     1       3.555   6.944  17.694  0.00  0.00    +0.000 A 
ATOM      4  C   UNL     1       3.396   8.248  17.278  0.00  0.00    +0.000 A 
ATOM      5  C   UNL     1       2.207   8.705  17.879  0.00  0.00    +0.000 A 
ATOM      6  C   UNL     1       1.617  10.061  17.776  0.00  0.00    +0.000 C 
ATOM      7  N   UNL     1       1.600   7.742  18.577  0.00  0.00    +0.000 NA
ATOM      8  N   UNL     1       2.471   6.694  18.535  0.00  0.00    +0.000 N 
BRANCH   8   9
ATOM      9  C   UNL     1       2.245   5.536  19.329  0.00  0.00    +0.000 A 
ATOM     10  C   UNL     1       1.553   4.448  18.783  0.00  0.00    +0.000 A 
ATOM     11  C   UNL     1       1.281   3.333  19.579  0.00  0.00    +0.000 A 
ATOM     12  C   UNL     1       1.659   3.328  20.921  0.00  0.00    +0.000 A 
ATOM     13 CL   UNL     1       1.238   1.992  21.922  0.00  0.00    +0.000 Cl
ATOM     14  C   UNL     1       2.354   4.403  21.469  0.00  0.00    +0.000 A 
ATOM     15  C   UNL     1       2.667   5.501  20.668  0.00  0.00    +0.000 A 
ENDBRANCH   8   9
ENDBRANCH   2   3
BRANCH   1  16
ATOM     16  C   UNL     1       6.674   5.261  16.728  0.00  0.00    +0.000 C 
ATOM     17  C   UNL     1       7.413   4.730  17.724  0.00  0.00    +0.000 C 
BRANCH  16  18
ATOM     18  C   UNL     1       6.964   4.886  15.321  0.00  0.00    +0.000 C 
ATOM     19  O   UNL     1       7.665   5.575  14.594  0.00  0.00    +0.000 OA
BRANCH  18  20
ATOM     20  O   UNL     1       6.251   3.807  14.921  0.00  0.00    +0.000 OA
BRANCH  20  22
ATOM     21  C   UNL     1       6.151   3.425  12.578  0.00  0.00    +0.000 C 
ATOM     22  C   UNL     1       5.413   3.997  13.775  0.00  0.00    +0.000 C 
ENDBRANCH  20  22
ENDBRANCH  18  20
ENDBRANCH  16  18
BRANCH  17  23
ATOM     23  O   UNL     1       8.420   3.804  17.507  0.00  0.00    +0.000 OA
ATOM     24  H   UNL     1       8.654   3.371  18.357  0.00  0.00    +0.000 HD
ENDBRANCH  17  23
BRANCH  17  25
ATOM     25  O   UNL     1       7.138   5.081  19.040  0.00  0.00    +0.000 OA
BRANCH  25  26
ATOM     26  C   UNL     1       8.174   5.847  19.662  0.00  0.00    +0.000 C 
ATOM     27  C   UNL     1       8.328   7.144  18.888  0.00  0.00    +0.000 C 
ENDBRANCH  25  26
ENDBRANCH  17  25
ENDBRANCH   1  16
TORSDOF 9
ENDMDL
