MODEL 1
REMARK VINA RESULT:      -7.1      0.000      0.000
REMARK  Name = 
REMARK  5 active torsions:
REMARK  status: ('A' for Active; 'I' for Inactive)
REMARK    1  A    between atoms: C_1  and  C_2
REMARK    2  A    between atoms: C_6  and  C_7
REMARK    3  A    between atoms: C_7  and  N_8
REMARK    4  A    between atoms: C_13  and  C_14
REMARK    5  A    between atoms: C_14  and  O_15
REMARK                            x       y       z     vdW  Elec       q    Type
REMARK                         _______ _______ _______ _____ _____    ______ ____
ROOT
ATOM      1  C   UNL     1       4.113   5.601  17.882  0.00  0.00    +0.000 C 
ENDROOT
BRANCH   1   7
ATOM      2  C   UNL     1       1.875   2.900  21.469  0.00  0.00    +0.000 C 
ATOM      3  C   UNL     1       2.207   3.073  20.019  0.00  0.00    +0.000 A 
ATOM      4  C   UNL     1       1.918   2.081  19.077  0.00  0.00    +0.000 A 
ATOM      5  C   UNL     1       2.307   2.244  17.746  0.00  0.00    +0.000 A 
ATOM      6  C   UNL     1       3.010   3.385  17.350  0.00  0.00    +0.000 A 
ATOM      7  C   UNL     1       3.302   4.394  18.275  0.00  0.00    +0.000 A 
ATOM      8  C   UNL     1       2.866   4.230  19.594  0.00  0.00    +0.000 A 
ATOM      9  F   UNL     1       3.111   5.195  20.490  0.00  0.00    +0.000 F 
ENDBRANCH   1   7
BRANCH   1  10
ATOM     10  N   UNL     1       5.502   5.253  17.622  0.00  0.00    +0.000 N 
ATOM     11  C   UNL     1       6.397   5.032  18.647  0.00  0.00    +0.000 C 
ATOM     12  O   UNL     1       6.221   5.281  19.829  0.00  0.00    +0.000 OA
ATOM     13  O   UNL     1       7.528   4.435  18.157  0.00  0.00    +0.000 OA
ATOM     14  C   UNL     1       7.438   4.438  16.732  0.00  0.00    +0.000 C 
ATOM     15  C   UNL     1       5.947   4.525  16.457  0.00  0.00    +0.000 C 
BRANCH  15  16
ATOM     16  C   UNL     1       5.643   5.162  15.106  0.00  0.00    +0.000 C 
BRANCH  16  17
ATOM     17  O   UNL     1       6.836   5.510  14.412  0.00  0.00    +0.000 OA
ATOM     18  H   UNL     1       6.583   6.136  13.704  0.00  0.00    +0.000 HD
ENDBRANCH  16  17
ENDBRANCH  15  16
ENDBRANCH   1  10
TORSDOF 4
ENDMDL
MODEL 2
REMARK VINA RESULT:      -7.1      0.966      2.385
REMARK  Name = 
REMARK  5 active torsions:
REMARK  status: ('A' for Active; 'I' for Inactive)
REMARK    1  A    between atoms: C_1  and  C_2
REMARK    2  A    between atoms: C_6  and  C_7
REMARK    3  A    between atoms: C_7  and  N_8
REMARK    4  A    between atoms: C_13  and  C_14
REMARK    5  A    between atoms: C_14  and  O_15
REMARK                            x       y       z     vdW  Elec       q    Type
REMARK                         _______ _______ _______ _____ _____    ______ ____
ROOT
ATOM      1  C   UNL     1       4.076   5.415  17.366  0.00  0.00    +0.000 C 
ENDROOT
BRANCH   1   7
ATOM      2  C   UNL     1       1.996   3.573  21.544  0.00  0.00    +0.000 C 
ATOM      3  C   UNL     1       2.198   3.469  20.063  0.00  0.00    +0.000 A 
ATOM      4  C   UNL     1       1.745   2.363  19.338  0.00  0.00    +0.000 A 
ATOM      5  C   UNL     1       2.015   2.264  17.972  0.00  0.00    +0.000 A 
ATOM      6  C   UNL     1       2.761   3.252  17.324  0.00  0.00    +0.000 A 
ATOM      7  C   UNL     1       3.217   4.372  18.031  0.00  0.00    +0.000 A 
ATOM      8  C   UNL     1       2.900   4.472  19.389  0.00  0.00    +0.000 A 
ATOM      9  F   UNL     1       3.304   5.548  20.079  0.00  0.00    +0.000 F 
ENDBRANCH   1   7
BRANCH   1  10
ATOM     10  N   UNL     1       5.454   4.968  17.227  0.00  0.00    +0.000 N 
ATOM     11  C   UNL     1       5.943   4.491  16.029  0.00  0.00    +0.000 C 
ATOM     12  O   UNL     1       5.286   4.199  15.043  0.00  0.00    +0.000 OA
ATOM     13  O   UNL     1       7.310   4.427  16.077  0.00  0.00    +0.000 OA
ATOM     14  C   UNL     1       7.711   4.698  17.420  0.00  0.00    +0.000 C 
ATOM     15  C   UNL     1       6.555   5.499  17.995  0.00  0.00    +0.000 C 
BRANCH  15  16
ATOM     16  C   UNL     1       6.451   5.360  19.509  0.00  0.00    +0.000 C 
BRANCH  16  17
ATOM     17  O   UNL     1       7.720   5.507  20.136  0.00  0.00    +0.000 OA
ATOM     18  H   UNL     1       8.395   5.455  19.431  0.00  0.00    +0.000 HD
ENDBRANCH  16  17
ENDBRANCH  15  16
ENDBRANCH   1  10
TORSDOF 4
ENDMDL
MODEL 3
REMARK VINA RESULT:      -7.0      1.565      3.108
REMARK  Name = 
REMARK  5 active torsions:
REMARK  status: ('A' for Active; 'I' for Inactive)
REMARK    1  A    between atoms: C_1  and  C_2
REMARK    2  A    between atoms: C_6  and  C_7
REMARK    3  A    between atoms: C_7  and  N_8
REMARK    4  A    between atoms: C_13  and  C_14
REMARK    5  A    between atoms: C_14  and  O_15
REMARK                            x       y       z     vdW  Elec       q    Type
REMARK                         _______ _______ _______ _____ _____    ______ ____
ROOT
ATOM      1  C   UNL     1       4.273   6.083  17.191  0.00  0.00    +0.000 C 
ENDROOT
BRANCH   1   7
ATOM      2  C   UNL     1       1.134   2.420  18.566  0.00  0.00    +0.000 C 
ATOM      3  C   UNL     1       1.819   3.709  18.901  0.00  0.00    +0.000 A 
ATOM      4  C   UNL     1       1.502   4.428  20.057  0.00  0.00    +0.000 A 
ATOM      5  C   UNL     1       2.108   5.662  20.302  0.00  0.00    +0.000 A 
ATOM      6  C   UNL     1       3.012   6.201  19.383  0.00  0.00    +0.000 A 
ATOM      7  C   UNL     1       3.350   5.492  18.223  0.00  0.00    +0.000 A 
ATOM      8  C   UNL     1       2.764   4.239  18.019  0.00  0.00    +0.000 A 
ATOM      9  F   UNL     1       3.092   3.532  16.928  0.00  0.00    +0.000 F 
ENDBRANCH   1   7
BRANCH   1  10
ATOM     10  N   UNL     1       5.528   5.350  17.110  0.00  0.00    +0.000 N 
ATOM     11  C   UNL     1       5.984   4.824  15.920  0.00  0.00    +0.000 C 
ATOM     12  O   UNL     1       5.349   4.722  14.882  0.00  0.00    +0.000 OA
ATOM     13  O   UNL     1       7.298   4.460  16.045  0.00  0.00    +0.000 OA
ATOM     14  C   UNL     1       7.654   4.583  17.422  0.00  0.00    +0.000 C 
ATOM     15  C   UNL     1       6.663   5.595  17.969  0.00  0.00    +0.000 C 
BRANCH  15  16
ATOM     16  C   UNL     1       6.426   5.424  19.465  0.00  0.00    +0.000 C 
BRANCH  16  17
ATOM     17  O   UNL     1       7.640   5.522  20.201  0.00  0.00    +0.000 OA
ATOM     18  H   UNL     1       7.839   4.628  20.544  0.00  0.00    +0.000 HD
ENDBRANCH  16  17
ENDBRANCH  15  16
ENDBRANCH   1  10
TORSDOF 4
ENDMDL
MODEL 4
REMARK VINA RESULT:      -6.9      2.534      4.836
REMARK  Name = 
REMARK  5 active torsions:
REMARK  status: ('A' for Active; 'I' for Inactive)
REMARK    1  A    between atoms: C_1  and  C_2
REMARK    2  A    between atoms: C_6  and  C_7
REMARK    3  A    between atoms: C_7  and  N_8
REMARK    4  A    between atoms: C_13  and  C_14
REMARK    5  A    between atoms: C_14  and  O_15
REMARK                            x       y       z     vdW  Elec       q    Type
REMARK                         _______ _______ _______ _____ _____    ______ ____
ROOT
ATOM      1  C   UNL     1       3.035   5.045  17.819  0.00  0.00    +0.000 C 
ENDROOT
BRANCH   1   7
ATOM      2  C   UNL     1       7.800   5.705  19.243  0.00  0.00    +0.000 C 
ATOM      3  C   UNL     1       6.830   5.164  18.239  0.00  0.00    +0.000 A 
ATOM      4  C   UNL     1       7.257   4.634  17.019  0.00  0.00    +0.000 A 
ATOM      5  C   UNL     1       6.321   4.205  16.075  0.00  0.00    +0.000 A 
ATOM      6  C   UNL     1       4.953   4.327  16.331  0.00  0.00    +0.000 A 
ATOM      7  C   UNL     1       4.504   4.848  17.551  0.00  0.00    +0.000 A 
ATOM      8  C   UNL     1       5.458   5.232  18.498  0.00  0.00    +0.000 A 
ATOM      9  F   UNL     1       5.051   5.708  19.682  0.00  0.00    +0.000 F 
ENDBRANCH   1   7
BRANCH   1  10
ATOM     10  N   UNL     1       2.560   4.170  18.881  0.00  0.00    +0.000 N 
ATOM     11  C   UNL     1       1.980   4.671  20.027  0.00  0.00    +0.000 C 
ATOM     12  O   UNL     1       1.971   5.838  20.384  0.00  0.00    +0.000 OA
ATOM     13  O   UNL     1       1.356   3.662  20.711  0.00  0.00    +0.000 OA
ATOM     14  C   UNL     1       1.703   2.429  20.081  0.00  0.00    +0.000 C 
ATOM     15  C   UNL     1       2.066   2.831  18.662  0.00  0.00    +0.000 C 
BRANCH  15  16
ATOM     16  C   UNL     1       3.036   1.852  18.012  0.00  0.00    +0.000 C 
BRANCH  16  17
ATOM     17  O   UNL     1       4.174   1.619  18.835  0.00  0.00    +0.000 OA
ATOM     18  H   UNL     1       4.870   2.240  18.543  0.00  0.00    +0.000 HD
ENDBRANCH  16  17
ENDBRANCH  15  16
ENDBRANCH   1  10
TORSDOF 4
ENDMDL
MODEL 5
REMARK VINA RESULT:      -6.8      1.256      2.434
REMARK  Name = 
REMARK  5 active torsions:
REMARK  status: ('A' for Active; 'I' for Inactive)
REMARK    1  A    between atoms: C_1  and  C_2
REMARK    2  A    between atoms: C_6  and  C_7
REMARK    3  A    between atoms: C_7  and  N_8
REMARK    4  A    between atoms: C_13  and  C_14
REMARK    5  A    between atoms: C_14  and  O_15
REMARK                            x       y       z     vdW  Elec       q    Type
REMARK                         _______ _______ _______ _____ _____    ______ ____
ROOT
ATOM      1  C   UNL     1       3.775   6.175  17.474  0.00  0.00    +0.000 C 
ENDROOT
BRANCH   1   7
ATOM      2  C   UNL     1       1.083   3.591  20.827  0.00  0.00    +0.000 C 
ATOM      3  C   UNL     1       1.742   3.642  19.483  0.00  0.00    +0.000 A 
ATOM      4  C   UNL     1       1.829   2.511  18.667  0.00  0.00    +0.000 A 
ATOM      5  C   UNL     1       2.514   2.576  17.451  0.00  0.00    +0.000 A 
ATOM      6  C   UNL     1       3.139   3.761  17.054  0.00  0.00    +0.000 A 
ATOM      7  C   UNL     1       3.056   4.908  17.854  0.00  0.00    +0.000 A 
ATOM      8  C   UNL     1       2.330   4.832  19.046  0.00  0.00    +0.000 A 
ATOM      9  F   UNL     1       2.215   5.925  19.814  0.00  0.00    +0.000 F 
ENDBRANCH   1   7
BRANCH   1  10
ATOM     10  N   UNL     1       5.191   5.939  17.234  0.00  0.00    +0.000 N 
ATOM     11  C   UNL     1       5.786   6.258  16.032  0.00  0.00    +0.000 C 
ATOM     12  O   UNL     1       5.212   6.567  15.000  0.00  0.00    +0.000 OA
ATOM     13  O   UNL     1       7.148   6.225  16.163  0.00  0.00    +0.000 OA
ATOM     14  C   UNL     1       7.448   5.684  17.449  0.00  0.00    +0.000 C 
ATOM     15  C   UNL     1       6.200   5.965  18.267  0.00  0.00    +0.000 C 
BRANCH  15  16
ATOM     16  C   UNL     1       6.020   4.973  19.411  0.00  0.00    +0.000 C 
BRANCH  16  17
ATOM     17  O   UNL     1       5.959   3.633  18.936  0.00  0.00    +0.000 OA
ATOM     18  H   UNL     1       6.501   3.593  18.123  0.00  0.00    +0.000 HD
ENDBRANCH  16  17
ENDBRANCH  15  16
ENDBRANCH   1  10
TORSDOF 4
ENDMDL
MODEL 6
REMARK VINA RESULT:      -6.8      1.464      1.619
REMARK  Name = 
REMARK  5 active torsions:
REMARK  status: ('A' for Active; 'I' for Inactive)
REMARK    1  A    between atoms: C_1  and  C_2
REMARK    2  A    between atoms: C_6  and  C_7
REMARK    3  A    between atoms: C_7  and  N_8
REMARK    4  A    between atoms: C_13  and  C_14
REMARK    5  A    between atoms: C_14  and  O_15
REMARK                            x       y       z     vdW  Elec       q    Type
REMARK                         _______ _______ _______ _____ _____    ______ ____
ROOT
ATOM      1  C   UNL     1       5.323   3.628  17.929  0.00  0.00    +0.000 C 
ENDROOT
BRANCH   1   7
ATOM      2  C   UNL     1       1.869   2.685  21.442  0.00  0.00    +0.000 C 
ATOM      3  C   UNL     1       2.233   3.363  20.158  0.00  0.00    +0.000 A 
ATOM      4  C   UNL     1       1.276   4.020  19.379  0.00  0.00    +0.000 A 
ATOM      5  C   UNL     1       1.636   4.579  18.151  0.00  0.00    +0.000 A 
ATOM      6  C   UNL     1       2.947   4.463  17.678  0.00  0.00    +0.000 A 
ATOM      7  C   UNL     1       3.922   3.817  18.448  0.00  0.00    +0.000 A 
ATOM      8  C   UNL     1       3.549   3.302  19.693  0.00  0.00    +0.000 A 
ATOM      9  F   UNL     1       4.473   2.702  20.457  0.00  0.00    +0.000 F 
ENDBRANCH   1   7
BRANCH   1  10
ATOM     10  N   UNL     1       6.019   4.898  17.782  0.00  0.00    +0.000 N 
ATOM     11  C   UNL     1       6.726   5.461  18.823  0.00  0.00    +0.000 C 
ATOM     12  O   UNL     1       6.701   5.107  19.991  0.00  0.00    +0.000 OA
ATOM     13  O   UNL     1       7.521   6.472  18.353  0.00  0.00    +0.000 OA
ATOM     14  C   UNL     1       7.177   6.695  16.985  0.00  0.00    +0.000 C 
ATOM     15  C   UNL     1       6.574   5.375  16.537  0.00  0.00    +0.000 C 
BRANCH  15  16
ATOM     16  C   UNL     1       5.593   5.548  15.383  0.00  0.00    +0.000 C 
BRANCH  16  17
ATOM     17  O   UNL     1       5.150   6.896  15.271  0.00  0.00    +0.000 OA
ATOM     18  H   UNL     1       4.317   6.881  14.760  0.00  0.00    +0.000 HD
ENDBRANCH  16  17
ENDBRANCH  15  16
ENDBRANCH   1  10
TORSDOF 4
ENDMDL
MODEL 7
REMARK VINA RESULT:      -6.8      1.838      2.356
REMARK  Name = 
REMARK  5 active torsions:
REMARK  status: ('A' for Active; 'I' for Inactive)
REMARK    1  A    between atoms: C_1  and  C_2
REMARK    2  A    between atoms: C_6  and  C_7
REMARK    3  A    between atoms: C_7  and  N_8
REMARK    4  A    between atoms: C_13  and  C_14
REMARK    5  A    between atoms: C_14  and  O_15
REMARK                            x       y       z     vdW  Elec       q    Type
REMARK                         _______ _______ _______ _____ _____    ______ ____
ROOT
ATOM      1  C   UNL     1       5.578   3.984  18.781  0.00  0.00    +0.000 C 
ENDROOT
BRANCH   1   7
ATOM      2  C   UNL     1       0.825   2.377  18.838  0.00  0.00    +0.000 C 
ATOM      3  C   UNL     1       1.826   3.421  19.227  0.00  0.00    +0.000 A 
ATOM      4  C   UNL     1       1.435   4.629  19.811  0.00  0.00    +0.000 A 
ATOM      5  C   UNL     1       2.387   5.611  20.094  0.00  0.00    +0.000 A 
ATOM      6  C   UNL     1       3.731   5.406  19.771  0.00  0.00    +0.000 A 
ATOM      7  C   UNL     1       4.145   4.199  19.193  0.00  0.00    +0.000 A 
ATOM      8  C   UNL     1       3.182   3.214  18.958  0.00  0.00    +0.000 A 
ATOM      9  F   UNL     1       3.559   2.041  18.429  0.00  0.00    +0.000 F 
ENDBRANCH   1   7
BRANCH   1  10
ATOM     10  N   UNL     1       6.231   5.238  18.434  0.00  0.00    +0.000 N 
ATOM     11  C   UNL     1       7.266   5.749  19.188  0.00  0.00    +0.000 C 
ATOM     12  O   UNL     1       7.619   5.362  20.290  0.00  0.00    +0.000 OA
ATOM     13  O   UNL     1       7.895   6.750  18.496  0.00  0.00    +0.000 OA
ATOM     14  C   UNL     1       7.122   7.023  17.328  0.00  0.00    +0.000 C 
ATOM     15  C   UNL     1       6.355   5.735  17.084  0.00  0.00    +0.000 C 
BRANCH  15  16
ATOM     16  C   UNL     1       5.053   5.970  16.328  0.00  0.00    +0.000 C 
BRANCH  16  17
ATOM     17  O   UNL     1       5.224   6.908  15.271  0.00  0.00    +0.000 OA
ATOM     18  H   UNL     1       4.531   6.721  14.607  0.00  0.00    +0.000 HD
ENDBRANCH  16  17
ENDBRANCH  15  16
ENDBRANCH   1  10
TORSDOF 4
ENDMDL
MODEL 8
REMARK VINA RESULT:      -6.8      1.478      2.716
REMARK  Name = 
REMARK  5 active torsions:
REMARK  status: ('A' for Active; 'I' for Inactive)
REMARK    1  A    between atoms: C_1  and  C_2
REMARK    2  A    between atoms: C_6  and  C_7
REMARK    3  A    between atoms: C_7  and  N_8
REMARK    4  A    between atoms: C_13  and  C_14
REMARK    5  A    between atoms: C_14  and  O_15
REMARK                            x       y       z     vdW  Elec       q    Type
REMARK                         _______ _______ _______ _____ _____    ______ ____
ROOT
ATOM      1  C   UNL     1       5.039   3.476  17.328  0.00  0.00    +0.000 C 
ENDROOT
BRANCH   1   7
ATOM      2  C   UNL     1       2.330   2.735  21.485  0.00  0.00    +0.000 C 
ATOM      3  C   UNL     1       2.398   3.243  20.078  0.00  0.00    +0.000 A 
ATOM      4  C   UNL     1       1.255   3.672  19.398  0.00  0.00    +0.000 A 
ATOM      5  C   UNL     1       1.343   4.070  18.062  0.00  0.00    +0.000 A 
ATOM      6  C   UNL     1       2.567   4.018  17.388  0.00  0.00    +0.000 A 
ATOM      7  C   UNL     1       3.725   3.599  18.054  0.00  0.00    +0.000 A 
ATOM      8  C   UNL     1       3.622   3.245  19.403  0.00  0.00    +0.000 A 
ATOM      9  F   UNL     1       4.722   2.865  20.067  0.00  0.00    +0.000 F 
ENDBRANCH   1   7
BRANCH   1  10
ATOM     10  N   UNL     1       5.628   4.779  17.057  0.00  0.00    +0.000 N 
ATOM     11  C   UNL     1       5.546   5.366  15.812  0.00  0.00    +0.000 C 
ATOM     12  O   UNL     1       5.180   4.828  14.780  0.00  0.00    +0.000 OA
ATOM     13  O   UNL     1       5.899   6.687  15.896  0.00  0.00    +0.000 OA
ATOM     14  C   UNL     1       6.406   6.918  17.211  0.00  0.00    +0.000 C 
ATOM     15  C   UNL     1       5.775   5.819  18.048  0.00  0.00    +0.000 C 
BRANCH  15  16
ATOM     16  C   UNL     1       6.611   5.471  19.273  0.00  0.00    +0.000 C 
BRANCH  16  17
ATOM     17  O   UNL     1       7.878   4.936  18.906  0.00  0.00    +0.000 OA
ATOM     18  H   UNL     1       7.776   4.543  18.017  0.00  0.00    +0.000 HD
ENDBRANCH  16  17
ENDBRANCH  15  16
ENDBRANCH   1  10
TORSDOF 4
ENDMDL
MODEL 9
REMARK VINA RESULT:      -6.7      2.757      5.322
REMARK  Name = 
REMARK  5 active torsions:
REMARK  status: ('A' for Active; 'I' for Inactive)
REMARK    1  A    between atoms: C_1  and  C_2
REMARK    2  A    between atoms: C_6  and  C_7
REMARK    3  A    between atoms: C_7  and  N_8
REMARK    4  A    between atoms: C_13  and  C_14
REMARK    5  A    between atoms: C_14  and  O_15
REMARK                            x       y       z     vdW  Elec       q    Type
REMARK                         _______ _______ _______ _____ _____    ______ ____
ROOT
ATOM      1  C   UNL     1       3.625   5.158  18.751  0.00  0.00    +0.000 C 
ENDROOT
BRANCH   1   7
ATOM      2  C   UNL     1       6.459   4.035  14.766  0.00  0.00    +0.000 C 
ATOM      3  C   UNL     1       6.380   4.488  16.192  0.00  0.00    +0.000 A 
ATOM      4  C   UNL     1       7.526   4.638  16.977  0.00  0.00    +0.000 A 
ATOM      5  C   UNL     1       7.411   4.991  18.323  0.00  0.00    +0.000 A 
ATOM      6  C   UNL     1       6.152   5.169  18.903  0.00  0.00    +0.000 A 
ATOM      7  C   UNL     1       4.992   5.032  18.131  0.00  0.00    +0.000 A 
ATOM      8  C   UNL     1       5.131   4.719  16.775  0.00  0.00    +0.000 A 
ATOM      9  F   UNL     1       4.035   4.608  16.012  0.00  0.00    +0.000 F 
ENDBRANCH   1   7
BRANCH   1  10
ATOM     10  N   UNL     1       2.916   3.887  18.753  0.00  0.00    +0.000 N 
ATOM     11  C   UNL     1       1.802   3.677  17.967  0.00  0.00    +0.000 C 
ATOM     12  O   UNL     1       1.173   4.529  17.361  0.00  0.00    +0.000 OA
ATOM     13  O   UNL     1       1.512   2.340  17.919  0.00  0.00    +0.000 OA
ATOM     14  C   UNL     1       2.359   1.677  18.858  0.00  0.00    +0.000 C 
ATOM     15  C   UNL     1       3.545   2.612  19.009  0.00  0.00    +0.000 C 
BRANCH  15  16
ATOM     16  C   UNL     1       4.237   2.460  20.358  0.00  0.00    +0.000 C 
BRANCH  16  17
ATOM     17  O   UNL     1       5.320   1.539  20.289  0.00  0.00    +0.000 OA
ATOM     18  H   UNL     1       5.150   0.847  20.960  0.00  0.00    +0.000 HD
ENDBRANCH  16  17
ENDBRANCH  15  16
ENDBRANCH   1  10
TORSDOF 4
ENDMDL
