MODEL 1
REMARK VINA RESULT:      -8.2      0.000      0.000
REMARK  Name = 
REMARK  8 active torsions:
REMARK  status: ('A' for Active; 'I' for Inactive)
REMARK    1  A    between atoms: C_1  and  C_2
REMARK    2  A    between atoms: C_4  and  C_5
REMARK    3  A    between atoms: C_5  and  N_6
REMARK    4  A    between atoms: C_5  and  C_21
REMARK    5  A    between atoms: C_7  and  C_9
REMARK    6  A    between atoms: C_9  and  C_10
REMARK    7  A    between atoms: C_10  and  C_11
REMARK    8  A    between atoms: C_13  and  C_14
REMARK                            x       y       z     vdW  Elec       q    Type
REMARK                         _______ _______ _______ _____ _____    ______ ____
ROOT
ATOM      1  N   UNL     1       5.147   5.753  18.683  0.00  0.00    +0.000 N 
ATOM      2  C   UNL     1       6.453   5.637  19.082  0.00  0.00    +0.000 C 
ATOM      3  O   UNL     1       6.794   5.419  20.239  0.00  0.00    +0.000 OA
ATOM      4  H   UNL     1       4.931   5.661  17.690  0.00  0.00    +0.000 HD
ENDROOT
BRANCH   1   5
ATOM      5  C   UNL     1       4.011   5.479  19.552  0.00  0.00    +0.000 C 
BRANCH   5   9
ATOM      6  C   UNL     1       1.438   9.419  17.775  0.00  0.00    +0.000 C 
ATOM      7  C   UNL     1       2.012   8.334  18.599  0.00  0.00    +0.000 A 
ATOM      8  N   UNL     1       2.936   7.445  18.280  0.00  0.00    +0.000 NA
ATOM      9  C   UNL     1       3.037   6.653  19.415  0.00  0.00    +0.000 A 
ATOM     10  N   UNL     1       2.127   6.966  20.353  0.00  0.00    +0.000 NA
ATOM     11  N   UNL     1       1.623   8.114  19.886  0.00  0.00    +0.000 N 
ATOM     12  H   UNL     1       1.032   8.685  20.480  0.00  0.00    +0.000 HD
ENDBRANCH   5   9
BRANCH   5  13
ATOM     13  C   UNL     1       3.241   4.193  19.194  0.00  0.00    +0.000 A 
ATOM     14  C   UNL     1       2.378   3.539  20.099  0.00  0.00    +0.000 A 
ATOM     15  C   UNL     1       1.639   2.403  19.758  0.00  0.00    +0.000 A 
ATOM     16  C   UNL     1       1.731   1.895  18.470  0.00  0.00    +0.000 A 
ATOM     17  C   UNL     1       2.562   2.515  17.547  0.00  0.00    +0.000 A 
ATOM     18  C   UNL     1       3.307   3.652  17.900  0.00  0.00    +0.000 A 
ENDBRANCH   5  13
ENDBRANCH   1   5
BRANCH   2  19
ATOM     19  C   UNL     1       7.466   5.749  17.960  0.00  0.00    +0.000 C 
BRANCH  19  20
ATOM     20  C   UNL     1       7.631   4.473  17.134  0.00  0.00    +0.000 C 
BRANCH  20  21
ATOM     21  C   UNL     1       7.143   4.547  15.724  0.00  0.00    +0.000 A 
ATOM     22  N   UNL     1       6.334   3.750  15.065  0.00  0.00    +0.000 NA
ATOM     23  C   UNL     1       6.486   4.168  13.757  0.00  0.00    +0.000 A 
ATOM     24  N   UNL     1       7.266   5.251  13.624  0.00  0.00    +0.000 NA
ATOM     25  O   UNL     1       7.723   5.491  14.926  0.00  0.00    +0.000 OA
BRANCH  23  26
ATOM     26  C   UNL     1       5.867   3.436  12.648  0.00  0.00    +0.000 A 
ATOM     27  C   UNL     1       4.570   3.728  12.121  0.00  0.00    +0.000 A 
ATOM     28  C   UNL     1       4.206   2.857  11.111  0.00  0.00    +0.000 A 
ATOM     29  S   UNL     1       5.426   1.712  10.771  0.00  0.00    +0.000 S 
ATOM     30  C   UNL     1       6.457   2.421  11.930  0.00  0.00    +0.000 A 
ENDBRANCH  23  26
ENDBRANCH  20  21
ENDBRANCH  19  20
ENDBRANCH   2  19
TORSDOF 7
ENDMDL
MODEL 2
REMARK VINA RESULT:      -8.2      0.857      1.166
REMARK  Name = 
REMARK  8 active torsions:
REMARK  status: ('A' for Active; 'I' for Inactive)
REMARK    1  A    between atoms: C_1  and  C_2
REMARK    2  A    between atoms: C_4  and  C_5
REMARK    3  A    between atoms: C_5  and  N_6
REMARK    4  A    between atoms: C_5  and  C_21
REMARK    5  A    between atoms: C_7  and  C_9
REMARK    6  A    between atoms: C_9  and  C_10
REMARK    7  A    between atoms: C_10  and  C_11
REMARK    8  A    between atoms: C_13  and  C_14
REMARK                            x       y       z     vdW  Elec       q    Type
REMARK                         _______ _______ _______ _____ _____    ______ ____
ROOT
ATOM      1  N   UNL     1       4.783   5.405  18.477  0.00  0.00    +0.000 N 
ATOM      2  C   UNL     1       6.080   5.143  18.832  0.00  0.00    +0.000 C 
ATOM      3  O   UNL     1       6.498   5.214  19.983  0.00  0.00    +0.000 OA
ATOM      4  H   UNL     1       4.448   5.068  17.574  0.00  0.00    +0.000 HD
ENDROOT
BRANCH   1   5
ATOM      5  C   UNL     1       3.716   5.646  19.439  0.00  0.00    +0.000 C 
BRANCH   5   9
ATOM      6  C   UNL     1       0.801   9.745  19.382  0.00  0.00    +0.000 C 
ATOM      7  C   UNL     1       1.708   8.625  19.053  0.00  0.00    +0.000 A 
ATOM      8  N   UNL     1       2.120   7.632  19.821  0.00  0.00    +0.000 NA
ATOM      9  C   UNL     1       2.989   6.921  19.005  0.00  0.00    +0.000 A 
ATOM     10  N   UNL     1       3.197   7.518  17.819  0.00  0.00    +0.000 NA
ATOM     11  N   UNL     1       2.264   8.477  17.818  0.00  0.00    +0.000 N 
ATOM     12  H   UNL     1       2.061   8.984  16.962  0.00  0.00    +0.000 HD
ENDBRANCH   5   9
BRANCH   5  13
ATOM     13  C   UNL     1       2.669   4.517  19.511  0.00  0.00    +0.000 A 
ATOM     14  C   UNL     1       2.041   4.131  20.714  0.00  0.00    +0.000 A 
ATOM     15  C   UNL     1       1.053   3.144  20.772  0.00  0.00    +0.000 A 
ATOM     16  C   UNL     1       0.646   2.520  19.602  0.00  0.00    +0.000 A 
ATOM     17  C   UNL     1       1.234   2.879  18.396  0.00  0.00    +0.000 A 
ATOM     18  C   UNL     1       2.231   3.866  18.346  0.00  0.00    +0.000 A 
ENDBRANCH   5  13
ENDBRANCH   1   5
BRANCH   2  19
ATOM     19  C   UNL     1       6.969   4.703  17.687  0.00  0.00    +0.000 C 
BRANCH  19  20
ATOM     20  C   UNL     1       7.252   5.795  16.655  0.00  0.00    +0.000 C 
BRANCH  20  21
ATOM     21  C   UNL     1       7.076   5.397  15.227  0.00  0.00    +0.000 A 
ATOM     22  N   UNL     1       6.191   4.601  14.672  0.00  0.00    +0.000 NA
ATOM     23  C   UNL     1       6.700   4.410  13.402  0.00  0.00    +0.000 A 
ATOM     24  N   UNL     1       7.791   5.147  13.142  0.00  0.00    +0.000 NA
ATOM     25  O   UNL     1       8.056   5.786  14.359  0.00  0.00    +0.000 OA
BRANCH  23  26
ATOM     26  C   UNL     1       6.096   3.448  12.477  0.00  0.00    +0.000 A 
ATOM     27  C   UNL     1       4.746   3.525  12.011  0.00  0.00    +0.000 A 
ATOM     28  C   UNL     1       4.414   2.466  11.186  0.00  0.00    +0.000 A 
ATOM     29  S   UNL     1       5.723   1.399  10.943  0.00  0.00    +0.000 S 
ATOM     30  C   UNL     1       6.743   2.385  11.890  0.00  0.00    +0.000 A 
ENDBRANCH  23  26
ENDBRANCH  20  21
ENDBRANCH  19  20
ENDBRANCH   2  19
TORSDOF 7
ENDMDL
MODEL 3
REMARK VINA RESULT:      -8.1      5.292      9.521
REMARK  Name = 
REMARK  8 active torsions:
REMARK  status: ('A' for Active; 'I' for Inactive)
REMARK    1  A    between atoms: C_1  and  C_2
REMARK    2  A    between atoms: C_4  and  C_5
REMARK    3  A    between atoms: C_5  and  N_6
REMARK    4  A    between atoms: C_5  and  C_21
REMARK    5  A    between atoms: C_7  and  C_9
REMARK    6  A    between atoms: C_9  and  C_10
REMARK    7  A    between atoms: C_10  and  C_11
REMARK    8  A    between atoms: C_13  and  C_14
REMARK                            x       y       z     vdW  Elec       q    Type
REMARK                         _______ _______ _______ _____ _____    ______ ____
ROOT
ATOM      1  N   UNL     1       2.290   7.184  18.744  0.00  0.00    +0.000 N 
ATOM      2  C   UNL     1       2.071   8.443  18.252  0.00  0.00    +0.000 C 
ATOM      3  O   UNL     1       2.358   8.787  17.110  0.00  0.00    +0.000 OA
ATOM      4  H   UNL     1       1.789   6.896  19.585  0.00  0.00    +0.000 HD
ENDROOT
BRANCH   1   5
ATOM      5  C   UNL     1       2.741   6.065  17.926  0.00  0.00    +0.000 C 
BRANCH   5   9
ATOM      6  C   UNL     1       7.560   5.578  19.285  0.00  0.00    +0.000 C 
ATOM      7  C   UNL     1       6.287   5.874  18.594  0.00  0.00    +0.000 A 
ATOM      8  N   UNL     1       5.048   5.663  19.001  0.00  0.00    +0.000 NA
ATOM      9  C   UNL     1       4.272   6.085  17.931  0.00  0.00    +0.000 A 
ATOM     10  N   UNL     1       5.005   6.432  16.860  0.00  0.00    +0.000 NA
ATOM     11  N   UNL     1       6.246   6.450  17.359  0.00  0.00    +0.000 N 
ATOM     12  H   UNL     1       7.003   6.855  16.819  0.00  0.00    +0.000 HD
ENDBRANCH   5   9
BRANCH   5  13
ATOM     13  C   UNL     1       2.293   4.685  18.447  0.00  0.00    +0.000 A 
ATOM     14  C   UNL     1       1.637   4.509  19.684  0.00  0.00    +0.000 A 
ATOM     15  C   UNL     1       1.184   3.266  20.132  0.00  0.00    +0.000 A 
ATOM     16  C   UNL     1       1.359   2.148  19.329  0.00  0.00    +0.000 A 
ATOM     17  C   UNL     1       1.991   2.282  18.100  0.00  0.00    +0.000 A 
ATOM     18  C   UNL     1       2.451   3.534  17.659  0.00  0.00    +0.000 A 
ENDBRANCH   5  13
ENDBRANCH   1   5
BRANCH   2  19
ATOM     19  C   UNL     1       1.392   9.389  19.221  0.00  0.00    +0.000 C 
BRANCH  19  20
ATOM     20  C   UNL     1       1.251   8.838  20.641  0.00  0.00    +0.000 C 
BRANCH  20  21
ATOM     21  C   UNL     1       0.307   9.576  21.531  0.00  0.00    +0.000 A 
ATOM     22  N   UNL     1      -0.705  10.357  21.231  0.00  0.00    +0.000 NA
ATOM     23  C   UNL     1      -1.005  10.954  22.440  0.00  0.00    +0.000 A 
ATOM     24  N   UNL     1      -0.287  10.478  23.469  0.00  0.00    +0.000 NA
ATOM     25  O   UNL     1       0.601   9.580  22.865  0.00  0.00    +0.000 OA
BRANCH  23  26
ATOM     26  C   UNL     1      -1.992  12.033  22.532  0.00  0.00    +0.000 A 
ATOM     27  C   UNL     1      -2.957  12.148  23.582  0.00  0.00    +0.000 A 
ATOM     28  C   UNL     1      -3.800  13.229  23.404  0.00  0.00    +0.000 A 
ATOM     29  S   UNL     1      -3.418  14.125  22.001  0.00  0.00    +0.000 S 
ATOM     30  C   UNL     1      -2.094  13.102  21.671  0.00  0.00    +0.000 A 
ENDBRANCH  23  26
ENDBRANCH  20  21
ENDBRANCH  19  20
ENDBRANCH   2  19
TORSDOF 7
ENDMDL
MODEL 4
REMARK VINA RESULT:      -8.0      5.145      8.835
REMARK  Name = 
REMARK  8 active torsions:
REMARK  status: ('A' for Active; 'I' for Inactive)
REMARK    1  A    between atoms: C_1  and  C_2
REMARK    2  A    between atoms: C_4  and  C_5
REMARK    3  A    between atoms: C_5  and  N_6
REMARK    4  A    between atoms: C_5  and  C_21
REMARK    5  A    between atoms: C_7  and  C_9
REMARK    6  A    between atoms: C_9  and  C_10
REMARK    7  A    between atoms: C_10  and  C_11
REMARK    8  A    between atoms: C_13  and  C_14
REMARK                            x       y       z     vdW  Elec       q    Type
REMARK                         _______ _______ _______ _____ _____    ______ ____
ROOT
ATOM      1  N   UNL     1       2.206   7.145  18.917  0.00  0.00    +0.000 N 
ATOM      2  C   UNL     1       1.952   8.416  18.474  0.00  0.00    +0.000 C 
ATOM      3  O   UNL     1       2.255   8.820  17.357  0.00  0.00    +0.000 OA
ATOM      4  H   UNL     1       1.695   6.801  19.731  0.00  0.00    +0.000 HD
ENDROOT
BRANCH   1   5
ATOM      5  C   UNL     1       2.724   6.082  18.066  0.00  0.00    +0.000 C 
BRANCH   5   9
ATOM      6  C   UNL     1       7.647   6.888  17.427  0.00  0.00    +0.000 C 
ATOM      7  C   UNL     1       6.315   6.431  17.874  0.00  0.00    +0.000 A 
ATOM      8  N   UNL     1       5.123   6.736  17.392  0.00  0.00    +0.000 NA
ATOM      9  C   UNL     1       4.245   6.064  18.232  0.00  0.00    +0.000 A 
ATOM     10  N   UNL     1       4.865   5.464  19.262  0.00  0.00    +0.000 NA
ATOM     11  N   UNL     1       6.154   5.570  18.918  0.00  0.00    +0.000 N 
ATOM     12  H   UNL     1       6.858   5.045  19.426  0.00  0.00    +0.000 HD
ENDBRANCH   5   9
BRANCH   5  13
ATOM     13  C   UNL     1       2.201   4.677  18.427  0.00  0.00    +0.000 A 
ATOM     14  C   UNL     1       2.496   3.530  17.660  0.00  0.00    +0.000 A 
ATOM     15  C   UNL     1       2.066   2.249  18.015  0.00  0.00    +0.000 A 
ATOM     16  C   UNL     1       1.334   2.076  19.181  0.00  0.00    +0.000 A 
ATOM     17  C   UNL     1       1.032   3.179  19.968  0.00  0.00    +0.000 A 
ATOM     18  C   UNL     1       1.460   4.465  19.601  0.00  0.00    +0.000 A 
ENDBRANCH   5  13
ENDBRANCH   1   5
BRANCH   2  19
ATOM     19  C   UNL     1       1.209   9.291  19.463  0.00  0.00    +0.000 C 
BRANCH  19  20
ATOM     20  C   UNL     1       0.828  10.668  18.920  0.00  0.00    +0.000 C 
BRANCH  20  21
ATOM     21  C   UNL     1      -0.547  10.781  18.348  0.00  0.00    +0.000 A 
ATOM     22  N   UNL     1      -1.519  11.614  18.638  0.00  0.00    +0.000 NA
ATOM     23  C   UNL     1      -2.607  11.057  17.995  0.00  0.00    +0.000 A 
ATOM     24  N   UNL     1      -2.300   9.989  17.244  0.00  0.00    +0.000 NA
ATOM     25  O   UNL     1      -0.937   9.789  17.495  0.00  0.00    +0.000 OA
BRANCH  23  26
ATOM     26  C   UNL     1      -3.958  11.592  18.183  0.00  0.00    +0.000 A 
ATOM     27  C   UNL     1      -5.006  11.479  17.215  0.00  0.00    +0.000 A 
ATOM     28  C   UNL     1      -6.166  12.112  17.621  0.00  0.00    +0.000 A 
ATOM     29  S   UNL     1      -6.014  12.812  19.170  0.00  0.00    +0.000 S 
ATOM     30  C   UNL     1      -4.422  12.217  19.318  0.00  0.00    +0.000 A 
ENDBRANCH  23  26
ENDBRANCH  20  21
ENDBRANCH  19  20
ENDBRANCH   2  19
TORSDOF 7
ENDMDL
MODEL 5
REMARK VINA RESULT:      -7.9      5.340      9.610
REMARK  Name = 
REMARK  8 active torsions:
REMARK  status: ('A' for Active; 'I' for Inactive)
REMARK    1  A    between atoms: C_1  and  C_2
REMARK    2  A    between atoms: C_4  and  C_5
REMARK    3  A    between atoms: C_5  and  N_6
REMARK    4  A    between atoms: C_5  and  C_21
REMARK    5  A    between atoms: C_7  and  C_9
REMARK    6  A    between atoms: C_9  and  C_10
REMARK    7  A    between atoms: C_10  and  C_11
REMARK    8  A    between atoms: C_13  and  C_14
REMARK                            x       y       z     vdW  Elec       q    Type
REMARK                         _______ _______ _______ _____ _____    ______ ____
ROOT
ATOM      1  N   UNL     1       2.162   7.254  18.912  0.00  0.00    +0.000 N 
ATOM      2  C   UNL     1       1.998   8.491  18.347  0.00  0.00    +0.000 C 
ATOM      3  O   UNL     1       2.344   8.768  17.204  0.00  0.00    +0.000 OA
ATOM      4  H   UNL     1       1.617   7.022  19.743  0.00  0.00    +0.000 HD
ENDROOT
BRANCH   1   5
ATOM      5  C   UNL     1       2.621   6.084  18.174  0.00  0.00    +0.000 C 
BRANCH   5   9
ATOM      6  C   UNL     1       7.576   6.644  17.518  0.00  0.00    +0.000 C 
ATOM      7  C   UNL     1       6.224   6.264  17.979  0.00  0.00    +0.000 A 
ATOM      8  N   UNL     1       5.048   6.604  17.483  0.00  0.00    +0.000 NA
ATOM      9  C   UNL     1       4.140   6.004  18.345  0.00  0.00    +0.000 A 
ATOM     10  N   UNL     1       4.731   5.417  19.399  0.00  0.00    +0.000 NA
ATOM     11  N   UNL     1       6.023   5.452  19.055  0.00  0.00    +0.000 N 
ATOM     12  H   UNL     1       6.702   4.915  19.584  0.00  0.00    +0.000 HD
ENDBRANCH   5   9
BRANCH   5  13
ATOM     13  C   UNL     1       2.027   4.753  18.674  0.00  0.00    +0.000 A 
ATOM     14  C   UNL     1       2.056   3.567  17.911  0.00  0.00    +0.000 A 
ATOM     15  C   UNL     1       1.565   2.347  18.384  0.00  0.00    +0.000 A 
ATOM     16  C   UNL     1       1.041   2.277  19.667  0.00  0.00    +0.000 A 
ATOM     17  C   UNL     1       1.003   3.421  20.454  0.00  0.00    +0.000 A 
ATOM     18  C   UNL     1       1.492   4.645  19.968  0.00  0.00    +0.000 A 
ENDBRANCH   5  13
ENDBRANCH   1   5
BRANCH   2  19
ATOM     19  C   UNL     1       1.300   9.501  19.235  0.00  0.00    +0.000 C 
BRANCH  19  20
ATOM     20  C   UNL     1       1.205   9.087  20.703  0.00  0.00    +0.000 C 
BRANCH  20  21
ATOM     21  C   UNL     1       0.218   9.845  21.528  0.00  0.00    +0.000 A 
ATOM     22  N   UNL     1      -0.732  10.675  21.162  0.00  0.00    +0.000 NA
ATOM     23  C   UNL     1      -1.110  11.258  22.356  0.00  0.00    +0.000 A 
ATOM     24  N   UNL     1      -0.503  10.730  23.429  0.00  0.00    +0.000 NA
ATOM     25  O   UNL     1       0.396   9.808  22.881  0.00  0.00    +0.000 OA
BRANCH  23  26
ATOM     26  C   UNL     1      -2.057  12.376  22.389  0.00  0.00    +0.000 A 
ATOM     27  C   UNL     1      -2.284  13.199  23.538  0.00  0.00    +0.000 A 
ATOM     28  C   UNL     1      -3.262  14.150  23.317  0.00  0.00    +0.000 A 
ATOM     29  S   UNL     1      -3.886  14.082  21.730  0.00  0.00    +0.000 S 
ATOM     30  C   UNL     1      -2.807  12.824  21.326  0.00  0.00    +0.000 A 
ENDBRANCH  23  26
ENDBRANCH  20  21
ENDBRANCH  19  20
ENDBRANCH   2  19
TORSDOF 7
ENDMDL
MODEL 6
REMARK VINA RESULT:      -7.9      4.245      6.734
REMARK  Name = 
REMARK  8 active torsions:
REMARK  status: ('A' for Active; 'I' for Inactive)
REMARK    1  A    between atoms: C_1  and  C_2
REMARK    2  A    between atoms: C_4  and  C_5
REMARK    3  A    between atoms: C_5  and  N_6
REMARK    4  A    between atoms: C_5  and  C_21
REMARK    5  A    between atoms: C_7  and  C_9
REMARK    6  A    between atoms: C_9  and  C_10
REMARK    7  A    between atoms: C_10  and  C_11
REMARK    8  A    between atoms: C_13  and  C_14
REMARK                            x       y       z     vdW  Elec       q    Type
REMARK                         _______ _______ _______ _____ _____    ______ ____
ROOT
ATOM      1  N   UNL     1       4.451   5.641  17.942  0.00  0.00    +0.000 N 
ATOM      2  C   UNL     1       5.189   4.674  17.313  0.00  0.00    +0.000 C 
ATOM      3  O   UNL     1       4.703   3.676  16.793  0.00  0.00    +0.000 OA
ATOM      4  H   UNL     1       4.879   6.553  18.104  0.00  0.00    +0.000 HD
ENDROOT
BRANCH   1   5
ATOM      5  C   UNL     1       2.994   5.678  17.932  0.00  0.00    +0.000 C 
BRANCH   5   9
ATOM      6  C   UNL     1       2.356   2.548  21.817  0.00  0.00    +0.000 C 
ATOM      7  C   UNL     1       2.313   3.244  20.514  0.00  0.00    +0.000 A 
ATOM      8  N   UNL     1       2.979   4.315  20.118  0.00  0.00    +0.000 NA
ATOM      9  C   UNL     1       2.502   4.544  18.835  0.00  0.00    +0.000 A 
ATOM     10  N   UNL     1       1.497   3.719  18.497  0.00  0.00    +0.000 NA
ATOM     11  N   UNL     1       1.520   2.823  19.490  0.00  0.00    +0.000 N 
ATOM     12  H   UNL     1       0.981   1.967  19.411  0.00  0.00    +0.000 HD
ENDBRANCH   5   9
BRANCH   5  13
ATOM     13  C   UNL     1       2.395   6.992  18.469  0.00  0.00    +0.000 A 
ATOM     14  C   UNL     1       2.092   7.195  19.832  0.00  0.00    +0.000 A 
ATOM     15  C   UNL     1       1.598   8.405  20.327  0.00  0.00    +0.000 A 
ATOM     16  C   UNL     1       1.411   9.470  19.458  0.00  0.00    +0.000 A 
ATOM     17  C   UNL     1       1.707   9.313  18.111  0.00  0.00    +0.000 A 
ATOM     18  C   UNL     1       2.196   8.092  17.618  0.00  0.00    +0.000 A 
ENDBRANCH   5  13
ENDBRANCH   1   5
BRANCH   2  19
ATOM     19  C   UNL     1       6.678   4.954  17.261  0.00  0.00    +0.000 C 
BRANCH  19  20
ATOM     20  C   UNL     1       7.214   5.729  18.465  0.00  0.00    +0.000 C 
BRANCH  20  21
ATOM     21  C   UNL     1       7.718   7.104  18.178  0.00  0.00    +0.000 A 
ATOM     22  N   UNL     1       8.597   7.836  18.823  0.00  0.00    +0.000 NA
ATOM     23  C   UNL     1       8.436   9.085  18.256  0.00  0.00    +0.000 A 
ATOM     24  N   UNL     1       7.577   9.102  17.225  0.00  0.00    +0.000 NA
ATOM     25  O   UNL     1       7.081   7.794  17.186  0.00  0.00    +0.000 OA
BRANCH  23  26
ATOM     26  C   UNL     1       9.127  10.260  18.794  0.00  0.00    +0.000 A 
ATOM     27  C   UNL     1       9.559  11.368  18.000  0.00  0.00    +0.000 A 
ATOM     28  C   UNL     1      10.228  12.320  18.747  0.00  0.00    +0.000 A 
ATOM     29  S   UNL     1      10.310  11.906  20.401  0.00  0.00    +0.000 S 
ATOM     30  C   UNL     1       9.402  10.489  20.123  0.00  0.00    +0.000 A 
ENDBRANCH  23  26
ENDBRANCH  20  21
ENDBRANCH  19  20
ENDBRANCH   2  19
TORSDOF 7
ENDMDL
MODEL 7
REMARK VINA RESULT:      -7.9      5.764     10.021
REMARK  Name = 
REMARK  8 active torsions:
REMARK  status: ('A' for Active; 'I' for Inactive)
REMARK    1  A    between atoms: C_1  and  C_2
REMARK    2  A    between atoms: C_4  and  C_5
REMARK    3  A    between atoms: C_5  and  N_6
REMARK    4  A    between atoms: C_5  and  C_21
REMARK    5  A    between atoms: C_7  and  C_9
REMARK    6  A    between atoms: C_9  and  C_10
REMARK    7  A    between atoms: C_10  and  C_11
REMARK    8  A    between atoms: C_13  and  C_14
REMARK                            x       y       z     vdW  Elec       q    Type
REMARK                         _______ _______ _______ _____ _____    ______ ____
ROOT
ATOM      1  N   UNL     1       2.325   7.430  18.977  0.00  0.00    +0.000 N 
ATOM      2  C   UNL     1       1.957   8.672  18.533  0.00  0.00    +0.000 C 
ATOM      3  O   UNL     1       1.909   8.984  17.348  0.00  0.00    +0.000 OA
ATOM      4  H   UNL     1       2.083   7.162  19.932  0.00  0.00    +0.000 HD
ENDROOT
BRANCH   1   5
ATOM      5  C   UNL     1       2.551   6.292  18.096  0.00  0.00    +0.000 C 
BRANCH   5   9
ATOM      6  C   UNL     1       7.477   5.427  18.631  0.00  0.00    +0.000 C 
ATOM      7  C   UNL     1       6.134   5.830  18.164  0.00  0.00    +0.000 A 
ATOM      8  N   UNL     1       4.967   5.700  18.769  0.00  0.00    +0.000 NA
ATOM      9  C   UNL     1       4.059   6.200  17.846  0.00  0.00    +0.000 A 
ATOM     10  N   UNL     1       4.630   6.516  16.672  0.00  0.00    +0.000 NA
ATOM     11  N   UNL     1       5.933   6.433  16.958  0.00  0.00    +0.000 N 
ATOM     12  H   UNL     1       6.619   6.794  16.304  0.00  0.00    +0.000 HD
ENDBRANCH   5   9
BRANCH   5  13
ATOM     13  C   UNL     1       2.095   4.942  18.683  0.00  0.00    +0.000 A 
ATOM     14  C   UNL     1       1.718   4.782  20.033  0.00  0.00    +0.000 A 
ATOM     15  C   UNL     1       1.254   3.571  20.553  0.00  0.00    +0.000 A 
ATOM     16  C   UNL     1       1.132   2.472  19.714  0.00  0.00    +0.000 A 
ATOM     17  C   UNL     1       1.484   2.592  18.376  0.00  0.00    +0.000 A 
ATOM     18  C   UNL     1       1.957   3.811  17.862  0.00  0.00    +0.000 A 
ENDBRANCH   5  13
ENDBRANCH   1   5
BRANCH   2  19
ATOM     19  C   UNL     1       1.557   9.639  19.629  0.00  0.00    +0.000 C 
BRANCH  19  20
ATOM     20  C   UNL     1       0.074  10.011  19.627  0.00  0.00    +0.000 C 
BRANCH  20  21
ATOM     21  C   UNL     1      -0.468  10.521  20.921  0.00  0.00    +0.000 A 
ATOM     22  N   UNL     1      -1.280  11.524  21.163  0.00  0.00    +0.000 NA
ATOM     23  C   UNL     1      -1.189  11.672  22.534  0.00  0.00    +0.000 A 
ATOM     24  N   UNL     1      -0.444  10.729  23.129  0.00  0.00    +0.000 NA
ATOM     25  O   UNL     1       0.055   9.977  22.059  0.00  0.00    +0.000 OA
BRANCH  23  26
ATOM     26  C   UNL     1      -1.829  12.797  23.221  0.00  0.00    +0.000 A 
ATOM     27  C   UNL     1      -1.192  14.054  23.463  0.00  0.00    +0.000 A 
ATOM     28  C   UNL     1      -1.998  14.924  24.173  0.00  0.00    +0.000 A 
ATOM     29  S   UNL     1      -3.528  14.250  24.522  0.00  0.00    +0.000 S 
ATOM     30  C   UNL     1      -3.128  12.826  23.673  0.00  0.00    +0.000 A 
ENDBRANCH  23  26
ENDBRANCH  20  21
ENDBRANCH  19  20
ENDBRANCH   2  19
TORSDOF 7
ENDMDL
MODEL 8
REMARK VINA RESULT:      -7.9      6.034      8.434
REMARK  Name = 
REMARK  8 active torsions:
REMARK  status: ('A' for Active; 'I' for Inactive)
REMARK    1  A    between atoms: C_1  and  C_2
REMARK    2  A    between atoms: C_4  and  C_5
REMARK    3  A    between atoms: C_5  and  N_6
REMARK    4  A    between atoms: C_5  and  C_21
REMARK    5  A    between atoms: C_7  and  C_9
REMARK    6  A    between atoms: C_9  and  C_10
REMARK    7  A    between atoms: C_10  and  C_11
REMARK    8  A    between atoms: C_13  and  C_14
REMARK                            x       y       z     vdW  Elec       q    Type
REMARK                         _______ _______ _______ _____ _____    ______ ____
ROOT
ATOM      1  N   UNL     1       7.197   6.949  16.728  0.00  0.00    +0.000 N 
ATOM      2  C   UNL     1       7.831   7.541  17.788  0.00  0.00    +0.000 C 
ATOM      3  O   UNL     1       8.215   6.929  18.779  0.00  0.00    +0.000 OA
ATOM      4  H   UNL     1       7.155   7.453  15.842  0.00  0.00    +0.000 HD
ENDROOT
BRANCH   1   5
ATOM      5  C   UNL     1       7.045   5.507  16.582  0.00  0.00    +0.000 C 
BRANCH   5   9
ATOM      6  C   UNL     1       2.255   5.123  18.071  0.00  0.00    +0.000 C 
ATOM      7  C   UNL     1       3.722   5.021  17.915  0.00  0.00    +0.000 A 
ATOM      8  N   UNL     1       4.509   5.604  17.028  0.00  0.00    +0.000 NA
ATOM      9  C   UNL     1       5.769   5.105  17.327  0.00  0.00    +0.000 A 
ATOM     10  N   UNL     1       5.743   4.162  18.284  0.00  0.00    +0.000 NA
ATOM     11  N   UNL     1       4.490   4.256  18.741  0.00  0.00    +0.000 N 
ATOM     12  H   UNL     1       4.227   3.782  19.598  0.00  0.00    +0.000 HD
ENDBRANCH   5   9
BRANCH   5  13
ATOM     13  C   UNL     1       6.898   5.035  15.122  0.00  0.00    +0.000 A 
ATOM     14  C   UNL     1       7.735   5.492  14.082  0.00  0.00    +0.000 A 
ATOM     15  C   UNL     1       7.637   5.026  12.768  0.00  0.00    +0.000 A 
ATOM     16  C   UNL     1       6.694   4.055  12.461  0.00  0.00    +0.000 A 
ATOM     17  C   UNL     1       5.858   3.573  13.459  0.00  0.00    +0.000 A 
ATOM     18  C   UNL     1       5.957   4.052  14.775  0.00  0.00    +0.000 A 
ENDBRANCH   5  13
ENDBRANCH   1   5
BRANCH   2  19
ATOM     19  C   UNL     1       8.074   9.028  17.626  0.00  0.00    +0.000 C 
BRANCH  19  20
ATOM     20  C   UNL     1       8.819   9.673  18.795  0.00  0.00    +0.000 C 
BRANCH  20  21
ATOM     21  C   UNL     1       9.494  10.971  18.495  0.00  0.00    +0.000 A 
ATOM     22  N   UNL     1       9.149  12.198  18.811  0.00  0.00    +0.000 NA
ATOM     23  C   UNL     1       9.993  12.966  18.033  0.00  0.00    +0.000 A 
ATOM     24  N   UNL     1      10.899  12.250  17.351  0.00  0.00    +0.000 NA
ATOM     25  O   UNL     1      10.556  10.923  17.638  0.00  0.00    +0.000 OA
BRANCH  23  26
ATOM     26  C   UNL     1       9.843  14.422  17.959  0.00  0.00    +0.000 A 
ATOM     27  C   UNL     1       8.772  15.149  18.567  0.00  0.00    +0.000 A 
ATOM     28  C   UNL     1       8.840  16.504  18.303  0.00  0.00    +0.000 A 
ATOM     29  S   UNL     1      10.202  16.912  17.357  0.00  0.00    +0.000 S 
ATOM     30  C   UNL     1      10.725  15.289  17.355  0.00  0.00    +0.000 A 
ENDBRANCH  23  26
ENDBRANCH  20  21
ENDBRANCH  19  20
ENDBRANCH   2  19
TORSDOF 7
ENDMDL
MODEL 9
REMARK VINA RESULT:      -7.8      5.415      9.181
REMARK  Name = 
REMARK  8 active torsions:
REMARK  status: ('A' for Active; 'I' for Inactive)
REMARK    1  A    between atoms: C_1  and  C_2
REMARK    2  A    between atoms: C_4  and  C_5
REMARK    3  A    between atoms: C_5  and  N_6
REMARK    4  A    between atoms: C_5  and  C_21
REMARK    5  A    between atoms: C_7  and  C_9
REMARK    6  A    between atoms: C_9  and  C_10
REMARK    7  A    between atoms: C_10  and  C_11
REMARK    8  A    between atoms: C_13  and  C_14
REMARK                            x       y       z     vdW  Elec       q    Type
REMARK                         _______ _______ _______ _____ _____    ______ ____
ROOT
ATOM      1  N   UNL     1       2.341   7.522  18.350  0.00  0.00    +0.000 N 
ATOM      2  C   UNL     1       1.656   8.545  18.950  0.00  0.00    +0.000 C 
ATOM      3  O   UNL     1       1.569   8.684  20.165  0.00  0.00    +0.000 OA
ATOM      4  H   UNL     1       2.599   7.619  17.367  0.00  0.00    +0.000 HD
ENDROOT
BRANCH   1   5
ATOM      5  C   UNL     1       3.174   6.572  19.076  0.00  0.00    +0.000 C 
BRANCH   5   9
ATOM      6  C   UNL     1       0.722   2.187  18.843  0.00  0.00    +0.000 C 
ATOM      7  C   UNL     1       1.268   3.506  19.224  0.00  0.00    +0.000 A 
ATOM      8  N   UNL     1       2.092   4.293  18.555  0.00  0.00    +0.000 NA
ATOM      9  C   UNL     1       2.298   5.363  19.414  0.00  0.00    +0.000 A 
ATOM     10  N   UNL     1       1.719   5.187  20.614  0.00  0.00    +0.000 NA
ATOM     11  N   UNL     1       0.954   4.110  20.404  0.00  0.00    +0.000 N 
ATOM     12  H   UNL     1       0.256   3.845  21.091  0.00  0.00    +0.000 HD
ENDBRANCH   5   9
BRANCH   5  13
ATOM     13  C   UNL     1       4.386   6.059  18.275  0.00  0.00    +0.000 A 
ATOM     14  C   UNL     1       4.571   6.335  16.903  0.00  0.00    +0.000 A 
ATOM     15  C   UNL     1       5.696   5.914  16.189  0.00  0.00    +0.000 A 
ATOM     16  C   UNL     1       6.695   5.211  16.847  0.00  0.00    +0.000 A 
ATOM     17  C   UNL     1       6.555   4.928  18.200  0.00  0.00    +0.000 A 
ATOM     18  C   UNL     1       5.418   5.348  18.909  0.00  0.00    +0.000 A 
ENDBRANCH   5  13
ENDBRANCH   1   5
BRANCH   2  19
ATOM     19  C   UNL     1       1.042   9.541  17.988  0.00  0.00    +0.000 C 
BRANCH  19  20
ATOM     20  C   UNL     1       0.063  10.520  18.638  0.00  0.00    +0.000 C 
BRANCH  20  21
ATOM     21  C   UNL     1      -1.300  10.573  18.031  0.00  0.00    +0.000 A 
ATOM     22  N   UNL     1      -2.333  11.326  18.333  0.00  0.00    +0.000 NA
ATOM     23  C   UNL     1      -3.363  10.733  17.630  0.00  0.00    +0.000 A 
ATOM     24  N   UNL     1      -2.966   9.727  16.837  0.00  0.00    +0.000 NA
ATOM     25  O   UNL     1      -1.600   9.603  17.118  0.00  0.00    +0.000 OA
BRANCH  23  26
ATOM     26  C   UNL     1      -4.752  11.169  17.804  0.00  0.00    +0.000 A 
ATOM     27  C   UNL     1      -5.723  10.460  18.578  0.00  0.00    +0.000 A 
ATOM     28  C   UNL     1      -6.967  11.060  18.538  0.00  0.00    +0.000 A 
ATOM     29  S   UNL     1      -6.968  12.488  17.602  0.00  0.00    +0.000 S 
ATOM     30  C   UNL     1      -5.295  12.331  17.306  0.00  0.00    +0.000 A 
ENDBRANCH  23  26
ENDBRANCH  20  21
ENDBRANCH  19  20
ENDBRANCH   2  19
TORSDOF 7
ENDMDL
