MODEL 1
REMARK VINA RESULT:      -8.1      0.000      0.000
REMARK  Name = 
REMARK  4 active torsions:
REMARK  status: ('A' for Active; 'I' for Inactive)
REMARK    1  A    between atoms: C_1  and  N_2
REMARK    2  A    between atoms: N_2  and  C_3
REMARK    3  A    between atoms: N_2  and  C_4
REMARK    4  A    between atoms: C_7  and  C_8
REMARK                            x       y       z     vdW  Elec       q    Type
REMARK                         _______ _______ _______ _____ _____    ______ ____
ROOT
ATOM      1  C   UNL     1       0.123  11.607  19.418  0.00  0.00    +0.000 C 
ATOM      2  N   UNL     1       0.723  10.759  18.348  0.00  0.00    +0.000 NA
ATOM      3  C   UNL     1       1.078   9.557  18.661  0.00  0.00    +0.000 C 
ATOM      4  N   UNL     1       1.767   8.833  17.728  0.00  0.00    +0.000 N 
ATOM      5  C   UNL     1       2.579   7.789  17.953  0.00  0.00    +0.000 A 
ATOM      6  N   UNL     1       2.588   6.967  18.983  0.00  0.00    +0.000 NA
ATOM      7  C   UNL     1       3.704   6.197  18.774  0.00  0.00    +0.000 A 
ATOM      8  C   UNL     1       4.253   5.174  19.543  0.00  0.00    +0.000 A 
ATOM      9  C   UNL     1       5.448   4.581  19.108  0.00  0.00    +0.000 A 
ATOM     10  C   UNL     1       6.070   5.004  17.925  0.00  0.00    +0.000 A 
ATOM     11  C   UNL     1       5.515   6.018  17.128  0.00  0.00    +0.000 A 
ATOM     12  C   UNL     1       4.332   6.581  17.599  0.00  0.00    +0.000 A 
ATOM     13  O   UNL     1       3.590   7.590  17.045  0.00  0.00    +0.000 OA
ATOM     14  N   UNL     1       0.861   8.983  19.885  0.00  0.00    +0.000 N 
ATOM     15  C   UNL     1       0.219   9.627  20.919  0.00  0.00    +0.000 C 
ATOM     16  C   UNL     1      -0.158  10.903  20.725  0.00  0.00    +0.000 C 
ATOM     17  C   UNL     1      -0.909  11.636  21.788  0.00  0.00    +0.000 C 
ATOM     18  O   UNL     1      -1.297  12.790  21.622  0.00  0.00    +0.000 OA
ATOM     19  C   UNL     1      -1.290  10.884  23.042  0.00  0.00    +0.000 C 
ATOM     20  C   UNL     1      -0.258   9.825  23.387  0.00  0.00    +0.000 C 
ATOM     21  C   UNL     1      -0.013   8.884  22.207  0.00  0.00    +0.000 C 
ATOM     22  H   UNL     1       1.938   9.369  16.888  0.00  0.00    +0.000 HD
ATOM     23  H   UNL     1       1.178   8.025  20.025  0.00  0.00    +0.000 HD
ENDROOT
BRANCH   1  27
ATOM     24  C   UNL     1       2.616  15.152  20.009  0.00  0.00    +0.000 A 
ATOM     25  C   UNL     1       1.512  15.144  19.142  0.00  0.00    +0.000 A 
ATOM     26  C   UNL     1       0.735  14.003  18.936  0.00  0.00    +0.000 A 
ATOM     27  C   UNL     1       1.019  12.819  19.615  0.00  0.00    +0.000 A 
ATOM     28  C   UNL     1       2.105  12.800  20.496  0.00  0.00    +0.000 A 
ATOM     29  C   UNL     1       2.885  13.950  20.684  0.00  0.00    +0.000 A 
BRANCH  24  31
ATOM     30  C   UNL     1       4.410  16.662  19.242  0.00  0.00    +0.000 C 
ATOM     31  N   UNL     1       3.383  16.300  20.210  0.00  0.00    +0.000 N 
ATOM     32  C   UNL     1       3.474  16.875  21.545  0.00  0.00    +0.000 C 
ENDBRANCH  24  31
ENDBRANCH   1  27
TORSDOF 2
ENDMDL
MODEL 2
REMARK VINA RESULT:      -8.1      0.423      1.109
REMARK  Name = 
REMARK  4 active torsions:
REMARK  status: ('A' for Active; 'I' for Inactive)
REMARK    1  A    between atoms: C_1  and  N_2
REMARK    2  A    between atoms: N_2  and  C_3
REMARK    3  A    between atoms: N_2  and  C_4
REMARK    4  A    between atoms: C_7  and  C_8
REMARK                            x       y       z     vdW  Elec       q    Type
REMARK                         _______ _______ _______ _____ _____    ______ ____
ROOT
ATOM      1  C   UNL     1      -0.112  11.870  19.447  0.00  0.00    +0.000 C 
ATOM      2  N   UNL     1       0.482  11.036  18.362  0.00  0.00    +0.000 NA
ATOM      3  C   UNL     1       0.845   9.832  18.660  0.00  0.00    +0.000 C 
ATOM      4  N   UNL     1       1.528   9.120  17.712  0.00  0.00    +0.000 N 
ATOM      5  C   UNL     1       2.346   8.078  17.919  0.00  0.00    +0.000 A 
ATOM      6  N   UNL     1       2.367   7.245  18.940  0.00  0.00    +0.000 NA
ATOM      7  C   UNL     1       3.484   6.482  18.714  0.00  0.00    +0.000 A 
ATOM      8  C   UNL     1       4.043   5.452  19.467  0.00  0.00    +0.000 A 
ATOM      9  C   UNL     1       5.236   4.869  19.016  0.00  0.00    +0.000 A 
ATOM     10  C   UNL     1       5.847   5.307  17.832  0.00  0.00    +0.000 A 
ATOM     11  C   UNL     1       5.282   6.327  17.051  0.00  0.00    +0.000 A 
ATOM     12  C   UNL     1       4.100   6.880  17.537  0.00  0.00    +0.000 A 
ATOM     13  O   UNL     1       3.349   7.892  17.002  0.00  0.00    +0.000 OA
ATOM     14  N   UNL     1       0.640   9.244  19.878  0.00  0.00    +0.000 N 
ATOM     15  C   UNL     1       0.004   9.874  20.925  0.00  0.00    +0.000 C 
ATOM     16  C   UNL     1      -0.380  11.151  20.748  0.00  0.00    +0.000 C 
ATOM     17  C   UNL     1      -1.124  11.869  21.826  0.00  0.00    +0.000 C 
ATOM     18  O   UNL     1      -1.518  13.024  21.675  0.00  0.00    +0.000 OA
ATOM     19  C   UNL     1      -1.492  11.102  23.074  0.00  0.00    +0.000 C 
ATOM     20  C   UNL     1      -0.453  10.044  23.399  0.00  0.00    +0.000 C 
ATOM     21  C   UNL     1      -0.214   9.116  22.207  0.00  0.00    +0.000 C 
ATOM     22  H   UNL     1       1.690   9.667  16.877  0.00  0.00    +0.000 HD
ATOM     23  H   UNL     1       0.961   8.286  20.006  0.00  0.00    +0.000 HD
ENDROOT
BRANCH   1  27
ATOM     24  C   UNL     1       2.539  15.305  19.997  0.00  0.00    +0.000 A 
ATOM     25  C   UNL     1       2.797  14.054  20.578  0.00  0.00    +0.000 A 
ATOM     26  C   UNL     1       1.935  12.967  20.422  0.00  0.00    +0.000 A 
ATOM     27  C   UNL     1       0.781  13.083  19.649  0.00  0.00    +0.000 A 
ATOM     28  C   UNL     1       0.503  14.315  19.047  0.00  0.00    +0.000 A 
ATOM     29  C   UNL     1       1.371  15.401  19.222  0.00  0.00    +0.000 A 
BRANCH  24  31
ATOM     30  C   UNL     1       2.887  17.682  20.561  0.00  0.00    +0.000 C 
ATOM     31  N   UNL     1       3.410  16.383  20.156  0.00  0.00    +0.000 N 
ATOM     32  C   UNL     1       4.719  16.346  19.520  0.00  0.00    +0.000 C 
ENDBRANCH  24  31
ENDBRANCH   1  27
TORSDOF 2
ENDMDL
MODEL 3
REMARK VINA RESULT:      -7.6      1.259      1.533
REMARK  Name = 
REMARK  4 active torsions:
REMARK  status: ('A' for Active; 'I' for Inactive)
REMARK    1  A    between atoms: C_1  and  N_2
REMARK    2  A    between atoms: N_2  and  C_3
REMARK    3  A    between atoms: N_2  and  C_4
REMARK    4  A    between atoms: C_7  and  C_8
REMARK                            x       y       z     vdW  Elec       q    Type
REMARK                         _______ _______ _______ _____ _____    ______ ____
ROOT
ATOM      1  C   UNL     1       0.207  10.669  18.886  0.00  0.00    +0.000 C 
ATOM      2  N   UNL     1       0.883   9.817  17.865  0.00  0.00    +0.000 NA
ATOM      3  C   UNL     1       1.531   8.780  18.282  0.00  0.00    +0.000 C 
ATOM      4  N   UNL     1       2.277   8.087  17.369  0.00  0.00    +0.000 N 
ATOM      5  C   UNL     1       3.324   7.287  17.622  0.00  0.00    +0.000 A 
ATOM      6  N   UNL     1       3.616   6.651  18.738  0.00  0.00    +0.000 NA
ATOM      7  C   UNL     1       4.854   6.114  18.492  0.00  0.00    +0.000 A 
ATOM      8  C   UNL     1       5.692   5.359  19.310  0.00  0.00    +0.000 A 
ATOM      9  C   UNL     1       6.944   4.976  18.809  0.00  0.00    +0.000 A 
ATOM     10  C   UNL     1       7.341   5.339  17.514  0.00  0.00    +0.000 A 
ATOM     11  C   UNL     1       6.498   6.079  16.670  0.00  0.00    +0.000 A 
ATOM     12  C   UNL     1       5.266   6.441  17.209  0.00  0.00    +0.000 A 
ATOM     13  O   UNL     1       4.265   7.174  16.629  0.00  0.00    +0.000 OA
ATOM     14  N   UNL     1       1.565   8.363  19.585  0.00  0.00    +0.000 N 
ATOM     15  C   UNL     1       0.891   9.004  20.601  0.00  0.00    +0.000 C 
ATOM     16  C   UNL     1       0.216  10.126  20.296  0.00  0.00    +0.000 C 
ATOM     17  C   UNL     1      -0.581  10.833  21.343  0.00  0.00    +0.000 C 
ATOM     18  O   UNL     1      -1.236  11.840  21.081  0.00  0.00    +0.000 OA
ATOM     19  C   UNL     1      -0.662  10.215  22.719  0.00  0.00    +0.000 C 
ATOM     20  C   UNL     1       0.611   9.465  23.065  0.00  0.00    +0.000 C 
ATOM     21  C   UNL     1       0.955   8.431  21.992  0.00  0.00    +0.000 C 
ATOM     22  H   UNL     1       2.243   8.515  16.453  0.00  0.00    +0.000 HD
ATOM     23  H   UNL     1       2.104   7.528  19.805  0.00  0.00    +0.000 HD
ENDROOT
BRANCH   1  27
ATOM     24  C   UNL     1       2.017  14.640  18.603  0.00  0.00    +0.000 A 
ATOM     25  C   UNL     1       2.784  13.468  18.694  0.00  0.00    +0.000 A 
ATOM     26  C   UNL     1       2.202  12.204  18.811  0.00  0.00    +0.000 A 
ATOM     27  C   UNL     1       0.816  12.060  18.816  0.00  0.00    +0.000 A 
ATOM     28  C   UNL     1       0.026  13.209  18.715  0.00  0.00    +0.000 A 
ATOM     29  C   UNL     1       0.622  14.473  18.610  0.00  0.00    +0.000 A 
BRANCH  24  31
ATOM     30  C   UNL     1       4.024  16.002  18.149  0.00  0.00    +0.000 C 
ATOM     31  N   UNL     1       2.609  15.898  18.483  0.00  0.00    +0.000 N 
ATOM     32  C   UNL     1       1.969  17.052  19.096  0.00  0.00    +0.000 C 
ENDBRANCH  24  31
ENDBRANCH   1  27
TORSDOF 2
ENDMDL
MODEL 4
REMARK VINA RESULT:      -7.6      3.618      8.579
REMARK  Name = 
REMARK  4 active torsions:
REMARK  status: ('A' for Active; 'I' for Inactive)
REMARK    1  A    between atoms: C_1  and  N_2
REMARK    2  A    between atoms: N_2  and  C_3
REMARK    3  A    between atoms: N_2  and  C_4
REMARK    4  A    between atoms: C_7  and  C_8
REMARK                            x       y       z     vdW  Elec       q    Type
REMARK                         _______ _______ _______ _____ _____    ______ ____
ROOT
ATOM      1  C   UNL     1       0.108  11.931  18.401  0.00  0.00    +0.000 C 
ATOM      2  N   UNL     1      -1.356  11.777  18.160  0.00  0.00    +0.000 NA
ATOM      3  C   UNL     1      -2.164  12.439  18.922  0.00  0.00    +0.000 C 
ATOM      4  N   UNL     1      -3.502  12.182  18.806  0.00  0.00    +0.000 N 
ATOM      5  C   UNL     1      -4.450  12.400  19.730  0.00  0.00    +0.000 A 
ATOM      6  N   UNL     1      -4.431  13.254  20.734  0.00  0.00    +0.000 NA
ATOM      7  C   UNL     1      -5.571  12.954  21.435  0.00  0.00    +0.000 A 
ATOM      8  C   UNL     1      -6.078  13.499  22.613  0.00  0.00    +0.000 A 
ATOM      9  C   UNL     1      -7.259  12.959  23.142  0.00  0.00    +0.000 A 
ATOM     10  C   UNL     1      -7.917  11.901  22.499  0.00  0.00    +0.000 A 
ATOM     11  C   UNL     1      -7.430  11.358  21.300  0.00  0.00    +0.000 A 
ATOM     12  C   UNL     1      -6.254  11.920  20.812  0.00  0.00    +0.000 A 
ATOM     13  O   UNL     1      -5.549  11.580  19.688  0.00  0.00    +0.000 OA
ATOM     14  N   UNL     1      -1.764  13.336  19.875  0.00  0.00    +0.000 N 
ATOM     15  C   UNL     1      -0.444  13.645  20.116  0.00  0.00    +0.000 C 
ATOM     16  C   UNL     1       0.494  12.985  19.414  0.00  0.00    +0.000 C 
ATOM     17  C   UNL     1       1.939  13.317  19.590  0.00  0.00    +0.000 C 
ATOM     18  O   UNL     1       2.812  12.753  18.933  0.00  0.00    +0.000 OA
ATOM     19  C   UNL     1       2.304  14.454  20.515  0.00  0.00    +0.000 C 
ATOM     20  C   UNL     1       1.320  14.570  21.664  0.00  0.00    +0.000 C 
ATOM     21  C   UNL     1      -0.117  14.686  21.154  0.00  0.00    +0.000 C 
ATOM     22  H   UNL     1      -3.687  11.455  18.127  0.00  0.00    +0.000 HD
ATOM     23  H   UNL     1      -2.485  13.808  20.418  0.00  0.00    +0.000 HD
ENDROOT
BRANCH   1  27
ATOM     24  C   UNL     1       1.822   8.041  19.426  0.00  0.00    +0.000 A 
ATOM     25  C   UNL     1       1.980   8.622  18.159  0.00  0.00    +0.000 A 
ATOM     26  C   UNL     1       1.409   9.852  17.827  0.00  0.00    +0.000 A 
ATOM     27  C   UNL     1       0.671  10.568  18.768  0.00  0.00    +0.000 A 
ATOM     28  C   UNL     1       0.507  10.019  20.044  0.00  0.00    +0.000 A 
ATOM     29  C   UNL     1       1.075   8.778  20.360  0.00  0.00    +0.000 A 
BRANCH  24  31
ATOM     30  C   UNL     1       3.326   6.182  18.815  0.00  0.00    +0.000 C 
ATOM     31  N   UNL     1       2.401   6.812  19.748  0.00  0.00    +0.000 N 
ATOM     32  C   UNL     1       1.780   5.972  20.761  0.00  0.00    +0.000 C 
ENDBRANCH  24  31
ENDBRANCH   1  27
TORSDOF 2
ENDMDL
MODEL 5
REMARK VINA RESULT:      -7.3      3.199      5.559
REMARK  Name = 
REMARK  4 active torsions:
REMARK  status: ('A' for Active; 'I' for Inactive)
REMARK    1  A    between atoms: C_1  and  N_2
REMARK    2  A    between atoms: N_2  and  C_3
REMARK    3  A    between atoms: N_2  and  C_4
REMARK    4  A    between atoms: C_7  and  C_8
REMARK                            x       y       z     vdW  Elec       q    Type
REMARK                         _______ _______ _______ _____ _____    ______ ____
ROOT
ATOM      1  C   UNL     1      -0.906  12.278  20.977  0.00  0.00    +0.000 C 
ATOM      2  N   UNL     1      -0.664  10.927  21.563  0.00  0.00    +0.000 NA
ATOM      3  C   UNL     1       0.357  10.261  21.137  0.00  0.00    +0.000 C 
ATOM      4  N   UNL     1       0.493   8.966  21.556  0.00  0.00    +0.000 N 
ATOM      5  C   UNL     1       1.180   7.988  20.948  0.00  0.00    +0.000 A 
ATOM      6  N   UNL     1       2.186   8.098  20.105  0.00  0.00    +0.000 NA
ATOM      7  C   UNL     1       2.401   6.810  19.685  0.00  0.00    +0.000 A 
ATOM      8  C   UNL     1       3.316   6.298  18.767  0.00  0.00    +0.000 A 
ATOM      9  C   UNL     1       3.282   4.924  18.489  0.00  0.00    +0.000 A 
ATOM     10  C   UNL     1       2.356   4.085  19.123  0.00  0.00    +0.000 A 
ATOM     11  C   UNL     1       1.444   4.583  20.067  0.00  0.00    +0.000 A 
ATOM     12  C   UNL     1       1.509   5.952  20.311  0.00  0.00    +0.000 A 
ATOM     13  O   UNL     1       0.737   6.705  21.155  0.00  0.00    +0.000 OA
ATOM     14  N   UNL     1       1.279  10.746  20.250  0.00  0.00    +0.000 N 
ATOM     15  C   UNL     1       1.225  12.018  19.723  0.00  0.00    +0.000 C 
ATOM     16  C   UNL     1       0.178  12.792  20.059  0.00  0.00    +0.000 C 
ATOM     17  C   UNL     1       0.093  14.199  19.566  0.00  0.00    +0.000 C 
ATOM     18  O   UNL     1      -0.834  14.939  19.889  0.00  0.00    +0.000 OA
ATOM     19  C   UNL     1       1.242  14.741  18.748  0.00  0.00    +0.000 C 
ATOM     20  C   UNL     1       1.894  13.649  17.919  0.00  0.00    +0.000 C 
ATOM     21  C   UNL     1       2.320  12.469  18.794  0.00  0.00    +0.000 C 
ATOM     22  H   UNL     1      -0.275   8.682  22.150  0.00  0.00    +0.000 HD
ATOM     23  H   UNL     1       2.051  10.138  19.982  0.00  0.00    +0.000 HD
ENDROOT
BRANCH   1  27
ATOM     24  C   UNL     1      -4.795  12.113  18.984  0.00  0.00    +0.000 A 
ATOM     25  C   UNL     1      -3.627  11.601  18.398  0.00  0.00    +0.000 A 
ATOM     26  C   UNL     1      -2.383  11.679  19.027  0.00  0.00    +0.000 A 
ATOM     27  C   UNL     1      -2.261  12.257  20.289  0.00  0.00    +0.000 A 
ATOM     28  C   UNL     1      -3.410  12.765  20.903  0.00  0.00    +0.000 A 
ATOM     29  C   UNL     1      -4.651  12.691  20.256  0.00  0.00    +0.000 A 
BRANCH  24  31
ATOM     30  C   UNL     1      -6.858  10.838  18.530  0.00  0.00    +0.000 C 
ATOM     31  N   UNL     1      -6.035  12.026  18.348  0.00  0.00    +0.000 N 
ATOM     32  C   UNL     1      -6.311  12.875  17.199  0.00  0.00    +0.000 C 
ENDBRANCH  24  31
ENDBRANCH   1  27
TORSDOF 2
ENDMDL
MODEL 6
REMARK VINA RESULT:      -7.2      3.196      5.499
REMARK  Name = 
REMARK  4 active torsions:
REMARK  status: ('A' for Active; 'I' for Inactive)
REMARK    1  A    between atoms: C_1  and  N_2
REMARK    2  A    between atoms: N_2  and  C_3
REMARK    3  A    between atoms: N_2  and  C_4
REMARK    4  A    between atoms: C_7  and  C_8
REMARK                            x       y       z     vdW  Elec       q    Type
REMARK                         _______ _______ _______ _____ _____    ______ ____
ROOT
ATOM      1  C   UNL     1      -0.923  12.182  20.967  0.00  0.00    +0.000 C 
ATOM      2  N   UNL     1      -0.657  10.831  21.540  0.00  0.00    +0.000 NA
ATOM      3  C   UNL     1       0.370  10.181  21.099  0.00  0.00    +0.000 C 
ATOM      4  N   UNL     1       0.527   8.886  21.508  0.00  0.00    +0.000 N 
ATOM      5  C   UNL     1       1.222   7.921  20.886  0.00  0.00    +0.000 A 
ATOM      6  N   UNL     1       2.218   8.052  20.033  0.00  0.00    +0.000 NA
ATOM      7  C   UNL     1       2.446   6.770  19.602  0.00  0.00    +0.000 A 
ATOM      8  C   UNL     1       3.359   6.277  18.672  0.00  0.00    +0.000 A 
ATOM      9  C   UNL     1       3.342   4.905  18.383  0.00  0.00    +0.000 A 
ATOM     10  C   UNL     1       2.433   4.049  19.021  0.00  0.00    +0.000 A 
ATOM     11  C   UNL     1       1.524   4.527  19.977  0.00  0.00    +0.000 A 
ATOM     12  C   UNL     1       1.573   5.895  20.230  0.00  0.00    +0.000 A 
ATOM     13  O   UNL     1       0.799   6.632  21.087  0.00  0.00    +0.000 OA
ATOM     14  N   UNL     1       1.276  10.686  20.207  0.00  0.00    +0.000 N 
ATOM     15  C   UNL     1       1.199  11.961  19.690  0.00  0.00    +0.000 C 
ATOM     16  C   UNL     1       0.145  12.718  20.042  0.00  0.00    +0.000 C 
ATOM     17  C   UNL     1       0.036  14.127  19.560  0.00  0.00    +0.000 C 
ATOM     18  O   UNL     1      -0.898  14.851  19.897  0.00  0.00    +0.000 OA
ATOM     19  C   UNL     1       1.170  14.690  18.735  0.00  0.00    +0.000 C 
ATOM     20  C   UNL     1       1.829  13.614  17.892  0.00  0.00    +0.000 C 
ATOM     21  C   UNL     1       2.279  12.433  18.753  0.00  0.00    +0.000 C 
ATOM     22  H   UNL     1      -0.231   8.586  22.106  0.00  0.00    +0.000 HD
ATOM     23  H   UNL     1       2.054  10.091  19.927  0.00  0.00    +0.000 HD
ENDROOT
BRANCH   1  27
ATOM     24  C   UNL     1      -4.848  12.185  19.038  0.00  0.00    +0.000 A 
ATOM     25  C   UNL     1      -4.635  12.732  20.314  0.00  0.00    +0.000 A 
ATOM     26  C   UNL     1      -3.386  12.705  20.937  0.00  0.00    +0.000 A 
ATOM     27  C   UNL     1      -2.284  12.147  20.292  0.00  0.00    +0.000 A 
ATOM     28  C   UNL     1      -2.462  11.606  19.015  0.00  0.00    +0.000 A 
ATOM     29  C   UNL     1      -3.724  11.628  18.406  0.00  0.00    +0.000 A 
BRANCH  24  31
ATOM     30  C   UNL     1      -6.272  12.956  17.176  0.00  0.00    +0.000 C 
ATOM     31  N   UNL     1      -6.100  12.222  18.423  0.00  0.00    +0.000 N 
ATOM     32  C   UNL     1      -7.290  11.921  19.205  0.00  0.00    +0.000 C 
ENDBRANCH  24  31
ENDBRANCH   1  27
TORSDOF 2
ENDMDL
MODEL 7
REMARK VINA RESULT:      -7.1      3.075      5.530
REMARK  Name = 
REMARK  4 active torsions:
REMARK  status: ('A' for Active; 'I' for Inactive)
REMARK    1  A    between atoms: C_1  and  N_2
REMARK    2  A    between atoms: N_2  and  C_3
REMARK    3  A    between atoms: N_2  and  C_4
REMARK    4  A    between atoms: C_7  and  C_8
REMARK                            x       y       z     vdW  Elec       q    Type
REMARK                         _______ _______ _______ _____ _____    ______ ____
ROOT
ATOM      1  C   UNL     1      -0.405  12.390  21.909  0.00  0.00    +0.000 C 
ATOM      2  N   UNL     1      -0.056  11.004  22.337  0.00  0.00    +0.000 NA
ATOM      3  C   UNL     1       0.772  10.338  21.601  0.00  0.00    +0.000 C 
ATOM      4  N   UNL     1       0.973   9.020  21.903  0.00  0.00    +0.000 N 
ATOM      5  C   UNL     1       1.416   8.060  21.077  0.00  0.00    +0.000 A 
ATOM      6  N   UNL     1       2.138   8.193  19.982  0.00  0.00    +0.000 NA
ATOM      7  C   UNL     1       2.171   6.925  19.460  0.00  0.00    +0.000 A 
ATOM      8  C   UNL     1       2.760   6.443  18.293  0.00  0.00    +0.000 A 
ATOM      9  C   UNL     1       2.594   5.087  17.974  0.00  0.00    +0.000 A 
ATOM     10  C   UNL     1       1.860   4.237  18.813  0.00  0.00    +0.000 A 
ATOM     11  C   UNL     1       1.282   4.703  20.004  0.00  0.00    +0.000 A 
ATOM     12  C   UNL     1       1.468   6.056  20.280  0.00  0.00    +0.000 A 
ATOM     13  O   UNL     1       1.004   6.779  21.346  0.00  0.00    +0.000 OA
ATOM     14  N   UNL     1       1.414  10.850  20.506  0.00  0.00    +0.000 N 
ATOM     15  C   UNL     1       1.258  12.149  20.076  0.00  0.00    +0.000 C 
ATOM     16  C   UNL     1       0.384  12.928  20.739  0.00  0.00    +0.000 C 
ATOM     17  C   UNL     1       0.214  14.362  20.356  0.00  0.00    +0.000 C 
ATOM     18  O   UNL     1      -0.551  15.104  20.969  0.00  0.00    +0.000 OA
ATOM     19  C   UNL     1       1.095  14.920  19.264  0.00  0.00    +0.000 C 
ATOM     20  C   UNL     1       1.436  13.860  18.232  0.00  0.00    +0.000 C 
ATOM     21  C   UNL     1       2.052  12.624  18.889  0.00  0.00    +0.000 C 
ATOM     22  H   UNL     1       0.401   8.722  22.681  0.00  0.00    +0.000 HD
ATOM     23  H   UNL     1       2.051  10.239  19.998  0.00  0.00    +0.000 HD
ENDROOT
BRANCH   1  27
ATOM     24  C   UNL     1      -4.715  12.621  21.204  0.00  0.00    +0.000 A 
ATOM     25  C   UNL     1      -4.155  12.734  22.486  0.00  0.00    +0.000 A 
ATOM     26  C   UNL     1      -2.781  12.634  22.710  0.00  0.00    +0.000 A 
ATOM     27  C   UNL     1      -1.901  12.438  21.647  0.00  0.00    +0.000 A 
ATOM     28  C   UNL     1      -2.429  12.334  20.356  0.00  0.00    +0.000 A 
ATOM     29  C   UNL     1      -3.812  12.424  20.147  0.00  0.00    +0.000 A 
BRANCH  24  31
ATOM     30  C   UNL     1      -6.874  13.665  21.784  0.00  0.00    +0.000 C 
ATOM     31  N   UNL     1      -6.090  12.727  20.991  0.00  0.00    +0.000 N 
ATOM     32  C   UNL     1      -6.797  11.643  20.326  0.00  0.00    +0.000 C 
ENDBRANCH  24  31
ENDBRANCH   1  27
TORSDOF 2
ENDMDL
MODEL 8
REMARK VINA RESULT:      -7.0      1.344      2.016
REMARK  Name = 
REMARK  4 active torsions:
REMARK  status: ('A' for Active; 'I' for Inactive)
REMARK    1  A    between atoms: C_1  and  N_2
REMARK    2  A    between atoms: N_2  and  C_3
REMARK    3  A    between atoms: N_2  and  C_4
REMARK    4  A    between atoms: C_7  and  C_8
REMARK                            x       y       z     vdW  Elec       q    Type
REMARK                         _______ _______ _______ _____ _____    ______ ____
ROOT
ATOM      1  C   UNL     1       0.453  13.489  19.250  0.00  0.00    +0.000 C 
ATOM      2  N   UNL     1       0.946  12.496  18.252  0.00  0.00    +0.000 NA
ATOM      3  C   UNL     1       0.893  11.245  18.572  0.00  0.00    +0.000 C 
ATOM      4  N   UNL     1       1.484  10.347  17.728  0.00  0.00    +0.000 N 
ATOM      5  C   UNL     1       1.922   9.117  18.035  0.00  0.00    +0.000 A 
ATOM      6  N   UNL     1       1.537   8.335  19.024  0.00  0.00    +0.000 NA
ATOM      7  C   UNL     1       2.407   7.277  18.958  0.00  0.00    +0.000 A 
ATOM      8  C   UNL     1       2.517   6.145  19.764  0.00  0.00    +0.000 A 
ATOM      9  C   UNL     1       3.547   5.233  19.493  0.00  0.00    +0.000 A 
ATOM     10  C   UNL     1       4.440   5.450  18.434  0.00  0.00    +0.000 A 
ATOM     11  C   UNL     1       4.326   6.573  17.600  0.00  0.00    +0.000 A 
ATOM     12  C   UNL     1       3.293   7.455  17.906  0.00  0.00    +0.000 A 
ATOM     13  O   UNL     1       2.963   8.629  17.284  0.00  0.00    +0.000 OA
ATOM     14  N   UNL     1       0.335  10.767  19.727  0.00  0.00    +0.000 N 
ATOM     15  C   UNL     1      -0.251  11.577  20.675  0.00  0.00    +0.000 C 
ATOM     16  C   UNL     1      -0.216  12.906  20.473  0.00  0.00    +0.000 C 
ATOM     17  C   UNL     1      -0.884  13.832  21.436  0.00  0.00    +0.000 C 
ATOM     18  O   UNL     1      -0.898  15.048  21.255  0.00  0.00    +0.000 OA
ATOM     19  C   UNL     1      -1.653  13.231  22.589  0.00  0.00    +0.000 C 
ATOM     20  C   UNL     1      -1.030  11.925  23.048  0.00  0.00    +0.000 C 
ATOM     21  C   UNL     1      -0.882  10.942  21.885  0.00  0.00    +0.000 C 
ATOM     22  H   UNL     1       1.928  10.805  16.943  0.00  0.00    +0.000 HD
ATOM     23  H   UNL     1       0.341   9.761  19.879  0.00  0.00    +0.000 HD
ENDROOT
BRANCH   1  27
ATOM     24  C   UNL     1       3.859  16.024  20.298  0.00  0.00    +0.000 A 
ATOM     25  C   UNL     1       3.696  14.730  20.817  0.00  0.00    +0.000 A 
ATOM     26  C   UNL     1       2.594  13.934  20.500  0.00  0.00    +0.000 A 
ATOM     27  C   UNL     1       1.613  14.396  19.624  0.00  0.00    +0.000 A 
ATOM     28  C   UNL     1       1.755  15.678  19.082  0.00  0.00    +0.000 A 
ATOM     29  C   UNL     1       2.861  16.471  19.417  0.00  0.00    +0.000 A 
BRANCH  24  31
ATOM     30  C   UNL     1       5.831  17.308  19.556  0.00  0.00    +0.000 C 
ATOM     31  N   UNL     1       4.968  16.809  20.618  0.00  0.00    +0.000 N 
ATOM     32  C   UNL     1       5.507  16.769  21.970  0.00  0.00    +0.000 C 
ENDBRANCH  24  31
ENDBRANCH   1  27
TORSDOF 2
ENDMDL
MODEL 9
REMARK VINA RESULT:      -7.0      1.363      1.831
REMARK  Name = 
REMARK  4 active torsions:
REMARK  status: ('A' for Active; 'I' for Inactive)
REMARK    1  A    between atoms: C_1  and  N_2
REMARK    2  A    between atoms: N_2  and  C_3
REMARK    3  A    between atoms: N_2  and  C_4
REMARK    4  A    between atoms: C_7  and  C_8
REMARK                            x       y       z     vdW  Elec       q    Type
REMARK                         _______ _______ _______ _____ _____    ______ ____
ROOT
ATOM      1  C   UNL     1      -0.405  13.408  19.421  0.00  0.00    +0.000 C 
ATOM      2  N   UNL     1       0.109  12.465  18.385  0.00  0.00    +0.000 NA
ATOM      3  C   UNL     1       0.253  11.225  18.719  0.00  0.00    +0.000 C 
ATOM      4  N   UNL     1       0.866  10.392  17.825  0.00  0.00    +0.000 N 
ATOM      5  C   UNL     1       1.490   9.235  18.095  0.00  0.00    +0.000 A 
ATOM      6  N   UNL     1       1.314   8.432  19.125  0.00  0.00    +0.000 NA
ATOM      7  C   UNL     1       2.303   7.494  18.978  0.00  0.00    +0.000 A 
ATOM      8  C   UNL     1       2.642   6.404  19.777  0.00  0.00    +0.000 A 
ATOM      9  C   UNL     1       3.749   5.626  19.408  0.00  0.00    +0.000 A 
ATOM     10  C   UNL     1       4.492   5.934  18.260  0.00  0.00    +0.000 A 
ATOM     11  C   UNL     1       4.148   7.014  17.433  0.00  0.00    +0.000 A 
ATOM     12  C   UNL     1       3.046   7.762  17.838  0.00  0.00    +0.000 A 
ATOM     13  O   UNL     1       2.503   8.870  17.245  0.00  0.00    +0.000 OA
ATOM     14  N   UNL     1      -0.118  10.704  19.930  0.00  0.00    +0.000 N 
ATOM     15  C   UNL     1      -0.704  11.452  20.927  0.00  0.00    +0.000 C 
ATOM     16  C   UNL     1      -0.864  12.770  20.711  0.00  0.00    +0.000 C 
ATOM     17  C   UNL     1      -1.545  13.622  21.731  0.00  0.00    +0.000 C 
ATOM     18  O   UNL     1      -1.735  14.822  21.542  0.00  0.00    +0.000 OA
ATOM     19  C   UNL     1      -2.106  12.952  22.963  0.00  0.00    +0.000 C 
ATOM     20  C   UNL     1      -1.275  11.748  23.365  0.00  0.00    +0.000 C 
ATOM     21  C   UNL     1      -1.119  10.768  22.202  0.00  0.00    +0.000 C 
ATOM     22  H   UNL     1       1.165  10.887  16.995  0.00  0.00    +0.000 HD
ATOM     23  H   UNL     1       0.035   9.710  20.089  0.00  0.00    +0.000 HD
ENDROOT
BRANCH   1  27
ATOM     24  C   UNL     1       2.583  16.517  20.150  0.00  0.00    +0.000 A 
ATOM     25  C   UNL     1       1.485  16.713  19.297  0.00  0.00    +0.000 A 
ATOM     26  C   UNL     1       0.548  15.710  19.047  0.00  0.00    +0.000 A 
ATOM     27  C   UNL     1       0.659  14.465  19.664  0.00  0.00    +0.000 A 
ATOM     28  C   UNL     1       1.737  14.244  20.529  0.00  0.00    +0.000 A 
ATOM     29  C   UNL     1       2.677  15.256  20.762  0.00  0.00    +0.000 A 
BRANCH  24  31
ATOM     30  C   UNL     1       4.924  17.295  20.130  0.00  0.00    +0.000 C 
ATOM     31  N   UNL     1       3.511  17.529  20.396  0.00  0.00    +0.000 N 
ATOM     32  C   UNL     1       3.161  18.618  21.297  0.00  0.00    +0.000 C 
ENDBRANCH  24  31
ENDBRANCH   1  27
TORSDOF 2
ENDMDL
