MODEL 1
REMARK VINA RESULT:      -6.1      0.000      0.000
REMARK  Name = 
REMARK  5 active torsions:
REMARK  status: ('A' for Active; 'I' for Inactive)
REMARK    1  A    between atoms: O_1  and  C_2
REMARK    2  A    between atoms: C_2  and  C_3
REMARK    3  A    between atoms: C_6  and  C_7
REMARK    4  A    between atoms: C_10  and  C_11
REMARK    5  A    between atoms: C_11  and  O_12
REMARK                            x       y       z     vdW  Elec       q    Type
REMARK                         _______ _______ _______ _____ _____    ______ ____
ROOT
ATOM      1  C   UNL     1       6.315   4.606  15.602  0.00  0.00    +0.000 A 
ATOM      2  C   UNL     1       7.035   4.957  16.727  0.00  0.00    +0.000 A 
ATOM      3  S   UNL     1       6.164   4.712  18.175  0.00  0.00    +0.000 S 
ATOM      4  C   UNL     1       4.801   4.094  17.338  0.00  0.00    +0.000 A 
ATOM      5  C   UNL     1       5.022   4.104  15.972  0.00  0.00    +0.000 A 
ENDROOT
BRANCH   4   6
ATOM      6  C   UNL     1       3.626   3.632  18.042  0.00  0.00    +0.000 A 
ATOM      7  C   UNL     1       2.445   3.156  17.504  0.00  0.00    +0.000 A 
ATOM      8  C   UNL     1       1.484   2.815  18.500  0.00  0.00    +0.000 A 
ATOM      9  C   UNL     1       1.949   3.048  19.777  0.00  0.00    +0.000 A 
ATOM     10  S   UNL     1       3.551   3.642  19.758  0.00  0.00    +0.000 S 
BRANCH   9  11
ATOM     11  C   UNL     1       1.240   2.842  21.074  0.00  0.00    +0.000 C 
BRANCH  11  12
ATOM     12  O   UNL     1       2.213   2.918  22.108  0.00  0.00    +0.000 OA
ATOM     13  H   UNL     1       2.806   3.654  21.877  0.00  0.00    +0.000 HD
ENDBRANCH  11  12
ENDBRANCH   9  11
ENDBRANCH   4   6
BRANCH   1  14
ATOM     14  C   UNL     1       6.810   4.732  14.200  0.00  0.00    +0.000 C 
BRANCH  14  15
ATOM     15  O   UNL     1       7.951   5.578  14.133  0.00  0.00    +0.000 OA
ATOM     16  H   UNL     1       8.681   5.035  13.795  0.00  0.00    +0.000 HD
ENDBRANCH  14  15
ENDBRANCH   1  14
TORSDOF 5
ENDMDL
MODEL 2
REMARK VINA RESULT:      -5.9      1.227      1.240
REMARK  Name = 
REMARK  5 active torsions:
REMARK  status: ('A' for Active; 'I' for Inactive)
REMARK    1  A    between atoms: O_1  and  C_2
REMARK    2  A    between atoms: C_2  and  C_3
REMARK    3  A    between atoms: C_6  and  C_7
REMARK    4  A    between atoms: C_10  and  C_11
REMARK    5  A    between atoms: C_11  and  O_12
REMARK                            x       y       z     vdW  Elec       q    Type
REMARK                         _______ _______ _______ _____ _____    ______ ____
ROOT
ATOM      1  C   UNL     1       5.729   5.067  15.660  0.00  0.00    +0.000 A 
ATOM      2  C   UNL     1       5.568   6.330  16.194  0.00  0.00    +0.000 A 
ATOM      3  S   UNL     1       4.359   6.391  17.397  0.00  0.00    +0.000 S 
ATOM      4  C   UNL     1       4.037   4.712  17.265  0.00  0.00    +0.000 A 
ATOM      5  C   UNL     1       4.838   4.137  16.294  0.00  0.00    +0.000 A 
ENDROOT
BRANCH   4   6
ATOM      6  C   UNL     1       3.056   4.060  18.103  0.00  0.00    +0.000 A 
ATOM      7  C   UNL     1       1.852   3.496  17.723  0.00  0.00    +0.000 A 
ATOM      8  C   UNL     1       1.121   2.965  18.825  0.00  0.00    +0.000 A 
ATOM      9  C   UNL     1       1.778   3.144  20.024  0.00  0.00    +0.000 A 
ATOM     10  S   UNL     1       3.284   3.920  19.799  0.00  0.00    +0.000 S 
BRANCH   9  11
ATOM     11  C   UNL     1       1.333   2.750  21.393  0.00  0.00    +0.000 C 
BRANCH  11  12
ATOM     12  O   UNL     1       2.415   2.999  22.281  0.00  0.00    +0.000 OA
ATOM     13  H   UNL     1       2.937   2.178  22.318  0.00  0.00    +0.000 HD
ENDBRANCH  11  12
ENDBRANCH   9  11
ENDBRANCH   4   6
BRANCH   1  14
ATOM     14  C   UNL     1       6.696   4.717  14.577  0.00  0.00    +0.000 C 
BRANCH  14  15
ATOM     15  O   UNL     1       6.387   3.454  14.002  0.00  0.00    +0.000 OA
ATOM     16  H   UNL     1       5.435   3.458  13.814  0.00  0.00    +0.000 HD
ENDBRANCH  14  15
ENDBRANCH   1  14
TORSDOF 5
ENDMDL
MODEL 3
REMARK VINA RESULT:      -5.7      1.835      6.403
REMARK  Name = 
REMARK  5 active torsions:
REMARK  status: ('A' for Active; 'I' for Inactive)
REMARK    1  A    between atoms: O_1  and  C_2
REMARK    2  A    between atoms: C_2  and  C_3
REMARK    3  A    between atoms: C_6  and  C_7
REMARK    4  A    between atoms: C_10  and  C_11
REMARK    5  A    between atoms: C_11  and  O_12
REMARK                            x       y       z     vdW  Elec       q    Type
REMARK                         _______ _______ _______ _____ _____    ______ ____
ROOT
ATOM      1  C   UNL     1       2.247   4.373  20.678  0.00  0.00    +0.000 A 
ATOM      2  C   UNL     1       1.776   5.671  20.704  0.00  0.00    +0.000 A 
ATOM      3  S   UNL     1       2.460   6.649  19.483  0.00  0.00    +0.000 S 
ATOM      4  C   UNL     1       3.386   5.349  18.857  0.00  0.00    +0.000 A 
ATOM      5  C   UNL     1       3.177   4.200  19.598  0.00  0.00    +0.000 A 
ENDROOT
BRANCH   4   6
ATOM      6  C   UNL     1       4.235   5.512  17.698  0.00  0.00    +0.000 A 
ATOM      7  C   UNL     1       4.567   6.684  17.044  0.00  0.00    +0.000 A 
ATOM      8  C   UNL     1       5.407   6.465  15.914  0.00  0.00    +0.000 A 
ATOM      9  C   UNL     1       5.691   5.130  15.724  0.00  0.00    +0.000 A 
ATOM     10  S   UNL     1       4.967   4.161  16.931  0.00  0.00    +0.000 S 
BRANCH   9  11
ATOM     11  C   UNL     1       6.511   4.501  14.647  0.00  0.00    +0.000 C 
BRANCH  11  12
ATOM     12  O   UNL     1       7.616   5.360  14.396  0.00  0.00    +0.000 OA
ATOM     13  H   UNL     1       8.076   4.999  13.618  0.00  0.00    +0.000 HD
ENDBRANCH  11  12
ENDBRANCH   9  11
ENDBRANCH   4   6
BRANCH   1  14
ATOM     14  C   UNL     1       1.844   3.302  21.636  0.00  0.00    +0.000 C 
BRANCH  14  15
ATOM     15  O   UNL     1       2.938   2.447  21.940  0.00  0.00    +0.000 OA
ATOM     16  H   UNL     1       2.695   1.956  22.740  0.00  0.00    +0.000 HD
ENDBRANCH  14  15
ENDBRANCH   1  14
TORSDOF 5
ENDMDL
MODEL 4
REMARK VINA RESULT:      -5.7      1.425      6.494
REMARK  Name = 
REMARK  5 active torsions:
REMARK  status: ('A' for Active; 'I' for Inactive)
REMARK    1  A    between atoms: O_1  and  C_2
REMARK    2  A    between atoms: C_2  and  C_3
REMARK    3  A    between atoms: C_6  and  C_7
REMARK    4  A    between atoms: C_10  and  C_11
REMARK    5  A    between atoms: C_11  and  O_12
REMARK                            x       y       z     vdW  Elec       q    Type
REMARK                         _______ _______ _______ _____ _____    ______ ____
ROOT
ATOM      1  C   UNL     1       2.085   3.873  20.369  0.00  0.00    +0.000 A 
ATOM      2  C   UNL     1       1.879   5.239  20.339  0.00  0.00    +0.000 A 
ATOM      3  S   UNL     1       3.032   6.062  19.387  0.00  0.00    +0.000 S 
ATOM      4  C   UNL     1       3.826   4.606  18.956  0.00  0.00    +0.000 A 
ATOM      5  C   UNL     1       3.216   3.520  19.558  0.00  0.00    +0.000 A 
ENDROOT
BRANCH   4   6
ATOM      6  C   UNL     1       4.965   4.598  18.064  0.00  0.00    +0.000 A 
ATOM      7  C   UNL     1       6.298   4.769  18.385  0.00  0.00    +0.000 A 
ATOM      8  C   UNL     1       7.149   4.731  17.242  0.00  0.00    +0.000 A 
ATOM      9  C   UNL     1       6.445   4.544  16.072  0.00  0.00    +0.000 A 
ATOM     10  S   UNL     1       4.770   4.380  16.371  0.00  0.00    +0.000 S 
BRANCH   9  11
ATOM     11  C   UNL     1       6.969   4.471  14.676  0.00  0.00    +0.000 C 
BRANCH  11  12
ATOM     12  O   UNL     1       7.894   5.538  14.512  0.00  0.00    +0.000 OA
ATOM     13  H   UNL     1       7.452   6.206  13.959  0.00  0.00    +0.000 HD
ENDBRANCH  11  12
ENDBRANCH   9  11
ENDBRANCH   4   6
BRANCH   1  14
ATOM     14  C   UNL     1       1.249   2.903  21.135  0.00  0.00    +0.000 C 
BRANCH  14  15
ATOM     15  O   UNL     1       1.933   2.437  22.291  0.00  0.00    +0.000 OA
ATOM     16  H   UNL     1       1.525   1.590  22.534  0.00  0.00    +0.000 HD
ENDBRANCH  14  15
ENDBRANCH   1  14
TORSDOF 5
ENDMDL
MODEL 5
REMARK VINA RESULT:      -5.6      1.000      1.000
REMARK  Name = 
REMARK  5 active torsions:
REMARK  status: ('A' for Active; 'I' for Inactive)
REMARK    1  A    between atoms: O_1  and  C_2
REMARK    2  A    between atoms: C_2  and  C_3
REMARK    3  A    between atoms: C_6  and  C_7
REMARK    4  A    between atoms: C_10  and  C_11
REMARK    5  A    between atoms: C_11  and  O_12
REMARK                            x       y       z     vdW  Elec       q    Type
REMARK                         _______ _______ _______ _____ _____    ______ ____
ROOT
ATOM      1  C   UNL     1       6.328   4.465  15.373  0.00  0.00    +0.000 A 
ATOM      2  C   UNL     1       7.286   4.790  16.314  0.00  0.00    +0.000 A 
ATOM      3  S   UNL     1       6.672   4.806  17.906  0.00  0.00    +0.000 S 
ATOM      4  C   UNL     1       5.105   4.341  17.387  0.00  0.00    +0.000 A 
ATOM      5  C   UNL     1       5.069   4.203  16.011  0.00  0.00    +0.000 A 
ENDROOT
BRANCH   4   6
ATOM      6  C   UNL     1       4.028   4.129  18.327  0.00  0.00    +0.000 A 
ATOM      7  C   UNL     1       2.776   4.716  18.334  0.00  0.00    +0.000 A 
ATOM      8  C   UNL     1       1.975   4.291  19.433  0.00  0.00    +0.000 A 
ATOM      9  C   UNL     1       2.635   3.396  20.248  0.00  0.00    +0.000 A 
ATOM     10  S   UNL     1       4.201   3.054  19.656  0.00  0.00    +0.000 S 
BRANCH   9  11
ATOM     11  C   UNL     1       2.146   2.745  21.499  0.00  0.00    +0.000 C 
BRANCH  11  12
ATOM     12  O   UNL     1       0.725   2.758  21.457  0.00  0.00    +0.000 OA
ATOM     13  H   UNL     1       0.420   2.399  22.309  0.00  0.00    +0.000 HD
ENDBRANCH  11  12
ENDBRANCH   9  11
ENDBRANCH   4   6
BRANCH   1  14
ATOM     14  C   UNL     1       6.568   4.395  13.902  0.00  0.00    +0.000 C 
BRANCH  14  15
ATOM     15  O   UNL     1       7.553   5.337  13.497  0.00  0.00    +0.000 OA
ATOM     16  H   UNL     1       8.416   4.912  13.627  0.00  0.00    +0.000 HD
ENDBRANCH  14  15
ENDBRANCH   1  14
TORSDOF 5
ENDMDL
MODEL 6
REMARK VINA RESULT:      -5.6      1.794      2.149
REMARK  Name = 
REMARK  5 active torsions:
REMARK  status: ('A' for Active; 'I' for Inactive)
REMARK    1  A    between atoms: O_1  and  C_2
REMARK    2  A    between atoms: C_2  and  C_3
REMARK    3  A    between atoms: C_6  and  C_7
REMARK    4  A    between atoms: C_10  and  C_11
REMARK    5  A    between atoms: C_11  and  O_12
REMARK                            x       y       z     vdW  Elec       q    Type
REMARK                         _______ _______ _______ _____ _____    ______ ____
ROOT
ATOM      1  C   UNL     1       6.687   6.256  17.294  0.00  0.00    +0.000 A 
ATOM      2  C   UNL     1       6.734   5.490  16.146  0.00  0.00    +0.000 A 
ATOM      3  S   UNL     1       5.520   4.291  16.099  0.00  0.00    +0.000 S 
ATOM      4  C   UNL     1       4.869   4.784  17.607  0.00  0.00    +0.000 A 
ATOM      5  C   UNL     1       5.597   5.838  18.131  0.00  0.00    +0.000 A 
ENDROOT
BRANCH   4   6
ATOM      6  C   UNL     1       3.705   4.144  18.176  0.00  0.00    +0.000 A 
ATOM      7  C   UNL     1       2.676   3.504  17.512  0.00  0.00    +0.000 A 
ATOM      8  C   UNL     1       1.672   3.011  18.397  0.00  0.00    +0.000 A 
ATOM      9  C   UNL     1       1.952   3.295  19.716  0.00  0.00    +0.000 A 
ATOM     10  S   UNL     1       3.440   4.121  19.873  0.00  0.00    +0.000 S 
BRANCH   9  11
ATOM     11  C   UNL     1       1.142   2.969  20.927  0.00  0.00    +0.000 C 
BRANCH  11  12
ATOM     12  O   UNL     1       2.048   2.785  22.008  0.00  0.00    +0.000 OA
ATOM     13  H   UNL     1       2.270   3.673  22.338  0.00  0.00    +0.000 HD
ENDBRANCH  11  12
ENDBRANCH   9  11
ENDBRANCH   4   6
BRANCH   1  14
ATOM     14  C   UNL     1       7.635   7.362  17.620  0.00  0.00    +0.000 C 
BRANCH  14  15
ATOM     15  O   UNL     1       8.332   7.101  18.830  0.00  0.00    +0.000 OA
ATOM     16  H   UNL     1       8.981   7.815  18.937  0.00  0.00    +0.000 HD
ENDBRANCH  14  15
ENDBRANCH   1  14
TORSDOF 5
ENDMDL
MODEL 7
REMARK VINA RESULT:      -5.5      1.499      1.517
REMARK  Name = 
REMARK  5 active torsions:
REMARK  status: ('A' for Active; 'I' for Inactive)
REMARK    1  A    between atoms: O_1  and  C_2
REMARK    2  A    between atoms: C_2  and  C_3
REMARK    3  A    between atoms: C_6  and  C_7
REMARK    4  A    between atoms: C_10  and  C_11
REMARK    5  A    between atoms: C_11  and  O_12
REMARK                            x       y       z     vdW  Elec       q    Type
REMARK                         _______ _______ _______ _____ _____    ______ ____
ROOT
ATOM      1  C   UNL     1       6.338   4.339  14.694  0.00  0.00    +0.000 A 
ATOM      2  C   UNL     1       7.215   4.687  15.703  0.00  0.00    +0.000 A 
ATOM      3  S   UNL     1       6.466   4.768  17.234  0.00  0.00    +0.000 S 
ATOM      4  C   UNL     1       4.943   4.304  16.597  0.00  0.00    +0.000 A 
ATOM      5  C   UNL     1       5.024   4.116  15.229  0.00  0.00    +0.000 A 
ENDROOT
BRANCH   4   6
ATOM      6  C   UNL     1       3.785   4.139  17.446  0.00  0.00    +0.000 A 
ATOM      7  C   UNL     1       2.648   3.393  17.199  0.00  0.00    +0.000 A 
ATOM      8  C   UNL     1       1.690   3.484  18.251  0.00  0.00    +0.000 A 
ATOM      9  C   UNL     1       2.113   4.305  19.274  0.00  0.00    +0.000 A 
ATOM     10  S   UNL     1       3.675   4.927  18.968  0.00  0.00    +0.000 S 
BRANCH   9  11
ATOM     11  C   UNL     1       1.392   4.668  20.530  0.00  0.00    +0.000 C 
BRANCH  11  12
ATOM     12  O   UNL     1       2.332   5.289  21.396  0.00  0.00    +0.000 OA
ATOM     13  H   UNL     1       2.272   4.825  22.250  0.00  0.00    +0.000 HD
ENDBRANCH  11  12
ENDBRANCH   9  11
ENDBRANCH   4   6
BRANCH   1  14
ATOM     14  C   UNL     1       6.704   4.213  13.253  0.00  0.00    +0.000 C 
BRANCH  14  15
ATOM     15  O   UNL     1       6.335   2.940  12.739  0.00  0.00    +0.000 OA
ATOM     16  H   UNL     1       5.405   2.801  12.978  0.00  0.00    +0.000 HD
ENDBRANCH  14  15
ENDBRANCH   1  14
TORSDOF 5
ENDMDL
MODEL 8
REMARK VINA RESULT:      -5.5      1.560      6.533
REMARK  Name = 
REMARK  5 active torsions:
REMARK  status: ('A' for Active; 'I' for Inactive)
REMARK    1  A    between atoms: O_1  and  C_2
REMARK    2  A    between atoms: C_2  and  C_3
REMARK    3  A    between atoms: C_6  and  C_7
REMARK    4  A    between atoms: C_10  and  C_11
REMARK    5  A    between atoms: C_11  and  O_12
REMARK                            x       y       z     vdW  Elec       q    Type
REMARK                         _______ _______ _______ _____ _____    ______ ____
ROOT
ATOM      1  C   UNL     1       2.259   4.005  20.284  0.00  0.00    +0.000 A 
ATOM      2  C   UNL     1       1.220   3.813  19.394  0.00  0.00    +0.000 A 
ATOM      3  S   UNL     1       1.639   4.215  17.789  0.00  0.00    +0.000 S 
ATOM      4  C   UNL     1       3.243   4.628  18.233  0.00  0.00    +0.000 A 
ATOM      5  C   UNL     1       3.428   4.474  19.595  0.00  0.00    +0.000 A 
ENDROOT
BRANCH   4   6
ATOM      6  C   UNL     1       4.215   5.055  17.251  0.00  0.00    +0.000 A 
ATOM      7  C   UNL     1       4.658   6.339  16.995  0.00  0.00    +0.000 A 
ATOM      8  C   UNL     1       5.604   6.394  15.931  0.00  0.00    +0.000 A 
ATOM      9  C   UNL     1       5.855   5.151  15.390  0.00  0.00    +0.000 A 
ATOM     10  S   UNL     1       4.972   3.930  16.197  0.00  0.00    +0.000 S 
BRANCH   9  11
ATOM     11  C   UNL     1       6.760   4.798  14.256  0.00  0.00    +0.000 C 
BRANCH  11  12
ATOM     12  O   UNL     1       7.917   5.617  14.364  0.00  0.00    +0.000 OA
ATOM     13  H   UNL     1       7.728   6.431  13.865  0.00  0.00    +0.000 HD
ENDBRANCH  11  12
ENDBRANCH   9  11
ENDBRANCH   4   6
BRANCH   1  14
ATOM     14  C   UNL     1       2.178   3.758  21.754  0.00  0.00    +0.000 C 
BRANCH  14  15
ATOM     15  O   UNL     1       2.006   2.376  22.034  0.00  0.00    +0.000 OA
ATOM     16  H   UNL     1       2.758   2.107  22.586  0.00  0.00    +0.000 HD
ENDBRANCH  14  15
ENDBRANCH   1  14
TORSDOF 5
ENDMDL
MODEL 9
REMARK VINA RESULT:      -5.4      1.740      6.296
REMARK  Name = 
REMARK  5 active torsions:
REMARK  status: ('A' for Active; 'I' for Inactive)
REMARK    1  A    between atoms: O_1  and  C_2
REMARK    2  A    between atoms: C_2  and  C_3
REMARK    3  A    between atoms: C_6  and  C_7
REMARK    4  A    between atoms: C_10  and  C_11
REMARK    5  A    between atoms: C_11  and  O_12
REMARK                            x       y       z     vdW  Elec       q    Type
REMARK                         _______ _______ _______ _____ _____    ______ ____
ROOT
ATOM      1  C   UNL     1       1.930   3.004  19.984  0.00  0.00    +0.000 A 
ATOM      2  C   UNL     1       1.604   2.364  18.804  0.00  0.00    +0.000 A 
ATOM      3  S   UNL     1       2.539   2.899  17.480  0.00  0.00    +0.000 S 
ATOM      4  C   UNL     1       3.437   3.985  18.456  0.00  0.00    +0.000 A 
ATOM      5  C   UNL     1       2.998   3.939  19.768  0.00  0.00    +0.000 A 
ENDROOT
BRANCH   4   6
ATOM      6  C   UNL     1       4.503   4.793  17.908  0.00  0.00    +0.000 A 
ATOM      7  C   UNL     1       4.748   5.092  16.581  0.00  0.00    +0.000 A 
ATOM      8  C   UNL     1       5.911   5.897  16.404  0.00  0.00    +0.000 A 
ATOM      9  C   UNL     1       6.535   6.185  17.598  0.00  0.00    +0.000 A 
ATOM     10  S   UNL     1       5.690   5.511  18.921  0.00  0.00    +0.000 S 
BRANCH   9  11
ATOM     11  C   UNL     1       7.782   6.974  17.827  0.00  0.00    +0.000 C 
BRANCH  11  12
ATOM     12  O   UNL     1       7.602   8.242  17.209  0.00  0.00    +0.000 OA
ATOM     13  H   UNL     1       6.659   8.305  16.974  0.00  0.00    +0.000 HD
ENDBRANCH  11  12
ENDBRANCH   9  11
ENDBRANCH   4   6
BRANCH   1  14
ATOM     14  C   UNL     1       1.266   2.758  21.298  0.00  0.00    +0.000 C 
BRANCH  14  15
ATOM     15  O   UNL     1       2.133   3.074  22.378  0.00  0.00    +0.000 OA
ATOM     16  H   UNL     1       1.570   3.220  23.155  0.00  0.00    +0.000 HD
ENDBRANCH  14  15
ENDBRANCH   1  14
TORSDOF 5
ENDMDL
