MODEL 1
REMARK VINA RESULT:      -7.3      0.000      0.000
REMARK  Name = 
REMARK  7 active torsions:
REMARK  status: ('A' for Active; 'I' for Inactive)
REMARK    1  A    between atoms: C_3  and  C_4
REMARK    2  A    between atoms: C_4  and  N_5
REMARK    3  A    between atoms: C_8  and  C_9
REMARK    4  A    between atoms: C_9  and  C_10
REMARK    5  A    between atoms: C_10  and  N_11
REMARK    6  A    between atoms: C_19  and  C_20
REMARK    7  A    between atoms: C_20  and  N_21
REMARK                            x       y       z     vdW  Elec       q    Type
REMARK                         _______ _______ _______ _____ _____    ______ ____
ROOT
ATOM      1  C   UNL     1       1.934   7.644  21.182  0.00  0.00    +0.000 C 
ENDROOT
BRANCH   1   4
ATOM      2  C   UNL     1      -0.494  10.256  22.579  0.00  0.00    +0.000 A 
ATOM      3  C   UNL     1       0.343   9.135  22.502  0.00  0.00    +0.000 A 
ATOM      4  C   UNL     1       0.923   8.768  21.280  0.00  0.00    +0.000 A 
ATOM      5  C   UNL     1       0.618   9.522  20.143  0.00  0.00    +0.000 A 
ATOM      6  C   UNL     1      -0.175  10.682  20.215  0.00  0.00    +0.000 A 
ATOM      7  C   UNL     1      -0.742  11.037  21.448  0.00  0.00    +0.000 A 
BRANCH   6   8
ATOM      8  C   UNL     1      -0.350  11.524  18.977  0.00  0.00    +0.000 C 
BRANCH   8   9
ATOM      9  N   UNL     1      -1.489  11.100  18.176  0.00  0.00    +0.000 N 
ATOM     10  C   UNL     1      -1.578   9.976  17.401  0.00  0.00    +0.000 A 
ATOM     11  C   UNL     1      -2.807  10.030  16.791  0.00  0.00    +0.000 A 
ATOM     12  C   UNL     1      -3.416  11.186  17.316  0.00  0.00    +0.000 A 
ATOM     13  N   UNL     1      -2.625  11.832  18.175  0.00  0.00    +0.000 NA
ENDBRANCH   8   9
ENDBRANCH   6   8
ENDBRANCH   1   4
BRANCH   1  14
ATOM     14  N   UNL     1       1.646   6.603  20.170  0.00  0.00    +0.000 NA
ATOM     15  C   UNL     1       2.515   6.754  18.993  0.00  0.00    +0.000 C 
ATOM     16  C   UNL     1       2.426   5.585  18.007  0.00  0.00    +0.000 C 
ATOM     17  C   UNL     1       2.648   4.214  18.667  0.00  0.00    +0.000 C 
ATOM     18  C   UNL     1       1.654   4.108  19.830  0.00  0.00    +0.000 C 
ATOM     19  C   UNL     1       1.768   5.280  20.808  0.00  0.00    +0.000 C 
BRANCH  17  20
ATOM     20  C   UNL     1       4.119   3.975  19.072  0.00  0.00    +0.000 C 
BRANCH  20  21
ATOM     21  C   UNL     1       5.089   4.041  17.882  0.00  0.00    +0.000 C 
BRANCH  21  22
ATOM     22  N   UNL     1       6.107   5.064  18.044  0.00  0.00    +0.000 N 
ATOM     23  C   UNL     1       6.418   6.060  17.164  0.00  0.00    +0.000 A 
ATOM     24  C   UNL     1       7.454   6.762  17.734  0.00  0.00    +0.000 A 
ATOM     25  C   UNL     1       7.710   6.096  18.946  0.00  0.00    +0.000 A 
ATOM     26  N   UNL     1       6.894   5.058  19.137  0.00  0.00    +0.000 NA
ENDBRANCH  21  22
ENDBRANCH  20  21
ENDBRANCH  17  20
ENDBRANCH   1  14
TORSDOF 7
ENDMDL
MODEL 2
REMARK VINA RESULT:      -7.3      1.486      2.638
REMARK  Name = 
REMARK  7 active torsions:
REMARK  status: ('A' for Active; 'I' for Inactive)
REMARK    1  A    between atoms: C_3  and  C_4
REMARK    2  A    between atoms: C_4  and  N_5
REMARK    3  A    between atoms: C_8  and  C_9
REMARK    4  A    between atoms: C_9  and  C_10
REMARK    5  A    between atoms: C_10  and  N_11
REMARK    6  A    between atoms: C_19  and  C_20
REMARK    7  A    between atoms: C_20  and  N_21
REMARK                            x       y       z     vdW  Elec       q    Type
REMARK                         _______ _______ _______ _____ _____    ______ ____
ROOT
ATOM      1  C   UNL     1       2.246   5.884  20.470  0.00  0.00    +0.000 C 
ENDROOT
BRANCH   1   4
ATOM      2  C   UNL     1       2.621   8.463  17.663  0.00  0.00    +0.000 A 
ATOM      3  C   UNL     1       2.809   7.306  18.430  0.00  0.00    +0.000 A 
ATOM      4  C   UNL     1       2.173   7.170  19.673  0.00  0.00    +0.000 A 
ATOM      5  C   UNL     1       1.383   8.226  20.137  0.00  0.00    +0.000 A 
ATOM      6  C   UNL     1       1.141   9.369  19.354  0.00  0.00    +0.000 A 
ATOM      7  C   UNL     1       1.781   9.484  18.110  0.00  0.00    +0.000 A 
BRANCH   6   8
ATOM      8  C   UNL     1       0.169  10.406  19.858  0.00  0.00    +0.000 C 
BRANCH   8   9
ATOM      9  N   UNL     1      -0.874  10.703  18.888  0.00  0.00    +0.000 N 
ATOM     10  C   UNL     1      -1.120  11.907  18.287  0.00  0.00    +0.000 A 
ATOM     11  C   UNL     1      -2.232  11.721  17.503  0.00  0.00    +0.000 A 
ATOM     12  C   UNL     1      -2.543  10.355  17.641  0.00  0.00    +0.000 A 
ATOM     13  N   UNL     1      -1.707   9.725  18.469  0.00  0.00    +0.000 NA
ENDBRANCH   8   9
ENDBRANCH   6   8
ENDBRANCH   1   4
BRANCH   1  14
ATOM     14  N   UNL     1       2.515   4.656  19.690  0.00  0.00    +0.000 NA
ATOM     15  C   UNL     1       1.942   4.751  18.338  0.00  0.00    +0.000 C 
ATOM     16  C   UNL     1       2.370   3.613  17.405  0.00  0.00    +0.000 C 
ATOM     17  C   UNL     1       3.895   3.429  17.331  0.00  0.00    +0.000 C 
ATOM     18  C   UNL     1       4.399   3.260  18.770  0.00  0.00    +0.000 C 
ATOM     19  C   UNL     1       3.969   4.412  19.682  0.00  0.00    +0.000 C 
BRANCH  17  20
ATOM     20  C   UNL     1       4.599   4.557  16.546  0.00  0.00    +0.000 C 
BRANCH  20  21
ATOM     21  C   UNL     1       6.125   4.391  16.493  0.00  0.00    +0.000 C 
BRANCH  21  22
ATOM     22  N   UNL     1       6.831   5.463  17.173  0.00  0.00    +0.000 N 
ATOM     23  C   UNL     1       7.486   5.387  18.368  0.00  0.00    +0.000 A 
ATOM     24  C   UNL     1       7.975   6.649  18.615  0.00  0.00    +0.000 A 
ATOM     25  C   UNL     1       7.541   7.418  17.520  0.00  0.00    +0.000 A 
ATOM     26  N   UNL     1       6.840   6.700  16.640  0.00  0.00    +0.000 NA
ENDBRANCH  21  22
ENDBRANCH  20  21
ENDBRANCH  17  20
ENDBRANCH   1  14
TORSDOF 7
ENDMDL
MODEL 3
REMARK VINA RESULT:      -7.2      1.476      8.647
REMARK  Name = 
REMARK  7 active torsions:
REMARK  status: ('A' for Active; 'I' for Inactive)
REMARK    1  A    between atoms: C_3  and  C_4
REMARK    2  A    between atoms: C_4  and  N_5
REMARK    3  A    between atoms: C_8  and  C_9
REMARK    4  A    between atoms: C_9  and  C_10
REMARK    5  A    between atoms: C_10  and  N_11
REMARK    6  A    between atoms: C_19  and  C_20
REMARK    7  A    between atoms: C_20  and  N_21
REMARK                            x       y       z     vdW  Elec       q    Type
REMARK                         _______ _______ _______ _____ _____    ______ ____
ROOT
ATOM      1  C   UNL     1       2.139   6.373  20.070  0.00  0.00    +0.000 C 
ENDROOT
BRANCH   1   4
ATOM      2  C   UNL     1       2.330   3.463  17.587  0.00  0.00    +0.000 A 
ATOM      3  C   UNL     1       1.905   4.267  18.653  0.00  0.00    +0.000 A 
ATOM      4  C   UNL     1       2.635   5.409  19.012  0.00  0.00    +0.000 A 
ATOM      5  C   UNL     1       3.806   5.701  18.307  0.00  0.00    +0.000 A 
ATOM      6  C   UNL     1       4.215   4.936  17.200  0.00  0.00    +0.000 A 
ATOM      7  C   UNL     1       3.469   3.799  16.852  0.00  0.00    +0.000 A 
BRANCH   6   8
ATOM      8  C   UNL     1       5.412   5.388  16.402  0.00  0.00    +0.000 C 
BRANCH   8   9
ATOM      9  N   UNL     1       6.456   5.952  17.243  0.00  0.00    +0.000 N 
ATOM     10  C   UNL     1       7.120   5.326  18.263  0.00  0.00    +0.000 A 
ATOM     11  C   UNL     1       7.964   6.267  18.801  0.00  0.00    +0.000 A 
ATOM     12  C   UNL     1       7.790   7.407  17.994  0.00  0.00    +0.000 A 
ATOM     13  N   UNL     1       6.886   7.216  17.031  0.00  0.00    +0.000 NA
ENDBRANCH   8   9
ENDBRANCH   6   8
ENDBRANCH   1   4
BRANCH   1  14
ATOM     14  N   UNL     1       2.185   7.808  19.708  0.00  0.00    +0.000 NA
ATOM     15  C   UNL     1       1.828   8.009  18.295  0.00  0.00    +0.000 C 
ATOM     16  C   UNL     1       1.640   9.480  17.910  0.00  0.00    +0.000 C 
ATOM     17  C   UNL     1       0.654  10.226  18.825  0.00  0.00    +0.000 C 
ATOM     18  C   UNL     1       1.140  10.030  20.266  0.00  0.00    +0.000 C 
ATOM     19  C   UNL     1       1.312   8.554  20.632  0.00  0.00    +0.000 C 
BRANCH  17  20
ATOM     20  C   UNL     1      -0.814   9.807  18.593  0.00  0.00    +0.000 C 
BRANCH  20  21
ATOM     21  C   UNL     1      -1.798  10.982  18.696  0.00  0.00    +0.000 C 
BRANCH  21  22
ATOM     22  N   UNL     1      -2.725  11.038  17.579  0.00  0.00    +0.000 N 
ATOM     23  C   UNL     1      -2.481  10.661  16.289  0.00  0.00    +0.000 A 
ATOM     24  C   UNL     1      -3.640  10.917  15.593  0.00  0.00    +0.000 A 
ATOM     25  C   UNL     1      -4.513  11.469  16.547  0.00  0.00    +0.000 A 
ATOM     26  N   UNL     1      -3.959  11.548  17.759  0.00  0.00    +0.000 NA
ENDBRANCH  21  22
ENDBRANCH  20  21
ENDBRANCH  17  20
ENDBRANCH   1  14
TORSDOF 7
ENDMDL
MODEL 4
REMARK VINA RESULT:      -7.1      1.370      8.600
REMARK  Name = 
REMARK  7 active torsions:
REMARK  status: ('A' for Active; 'I' for Inactive)
REMARK    1  A    between atoms: C_3  and  C_4
REMARK    2  A    between atoms: C_4  and  N_5
REMARK    3  A    between atoms: C_8  and  C_9
REMARK    4  A    between atoms: C_9  and  C_10
REMARK    5  A    between atoms: C_10  and  N_11
REMARK    6  A    between atoms: C_19  and  C_20
REMARK    7  A    between atoms: C_20  and  N_21
REMARK                            x       y       z     vdW  Elec       q    Type
REMARK                         _______ _______ _______ _____ _____    ______ ____
ROOT
ATOM      1  C   UNL     1       1.891   6.331  20.243  0.00  0.00    +0.000 C 
ENDROOT
BRANCH   1   4
ATOM      2  C   UNL     1       2.154   3.427  17.760  0.00  0.00    +0.000 A 
ATOM      3  C   UNL     1       1.700   4.227  18.817  0.00  0.00    +0.000 A 
ATOM      4  C   UNL     1       2.417   5.372  19.196  0.00  0.00    +0.000 A 
ATOM      5  C   UNL     1       3.603   5.670  18.520  0.00  0.00    +0.000 A 
ATOM      6  C   UNL     1       4.042   4.908  17.422  0.00  0.00    +0.000 A 
ATOM      7  C   UNL     1       3.309   3.770  17.053  0.00  0.00    +0.000 A 
BRANCH   6   8
ATOM      8  C   UNL     1       5.256   5.366  16.654  0.00  0.00    +0.000 C 
BRANCH   8   9
ATOM      9  N   UNL     1       6.352   5.750  17.531  0.00  0.00    +0.000 N 
ATOM     10  C   UNL     1       6.970   6.969  17.590  0.00  0.00    +0.000 A 
ATOM     11  C   UNL     1       7.978   6.840  18.514  0.00  0.00    +0.000 A 
ATOM     12  C   UNL     1       7.843   5.529  19.010  0.00  0.00    +0.000 A 
ATOM     13  N   UNL     1       6.841   4.867  18.428  0.00  0.00    +0.000 NA
ENDBRANCH   8   9
ENDBRANCH   6   8
ENDBRANCH   1   4
BRANCH   1  14
ATOM     14  N   UNL     1       2.053   7.771  19.938  0.00  0.00    +0.000 NA
ATOM     15  C   UNL     1       1.720   8.055  18.534  0.00  0.00    +0.000 C 
ATOM     16  C   UNL     1       1.651   9.551  18.208  0.00  0.00    +0.000 C 
ATOM     17  C   UNL     1       0.725  10.337  19.150  0.00  0.00    +0.000 C 
ATOM     18  C   UNL     1       1.188  10.046  20.584  0.00  0.00    +0.000 C 
ATOM     19  C   UNL     1       1.239   8.547  20.891  0.00  0.00    +0.000 C 
BRANCH  17  20
ATOM     20  C   UNL     1      -0.771  10.047  18.901  0.00  0.00    +0.000 C 
BRANCH  20  21
ATOM     21  C   UNL     1      -1.116   9.907  17.411  0.00  0.00    +0.000 C 
BRANCH  21  22
ATOM     22  N   UNL     1      -2.414  10.470  17.079  0.00  0.00    +0.000 N 
ATOM     23  C   UNL     1      -3.373  10.893  17.953  0.00  0.00    +0.000 A 
ATOM     24  C   UNL     1      -4.428  11.321  17.182  0.00  0.00    +0.000 A 
ATOM     25  C   UNL     1      -4.016  11.091  15.857  0.00  0.00    +0.000 A 
ATOM     26  N   UNL     1      -2.790  10.568  15.789  0.00  0.00    +0.000 NA
ENDBRANCH  21  22
ENDBRANCH  20  21
ENDBRANCH  17  20
ENDBRANCH   1  14
TORSDOF 7
ENDMDL
MODEL 5
REMARK VINA RESULT:      -7.0      2.720      3.880
REMARK  Name = 
REMARK  7 active torsions:
REMARK  status: ('A' for Active; 'I' for Inactive)
REMARK    1  A    between atoms: C_3  and  C_4
REMARK    2  A    between atoms: C_4  and  N_5
REMARK    3  A    between atoms: C_8  and  C_9
REMARK    4  A    between atoms: C_9  and  C_10
REMARK    5  A    between atoms: C_10  and  N_11
REMARK    6  A    between atoms: C_19  and  C_20
REMARK    7  A    between atoms: C_20  and  N_21
REMARK                            x       y       z     vdW  Elec       q    Type
REMARK                         _______ _______ _______ _____ _____    ______ ____
ROOT
ATOM      1  C   UNL     1       2.718   7.569  18.218  0.00  0.00    +0.000 C 
ENDROOT
BRANCH   1   4
ATOM      2  C   UNL     1       0.971   8.510  21.494  0.00  0.00    +0.000 A 
ATOM      3  C   UNL     1       1.672   7.768  20.535  0.00  0.00    +0.000 A 
ATOM      4  C   UNL     1       1.857   8.280  19.242  0.00  0.00    +0.000 A 
ATOM      5  C   UNL     1       1.296   9.522  18.930  0.00  0.00    +0.000 A 
ATOM      6  C   UNL     1       0.638  10.302  19.897  0.00  0.00    +0.000 A 
ATOM      7  C   UNL     1       0.469   9.776  21.188  0.00  0.00    +0.000 A 
BRANCH   6   8
ATOM      8  C   UNL     1       0.180  11.689  19.527  0.00  0.00    +0.000 C 
BRANCH   8   9
ATOM      9  N   UNL     1       1.286  12.630  19.430  0.00  0.00    +0.000 N 
ATOM     10  C   UNL     1       2.039  13.124  20.459  0.00  0.00    +0.000 A 
ATOM     11  C   UNL     1       2.917  14.017  19.893  0.00  0.00    +0.000 A 
ATOM     12  C   UNL     1       2.665  13.939  18.510  0.00  0.00    +0.000 A 
ATOM     13  N   UNL     1       1.685  13.081  18.220  0.00  0.00    +0.000 NA
ENDBRANCH   8   9
ENDBRANCH   6   8
ENDBRANCH   1   4
BRANCH   1  14
ATOM     14  N   UNL     1       3.160   6.205  18.583  0.00  0.00    +0.000 NA
ATOM     15  C   UNL     1       2.456   5.189  17.786  0.00  0.00    +0.000 C 
ATOM     16  C   UNL     1       3.021   3.774  17.953  0.00  0.00    +0.000 C 
ATOM     17  C   UNL     1       4.537   3.692  17.710  0.00  0.00    +0.000 C 
ATOM     18  C   UNL     1       5.198   4.725  18.631  0.00  0.00    +0.000 C 
ATOM     19  C   UNL     1       4.626   6.132  18.441  0.00  0.00    +0.000 C 
BRANCH  17  20
ATOM     20  C   UNL     1       4.915   3.844  16.220  0.00  0.00    +0.000 C 
BRANCH  20  21
ATOM     21  C   UNL     1       6.370   4.291  16.012  0.00  0.00    +0.000 C 
BRANCH  21  22
ATOM     22  N   UNL     1       6.718   4.436  14.609  0.00  0.00    +0.000 N 
ATOM     23  C   UNL     1       6.203   3.733  13.558  0.00  0.00    +0.000 A 
ATOM     24  C   UNL     1       6.849   4.198  12.437  0.00  0.00    +0.000 A 
ATOM     25  C   UNL     1       7.751   5.162  12.920  0.00  0.00    +0.000 A 
ATOM     26  N   UNL     1       7.678   5.308  14.245  0.00  0.00    +0.000 NA
ENDBRANCH  21  22
ENDBRANCH  20  21
ENDBRANCH  17  20
ENDBRANCH   1  14
TORSDOF 7
ENDMDL
MODEL 6
REMARK VINA RESULT:      -7.0      1.576      2.573
REMARK  Name = 
REMARK  7 active torsions:
REMARK  status: ('A' for Active; 'I' for Inactive)
REMARK    1  A    between atoms: C_3  and  C_4
REMARK    2  A    between atoms: C_4  and  N_5
REMARK    3  A    between atoms: C_8  and  C_9
REMARK    4  A    between atoms: C_9  and  C_10
REMARK    5  A    between atoms: C_10  and  N_11
REMARK    6  A    between atoms: C_19  and  C_20
REMARK    7  A    between atoms: C_20  and  N_21
REMARK                            x       y       z     vdW  Elec       q    Type
REMARK                         _______ _______ _______ _____ _____    ______ ____
ROOT
ATOM      1  C   UNL     1       2.078   6.284  20.835  0.00  0.00    +0.000 C 
ENDROOT
BRANCH   1   4
ATOM      2  C   UNL     1       2.509   8.406  17.675  0.00  0.00    +0.000 A 
ATOM      3  C   UNL     1       2.672   7.372  18.607  0.00  0.00    +0.000 A 
ATOM      4  C   UNL     1       2.033   7.438  19.854  0.00  0.00    +0.000 A 
ATOM      5  C   UNL     1       1.265   8.567  20.152  0.00  0.00    +0.000 A 
ATOM      6  C   UNL     1       1.048   9.586  19.206  0.00  0.00    +0.000 A 
ATOM      7  C   UNL     1       1.691   9.500  17.961  0.00  0.00    +0.000 A 
BRANCH   6   8
ATOM      8  C   UNL     1       0.099  10.706  19.546  0.00  0.00    +0.000 C 
BRANCH   8   9
ATOM      9  N   UNL     1      -1.038  10.763  18.638  0.00  0.00    +0.000 N 
ATOM     10  C   UNL     1      -1.511  11.864  17.979  0.00  0.00    +0.000 A 
ATOM     11  C   UNL     1      -2.626  11.447  17.294  0.00  0.00    +0.000 A 
ATOM     12  C   UNL     1      -2.704  10.064  17.545  0.00  0.00    +0.000 A 
ATOM     13  N   UNL     1      -1.727   9.637  18.348  0.00  0.00    +0.000 NA
ENDBRANCH   8   9
ENDBRANCH   6   8
ENDBRANCH   1   4
BRANCH   1  14
ATOM     14  N   UNL     1       1.425   5.033  20.389  0.00  0.00    +0.000 NA
ATOM     15  C   UNL     1       1.640   4.807  18.951  0.00  0.00    +0.000 C 
ATOM     16  C   UNL     1       1.184   3.425  18.470  0.00  0.00    +0.000 C 
ATOM     17  C   UNL     1       1.778   2.269  19.290  0.00  0.00    +0.000 C 
ATOM     18  C   UNL     1       1.444   2.542  20.762  0.00  0.00    +0.000 C 
ATOM     19  C   UNL     1       1.917   3.923  21.225  0.00  0.00    +0.000 C 
BRANCH  17  20
ATOM     20  C   UNL     1       3.282   2.049  19.017  0.00  0.00    +0.000 C 
BRANCH  20  21
ATOM     21  C   UNL     1       3.759   2.707  17.713  0.00  0.00    +0.000 C 
BRANCH  21  22
ATOM     22  N   UNL     1       4.686   3.802  17.942  0.00  0.00    +0.000 N 
ATOM     23  C   UNL     1       5.121   4.271  19.148  0.00  0.00    +0.000 A 
ATOM     24  C   UNL     1       5.962   5.322  18.866  0.00  0.00    +0.000 A 
ATOM     25  C   UNL     1       5.950   5.421  17.464  0.00  0.00    +0.000 A 
ATOM     26  N   UNL     1       5.169   4.498  16.896  0.00  0.00    +0.000 NA
ENDBRANCH  21  22
ENDBRANCH  20  21
ENDBRANCH  17  20
ENDBRANCH   1  14
TORSDOF 7
ENDMDL
MODEL 7
REMARK VINA RESULT:      -7.0      2.504      3.671
REMARK  Name = 
REMARK  7 active torsions:
REMARK  status: ('A' for Active; 'I' for Inactive)
REMARK    1  A    between atoms: C_3  and  C_4
REMARK    2  A    between atoms: C_4  and  N_5
REMARK    3  A    between atoms: C_8  and  C_9
REMARK    4  A    between atoms: C_9  and  C_10
REMARK    5  A    between atoms: C_10  and  N_11
REMARK    6  A    between atoms: C_19  and  C_20
REMARK    7  A    between atoms: C_20  and  N_21
REMARK                            x       y       z     vdW  Elec       q    Type
REMARK                         _______ _______ _______ _____ _____    ______ ____
ROOT
ATOM      1  C   UNL     1       3.159   7.484  17.622  0.00  0.00    +0.000 C 
ENDROOT
BRANCH   1   4
ATOM      2  C   UNL     1       1.215   8.309  20.818  0.00  0.00    +0.000 A 
ATOM      3  C   UNL     1       2.050   7.640  19.912  0.00  0.00    +0.000 A 
ATOM      4  C   UNL     1       2.170   8.098  18.592  0.00  0.00    +0.000 A 
ATOM      5  C   UNL     1       1.415   9.206  18.198  0.00  0.00    +0.000 A 
ATOM      6  C   UNL     1       0.615   9.919  19.110  0.00  0.00    +0.000 A 
ATOM      7  C   UNL     1       0.512   9.450  20.429  0.00  0.00    +0.000 A 
BRANCH   6   8
ATOM      8  C   UNL     1      -0.064  11.184  18.650  0.00  0.00    +0.000 C 
BRANCH   8   9
ATOM      9  N   UNL     1      -1.452  10.962  18.277  0.00  0.00    +0.000 N 
ATOM     10  C   UNL     1      -1.955   9.904  17.570  0.00  0.00    +0.000 A 
ATOM     11  C   UNL     1      -3.296  10.157  17.409  0.00  0.00    +0.000 A 
ATOM     12  C   UNL     1      -3.521  11.354  18.114  0.00  0.00    +0.000 A 
ATOM     13  N   UNL     1      -2.405  11.840  18.662  0.00  0.00    +0.000 NA
ENDBRANCH   8   9
ENDBRANCH   6   8
ENDBRANCH   1   4
BRANCH   1  14
ATOM     14  N   UNL     1       4.235   6.667  18.228  0.00  0.00    +0.000 NA
ATOM     15  C   UNL     1       3.904   5.235  18.178  0.00  0.00    +0.000 C 
ATOM     16  C   UNL     1       5.064   4.320  18.584  0.00  0.00    +0.000 C 
ATOM     17  C   UNL     1       6.360   4.600  17.805  0.00  0.00    +0.000 C 
ATOM     18  C   UNL     1       6.673   6.092  17.972  0.00  0.00    +0.000 C 
ATOM     19  C   UNL     1       5.505   6.988  17.552  0.00  0.00    +0.000 C 
BRANCH  17  20
ATOM     20  C   UNL     1       6.290   4.132  16.335  0.00  0.00    +0.000 C 
BRANCH  20  21
ATOM     21  C   UNL     1       7.075   5.041  15.377  0.00  0.00    +0.000 C 
BRANCH  21  22
ATOM     22  N   UNL     1       6.943   4.639  13.987  0.00  0.00    +0.000 N 
ATOM     23  C   UNL     1       6.129   3.664  13.488  0.00  0.00    +0.000 A 
ATOM     24  C   UNL     1       6.364   3.630  12.133  0.00  0.00    +0.000 A 
ATOM     25  C   UNL     1       7.352   4.606  11.919  0.00  0.00    +0.000 A 
ATOM     26  N   UNL     1       7.712   5.222  13.048  0.00  0.00    +0.000 NA
ENDBRANCH  21  22
ENDBRANCH  20  21
ENDBRANCH  17  20
ENDBRANCH   1  14
TORSDOF 7
ENDMDL
MODEL 8
REMARK VINA RESULT:      -7.0      1.646      8.588
REMARK  Name = 
REMARK  7 active torsions:
REMARK  status: ('A' for Active; 'I' for Inactive)
REMARK    1  A    between atoms: C_3  and  C_4
REMARK    2  A    between atoms: C_4  and  N_5
REMARK    3  A    between atoms: C_8  and  C_9
REMARK    4  A    between atoms: C_9  and  C_10
REMARK    5  A    between atoms: C_10  and  N_11
REMARK    6  A    between atoms: C_19  and  C_20
REMARK    7  A    between atoms: C_20  and  N_21
REMARK                            x       y       z     vdW  Elec       q    Type
REMARK                         _______ _______ _______ _____ _____    ______ ____
ROOT
ATOM      1  C   UNL     1       1.576   6.547  20.565  0.00  0.00    +0.000 C 
ENDROOT
BRANCH   1   4
ATOM      2  C   UNL     1       1.879   3.402  18.400  0.00  0.00    +0.000 A 
ATOM      3  C   UNL     1       1.333   4.385  19.235  0.00  0.00    +0.000 A 
ATOM      4  C   UNL     1       2.150   5.394  19.767  0.00  0.00    +0.000 A 
ATOM      5  C   UNL     1       3.516   5.371  19.473  0.00  0.00    +0.000 A 
ATOM      6  C   UNL     1       4.068   4.423  18.592  0.00  0.00    +0.000 A 
ATOM      7  C   UNL     1       3.234   3.424  18.065  0.00  0.00    +0.000 A 
BRANCH   6   8
ATOM      8  C   UNL     1       5.522   4.540  18.212  0.00  0.00    +0.000 C 
BRANCH   8   9
ATOM      9  N   UNL     1       5.708   4.691  16.777  0.00  0.00    +0.000 N 
ATOM     10  C   UNL     1       5.378   5.778  16.014  0.00  0.00    +0.000 A 
ATOM     11  C   UNL     1       5.679   5.439  14.718  0.00  0.00    +0.000 A 
ATOM     12  C   UNL     1       6.252   4.156  14.807  0.00  0.00    +0.000 A 
ATOM     13  N   UNL     1       6.290   3.703  16.062  0.00  0.00    +0.000 NA
ENDBRANCH   8   9
ENDBRANCH   6   8
ENDBRANCH   1   4
BRANCH   1  14
ATOM     14  N   UNL     1       1.898   7.902  20.063  0.00  0.00    +0.000 NA
ATOM     15  C   UNL     1       1.734   7.979  18.604  0.00  0.00    +0.000 C 
ATOM     16  C   UNL     1       1.835   9.403  18.047  0.00  0.00    +0.000 C 
ATOM     17  C   UNL     1       0.894  10.398  18.747  0.00  0.00    +0.000 C 
ATOM     18  C   UNL     1       1.184  10.310  20.251  0.00  0.00    +0.000 C 
ATOM     19  C   UNL     1       1.068   8.881  20.788  0.00  0.00    +0.000 C 
BRANCH  17  20
ATOM     20  C   UNL     1      -0.590  10.183  18.378  0.00  0.00    +0.000 C 
BRANCH  20  21
ATOM     21  C   UNL     1      -1.324  11.492  18.051  0.00  0.00    +0.000 C 
BRANCH  21  22
ATOM     22  N   UNL     1      -2.548  11.278  17.299  0.00  0.00    +0.000 N 
ATOM     23  C   UNL     1      -2.654  10.963  15.975  0.00  0.00    +0.000 A 
ATOM     24  C   UNL     1      -4.002  10.883  15.711  0.00  0.00    +0.000 A 
ATOM     25  C   UNL     1      -4.623  11.190  16.934  0.00  0.00    +0.000 A 
ATOM     26  N   UNL     1      -3.741  11.436  17.905  0.00  0.00    +0.000 NA
ENDBRANCH  21  22
ENDBRANCH  20  21
ENDBRANCH  17  20
ENDBRANCH   1  14
TORSDOF 7
ENDMDL
MODEL 9
REMARK VINA RESULT:      -6.9      2.570      8.516
REMARK  Name = 
REMARK  7 active torsions:
REMARK  status: ('A' for Active; 'I' for Inactive)
REMARK    1  A    between atoms: C_3  and  C_4
REMARK    2  A    between atoms: C_4  and  N_5
REMARK    3  A    between atoms: C_8  and  C_9
REMARK    4  A    between atoms: C_9  and  C_10
REMARK    5  A    between atoms: C_10  and  N_11
REMARK    6  A    between atoms: C_19  and  C_20
REMARK    7  A    between atoms: C_20  and  N_21
REMARK                            x       y       z     vdW  Elec       q    Type
REMARK                         _______ _______ _______ _____ _____    ______ ____
ROOT
ATOM      1  C   UNL     1       3.626   7.775  18.018  0.00  0.00    +0.000 C 
ENDROOT
BRANCH   1   4
ATOM      2  C   UNL     1       5.320   5.001  15.992  0.00  0.00    +0.000 A 
ATOM      3  C   UNL     1       5.003   6.273  16.486  0.00  0.00    +0.000 A 
ATOM      4  C   UNL     1       3.920   6.442  17.361  0.00  0.00    +0.000 A 
ATOM      5  C   UNL     1       3.152   5.323  17.695  0.00  0.00    +0.000 A 
ATOM      6  C   UNL     1       3.491   4.032  17.251  0.00  0.00    +0.000 A 
ATOM      7  C   UNL     1       4.582   3.882  16.381  0.00  0.00    +0.000 A 
BRANCH   6   8
ATOM      8  C   UNL     1       2.701   2.854  17.761  0.00  0.00    +0.000 C 
BRANCH   8   9
ATOM      9  N   UNL     1       2.322   3.005  19.158  0.00  0.00    +0.000 N 
ATOM     10  C   UNL     1       1.105   3.398  19.643  0.00  0.00    +0.000 A 
ATOM     11  C   UNL     1       1.240   3.454  21.009  0.00  0.00    +0.000 A 
ATOM     12  C   UNL     1       2.552   3.009  21.258  0.00  0.00    +0.000 A 
ATOM     13  N   UNL     1       3.211   2.716  20.135  0.00  0.00    +0.000 NA
ENDBRANCH   8   9
ENDBRANCH   6   8
ENDBRANCH   1   4
BRANCH   1  14
ATOM     14  N   UNL     1       2.227   7.984  18.453  0.00  0.00    +0.000 NA
ATOM     15  C   UNL     1       2.085   7.770  19.901  0.00  0.00    +0.000 C 
ATOM     16  C   UNL     1       0.717   8.185  20.454  0.00  0.00    +0.000 C 
ATOM     17  C   UNL     1       0.321   9.623  20.082  0.00  0.00    +0.000 C 
ATOM     18  C   UNL     1       0.422   9.738  18.556  0.00  0.00    +0.000 C 
ATOM     19  C   UNL     1       1.799   9.329  18.026  0.00  0.00    +0.000 C 
BRANCH  17  20
ATOM     20  C   UNL     1       1.137  10.688  20.848  0.00  0.00    +0.000 C 
BRANCH  20  21
ATOM     21  C   UNL     1       0.473  12.073  20.840  0.00  0.00    +0.000 C 
BRANCH  21  22
ATOM     22  N   UNL     1      -0.738  12.121  21.640  0.00  0.00    +0.000 N 
ATOM     23  C   UNL     1      -1.971  12.548  21.238  0.00  0.00    +0.000 A 
ATOM     24  C   UNL     1      -2.790  12.431  22.337  0.00  0.00    +0.000 A 
ATOM     25  C   UNL     1      -1.951  11.948  23.356  0.00  0.00    +0.000 A 
ATOM     26  N   UNL     1      -0.698  11.761  22.937  0.00  0.00    +0.000 NA
ENDBRANCH  21  22
ENDBRANCH  20  21
ENDBRANCH  17  20
ENDBRANCH   1  14
TORSDOF 7
ENDMDL
