MODEL 1
REMARK VINA RESULT:      -7.1      0.000      0.000
REMARK  Name = 
REMARK  7 active torsions:
REMARK  status: ('A' for Active; 'I' for Inactive)
REMARK    1  A    between atoms: C_2  and  O_13
REMARK    2  A    between atoms: N_3  and  C_4
REMARK    3  A    between atoms: C_7  and  N_8
REMARK    4  A    between atoms: O_13  and  C_14
REMARK    5  A    between atoms: C_14  and  C_15
REMARK    6  A    between atoms: C_15  and  C_16
REMARK    7  A    between atoms: C_16  and  C_17
REMARK                            x       y       z     vdW  Elec       q    Type
REMARK                         _______ _______ _______ _____ _____    ______ ____
ROOT
ATOM      1  O   UNL     1       7.869   6.571  18.541  0.00  0.00    +0.000 OA
ATOM      2  C   UNL     1       7.523   7.230  17.571  0.00  0.00    +0.000 C 
ATOM      3  N   UNL     1       6.416   7.043  16.787  0.00  0.00    +0.000 N 
ATOM      4  H   UNL     1       6.356   7.683  16.005  0.00  0.00    +0.000 HD
ENDROOT
BRANCH   3   5
ATOM      5  C   UNL     1       5.356   6.140  16.994  0.00  0.00    +0.000 A 
ATOM      6  C   UNL     1       4.204   6.467  17.721  0.00  0.00    +0.000 A 
ATOM      7  C   UNL     1       3.181   5.531  17.909  0.00  0.00    +0.000 A 
ATOM      8  C   UNL     1       3.307   4.251  17.365  0.00  0.00    +0.000 A 
ATOM      9  C   UNL     1       4.440   3.913  16.615  0.00  0.00    +0.000 A 
ATOM     10  C   UNL     1       5.456   4.861  16.427  0.00  0.00    +0.000 A 
BRANCH   8  11
ATOM     11  N   UNL     1       2.249   3.260  17.590  0.00  0.00    +0.000 N 
ATOM     12  O   UNL     1       2.586   2.077  17.755  0.00  0.00    +0.000 OA
ATOM     13  O   UNL     1       1.075   3.662  17.602  0.00  0.00    +0.000 OA
ENDBRANCH   8  11
ENDBRANCH   3   5
BRANCH   2  14
ATOM     14  O   UNL     1       8.176   8.342  17.148  0.00  0.00    +0.000 OA
BRANCH  14  15
ATOM     15  C   UNL     1       8.037   9.488  18.005  0.00  0.00    +0.000 C 
BRANCH  15  16
ATOM     16  C   UNL     1       9.225   9.690  18.938  0.00  0.00    +0.000 C 
BRANCH  16  17
ATOM     17  C   UNL     1       9.253  11.143  19.422  0.00  0.00    +0.000 C 
BRANCH  17  18
ATOM     18  C   UNL     1       9.835  12.081  18.428  0.00  0.00    +0.000 A 
ATOM     19  C   UNL     1       9.254  13.169  17.814  0.00  0.00    +0.000 A 
ATOM     20  N   UNL     1      10.216  13.670  16.981  0.00  0.00    +0.000 N 
ATOM     21  C   UNL     1      11.319  12.875  17.104  0.00  0.00    +0.000 A 
ATOM     22  N   UNL     1      11.121  11.907  17.968  0.00  0.00    +0.000 NA
ATOM     23  H   UNL     1      10.131  14.478  16.381  0.00  0.00    +0.000 HD
ENDBRANCH  17  18
ENDBRANCH  16  17
ENDBRANCH  15  16
ENDBRANCH  14  15
ENDBRANCH   2  14
TORSDOF 7
ENDMDL
MODEL 2
REMARK VINA RESULT:      -7.0      5.113      8.196
REMARK  Name = 
REMARK  7 active torsions:
REMARK  status: ('A' for Active; 'I' for Inactive)
REMARK    1  A    between atoms: C_2  and  O_13
REMARK    2  A    between atoms: N_3  and  C_4
REMARK    3  A    between atoms: C_7  and  N_8
REMARK    4  A    between atoms: O_13  and  C_14
REMARK    5  A    between atoms: C_14  and  C_15
REMARK    6  A    between atoms: C_15  and  C_16
REMARK    7  A    between atoms: C_16  and  C_17
REMARK                            x       y       z     vdW  Elec       q    Type
REMARK                         _______ _______ _______ _____ _____    ______ ____
ROOT
ATOM      1  O   UNL     1       2.756   7.034  18.338  0.00  0.00    +0.000 OA
ATOM      2  C   UNL     1       3.255   6.191  19.072  0.00  0.00    +0.000 C 
ATOM      3  N   UNL     1       4.239   5.292  18.761  0.00  0.00    +0.000 N 
ATOM      4  H   UNL     1       4.462   4.655  19.515  0.00  0.00    +0.000 HD
ENDROOT
BRANCH   3   5
ATOM      5  C   UNL     1       4.996   5.218  17.576  0.00  0.00    +0.000 A 
ATOM      6  C   UNL     1       6.112   6.027  17.330  0.00  0.00    +0.000 A 
ATOM      7  C   UNL     1       6.827   5.924  16.132  0.00  0.00    +0.000 A 
ATOM      8  C   UNL     1       6.423   5.000  15.165  0.00  0.00    +0.000 A 
ATOM      9  C   UNL     1       5.325   4.166  15.401  0.00  0.00    +0.000 A 
ATOM     10  C   UNL     1       4.620   4.273  16.610  0.00  0.00    +0.000 A 
BRANCH   8  11
ATOM     11  N   UNL     1       7.153   4.915  13.894  0.00  0.00    +0.000 N 
ATOM     12  O   UNL     1       8.132   5.662  13.735  0.00  0.00    +0.000 OA
ATOM     13  O   UNL     1       6.748   4.102  13.050  0.00  0.00    +0.000 OA
ENDBRANCH   8  11
ENDBRANCH   3   5
BRANCH   2  14
ATOM     14  O   UNL     1       2.943   6.062  20.387  0.00  0.00    +0.000 OA
BRANCH  14  15
ATOM     15  C   UNL     1       1.567   5.745  20.654  0.00  0.00    +0.000 C 
BRANCH  15  16
ATOM     16  C   UNL     1       1.160   4.364  20.154  0.00  0.00    +0.000 C 
BRANCH  16  17
ATOM     17  C   UNL     1       1.869   3.290  20.986  0.00  0.00    +0.000 C 
BRANCH  17  18
ATOM     18  C   UNL     1       2.904   2.546  20.223  0.00  0.00    +0.000 A 
ATOM     19  C   UNL     1       4.232   2.342  20.528  0.00  0.00    +0.000 A 
ATOM     20  N   UNL     1       4.733   1.610  19.488  0.00  0.00    +0.000 N 
ATOM     21  C   UNL     1       3.716   1.413  18.598  0.00  0.00    +0.000 A 
ATOM     22  N   UNL     1       2.600   1.966  19.012  0.00  0.00    +0.000 NA
ATOM     23  H   UNL     1       5.680   1.275  19.389  0.00  0.00    +0.000 HD
ENDBRANCH  17  18
ENDBRANCH  16  17
ENDBRANCH  15  16
ENDBRANCH  14  15
ENDBRANCH   2  14
TORSDOF 7
ENDMDL
MODEL 3
REMARK VINA RESULT:      -7.0      5.117      8.348
REMARK  Name = 
REMARK  7 active torsions:
REMARK  status: ('A' for Active; 'I' for Inactive)
REMARK    1  A    between atoms: C_2  and  O_13
REMARK    2  A    between atoms: N_3  and  C_4
REMARK    3  A    between atoms: C_7  and  N_8
REMARK    4  A    between atoms: O_13  and  C_14
REMARK    5  A    between atoms: C_14  and  C_15
REMARK    6  A    between atoms: C_15  and  C_16
REMARK    7  A    between atoms: C_16  and  C_17
REMARK                            x       y       z     vdW  Elec       q    Type
REMARK                         _______ _______ _______ _____ _____    ______ ____
ROOT
ATOM      1  O   UNL     1       1.994   7.343  17.843  0.00  0.00    +0.000 OA
ATOM      2  C   UNL     1       2.550   6.762  18.765  0.00  0.00    +0.000 C 
ATOM      3  N   UNL     1       3.624   5.916  18.692  0.00  0.00    +0.000 N 
ATOM      4  H   UNL     1       3.886   5.511  19.581  0.00  0.00    +0.000 HD
ENDROOT
BRANCH   3   5
ATOM      5  C   UNL     1       4.417   5.627  17.565  0.00  0.00    +0.000 A 
ATOM      6  C   UNL     1       4.345   4.413  16.871  0.00  0.00    +0.000 A 
ATOM      7  C   UNL     1       5.161   4.167  15.762  0.00  0.00    +0.000 A 
ATOM      8  C   UNL     1       6.063   5.147  15.338  0.00  0.00    +0.000 A 
ATOM      9  C   UNL     1       6.134   6.375  16.004  0.00  0.00    +0.000 A 
ATOM     10  C   UNL     1       5.305   6.613  17.111  0.00  0.00    +0.000 A 
BRANCH   8  11
ATOM     11  N   UNL     1       6.943   4.876  14.195  0.00  0.00    +0.000 N 
ATOM     12  O   UNL     1       8.030   5.474  14.144  0.00  0.00    +0.000 OA
ATOM     13  O   UNL     1       6.549   4.065  13.343  0.00  0.00    +0.000 OA
ENDBRANCH   8  11
ENDBRANCH   3   5
BRANCH   2  14
ATOM     14  O   UNL     1       2.215   6.932  20.070  0.00  0.00    +0.000 OA
BRANCH  14  15
ATOM     15  C   UNL     1       2.151   5.722  20.841  0.00  0.00    +0.000 C 
BRANCH  15  16
ATOM     16  C   UNL     1       0.986   4.820  20.451  0.00  0.00    +0.000 C 
BRANCH  16  17
ATOM     17  C   UNL     1       1.331   3.365  20.789  0.00  0.00    +0.000 C 
BRANCH  17  18
ATOM     18  C   UNL     1       1.987   2.643  19.669  0.00  0.00    +0.000 A 
ATOM     19  C   UNL     1       1.477   2.303  18.435  0.00  0.00    +0.000 A 
ATOM     20  N   UNL     1       2.487   1.639  17.798  0.00  0.00    +0.000 N 
ATOM     21  C   UNL     1       3.548   1.585  18.656  0.00  0.00    +0.000 A 
ATOM     22  N   UNL     1       3.278   2.182  19.793  0.00  0.00    +0.000 NA
ATOM     23  H   UNL     1       2.460   1.253  16.864  0.00  0.00    +0.000 HD
ENDBRANCH  17  18
ENDBRANCH  16  17
ENDBRANCH  15  16
ENDBRANCH  14  15
ENDBRANCH   2  14
TORSDOF 7
ENDMDL
MODEL 4
REMARK VINA RESULT:      -6.9      5.238      8.345
REMARK  Name = 
REMARK  7 active torsions:
REMARK  status: ('A' for Active; 'I' for Inactive)
REMARK    1  A    between atoms: C_2  and  O_13
REMARK    2  A    between atoms: N_3  and  C_4
REMARK    3  A    between atoms: C_7  and  N_8
REMARK    4  A    between atoms: O_13  and  C_14
REMARK    5  A    between atoms: C_14  and  C_15
REMARK    6  A    between atoms: C_15  and  C_16
REMARK    7  A    between atoms: C_16  and  C_17
REMARK                            x       y       z     vdW  Elec       q    Type
REMARK                         _______ _______ _______ _____ _____    ______ ____
ROOT
ATOM      1  O   UNL     1       3.253   6.748  18.098  0.00  0.00    +0.000 OA
ATOM      2  C   UNL     1       3.748   5.811  18.708  0.00  0.00    +0.000 C 
ATOM      3  N   UNL     1       4.653   4.895  18.240  0.00  0.00    +0.000 N 
ATOM      4  H   UNL     1       4.888   4.175  18.911  0.00  0.00    +0.000 HD
ENDROOT
BRANCH   3   5
ATOM      5  C   UNL     1       5.320   4.899  17.001  0.00  0.00    +0.000 A 
ATOM      6  C   UNL     1       4.741   4.422  15.819  0.00  0.00    +0.000 A 
ATOM      7  C   UNL     1       5.448   4.438  14.612  0.00  0.00    +0.000 A 
ATOM      8  C   UNL     1       6.752   4.937  14.583  0.00  0.00    +0.000 A 
ATOM      9  C   UNL     1       7.340   5.441  15.748  0.00  0.00    +0.000 A 
ATOM     10  C   UNL     1       6.619   5.427  16.952  0.00  0.00    +0.000 A 
BRANCH   8  11
ATOM     11  N   UNL     1       7.506   4.923  13.323  0.00  0.00    +0.000 N 
ATOM     12  O   UNL     1       7.180   4.093  12.461  0.00  0.00    +0.000 OA
ATOM     13  O   UNL     1       8.428   5.742  13.194  0.00  0.00    +0.000 OA
ENDBRANCH   8  11
ENDBRANCH   3   5
BRANCH   2  14
ATOM     14  O   UNL     1       3.520   5.568  20.024  0.00  0.00    +0.000 OA
BRANCH  14  15
ATOM     15  C   UNL     1       2.206   5.922  20.486  0.00  0.00    +0.000 C 
BRANCH  15  16
ATOM     16  C   UNL     1       1.244   4.740  20.527  0.00  0.00    +0.000 C 
BRANCH  16  17
ATOM     17  C   UNL     1       2.019   3.461  20.860  0.00  0.00    +0.000 C 
BRANCH  17  18
ATOM     18  C   UNL     1       2.364   2.656  19.661  0.00  0.00    +0.000 A 
ATOM     19  C   UNL     1       1.566   2.291  18.599  0.00  0.00    +0.000 A 
ATOM     20  N   UNL     1       2.370   1.545  17.783  0.00  0.00    +0.000 N 
ATOM     21  C   UNL     1       3.598   1.470  18.375  0.00  0.00    +0.000 A 
ATOM     22  N   UNL     1       3.627   2.130  19.509  0.00  0.00    +0.000 NA
ATOM     23  H   UNL     1       2.109   1.121  16.904  0.00  0.00    +0.000 HD
ENDBRANCH  17  18
ENDBRANCH  16  17
ENDBRANCH  15  16
ENDBRANCH  14  15
ENDBRANCH   2  14
TORSDOF 7
ENDMDL
MODEL 5
REMARK VINA RESULT:      -6.9      5.286      8.199
REMARK  Name = 
REMARK  7 active torsions:
REMARK  status: ('A' for Active; 'I' for Inactive)
REMARK    1  A    between atoms: C_2  and  O_13
REMARK    2  A    between atoms: N_3  and  C_4
REMARK    3  A    between atoms: C_7  and  N_8
REMARK    4  A    between atoms: O_13  and  C_14
REMARK    5  A    between atoms: C_14  and  C_15
REMARK    6  A    between atoms: C_15  and  C_16
REMARK    7  A    between atoms: C_16  and  C_17
REMARK                            x       y       z     vdW  Elec       q    Type
REMARK                         _______ _______ _______ _____ _____    ______ ____
ROOT
ATOM      1  O   UNL     1       3.446   7.073  17.861  0.00  0.00    +0.000 OA
ATOM      2  C   UNL     1       3.836   6.104  18.498  0.00  0.00    +0.000 C 
ATOM      3  N   UNL     1       4.668   5.104  18.070  0.00  0.00    +0.000 N 
ATOM      4  H   UNL     1       4.817   4.375  18.756  0.00  0.00    +0.000 HD
ENDROOT
BRANCH   3   5
ATOM      5  C   UNL     1       5.371   5.031  16.853  0.00  0.00    +0.000 A 
ATOM      6  C   UNL     1       6.689   5.480  16.703  0.00  0.00    +0.000 A 
ATOM      7  C   UNL     1       7.343   5.395  15.469  0.00  0.00    +0.000 A 
ATOM      8  C   UNL     1       6.674   4.854  14.369  0.00  0.00    +0.000 A 
ATOM      9  C   UNL     1       5.366   4.377  14.504  0.00  0.00    +0.000 A 
ATOM     10  C   UNL     1       4.722   4.461  15.748  0.00  0.00    +0.000 A 
BRANCH   8  11
ATOM     11  N   UNL     1       7.350   4.795  13.066  0.00  0.00    +0.000 N 
ATOM     12  O   UNL     1       7.007   3.904  12.274  0.00  0.00    +0.000 OA
ATOM     13  O   UNL     1       8.226   5.641  12.834  0.00  0.00    +0.000 OA
ENDBRANCH   8  11
ENDBRANCH   3   5
BRANCH   2  14
ATOM     14  O   UNL     1       3.546   5.901  19.809  0.00  0.00    +0.000 OA
BRANCH  14  15
ATOM     15  C   UNL     1       2.144   5.901  20.126  0.00  0.00    +0.000 C 
BRANCH  15  16
ATOM     16  C   UNL     1       1.714   4.694  20.951  0.00  0.00    +0.000 C 
BRANCH  16  17
ATOM     17  C   UNL     1       1.278   3.563  20.013  0.00  0.00    +0.000 C 
BRANCH  17  18
ATOM     18  C   UNL     1       2.415   2.770  19.483  0.00  0.00    +0.000 A 
ATOM     19  C   UNL     1       3.596   2.421  20.101  0.00  0.00    +0.000 A 
ATOM     20  N   UNL     1       4.295   1.707  19.168  0.00  0.00    +0.000 N 
ATOM     21  C   UNL     1       3.537   1.663  18.033  0.00  0.00    +0.000 A 
ATOM     22  N   UNL     1       2.397   2.295  18.191  0.00  0.00    +0.000 NA
ATOM     23  H   UNL     1       5.206   1.288  19.288  0.00  0.00    +0.000 HD
ENDBRANCH  17  18
ENDBRANCH  16  17
ENDBRANCH  15  16
ENDBRANCH  14  15
ENDBRANCH   2  14
TORSDOF 7
ENDMDL
MODEL 6
REMARK VINA RESULT:      -6.8      5.018      8.252
REMARK  Name = 
REMARK  7 active torsions:
REMARK  status: ('A' for Active; 'I' for Inactive)
REMARK    1  A    between atoms: C_2  and  O_13
REMARK    2  A    between atoms: N_3  and  C_4
REMARK    3  A    between atoms: C_7  and  N_8
REMARK    4  A    between atoms: O_13  and  C_14
REMARK    5  A    between atoms: C_14  and  C_15
REMARK    6  A    between atoms: C_15  and  C_16
REMARK    7  A    between atoms: C_16  and  C_17
REMARK                            x       y       z     vdW  Elec       q    Type
REMARK                         _______ _______ _______ _____ _____    ______ ____
ROOT
ATOM      1  O   UNL     1       1.926   6.828  18.101  0.00  0.00    +0.000 OA
ATOM      2  C   UNL     1       2.619   6.400  19.014  0.00  0.00    +0.000 C 
ATOM      3  N   UNL     1       3.810   5.730  18.914  0.00  0.00    +0.000 N 
ATOM      4  H   UNL     1       4.184   5.427  19.804  0.00  0.00    +0.000 HD
ENDROOT
BRANCH   3   5
ATOM      5  C   UNL     1       4.574   5.500  17.754  0.00  0.00    +0.000 A 
ATOM      6  C   UNL     1       4.289   4.477  16.841  0.00  0.00    +0.000 A 
ATOM      7  C   UNL     1       5.084   4.282  15.707  0.00  0.00    +0.000 A 
ATOM      8  C   UNL     1       6.179   5.118  15.479  0.00  0.00    +0.000 A 
ATOM      9  C   UNL     1       6.467   6.161  16.367  0.00  0.00    +0.000 A 
ATOM     10  C   UNL     1       5.658   6.352  17.498  0.00  0.00    +0.000 A 
BRANCH   8  11
ATOM     11  N   UNL     1       7.033   4.891  14.306  0.00  0.00    +0.000 N 
ATOM     12  O   UNL     1       6.676   4.033  13.485  0.00  0.00    +0.000 OA
ATOM     13  O   UNL     1       8.065   5.572  14.205  0.00  0.00    +0.000 OA
ENDBRANCH   8  11
ENDBRANCH   3   5
BRANCH   2  14
ATOM     14  O   UNL     1       2.336   6.596  20.327  0.00  0.00    +0.000 OA
BRANCH  14  15
ATOM     15  C   UNL     1       1.771   5.458  21.000  0.00  0.00    +0.000 C 
BRANCH  15  16
ATOM     16  C   UNL     1       1.125   4.456  20.051  0.00  0.00    +0.000 C 
BRANCH  16  17
ATOM     17  C   UNL     1       1.416   3.032  20.536  0.00  0.00    +0.000 C 
BRANCH  17  18
ATOM     18  C   UNL     1       2.641   2.447  19.935  0.00  0.00    +0.000 A 
ATOM     19  C   UNL     1       3.945   2.516  20.376  0.00  0.00    +0.000 A 
ATOM     20  N   UNL     1       4.676   1.823  19.451  0.00  0.00    +0.000 N 
ATOM     21  C   UNL     1       3.811   1.381  18.492  0.00  0.00    +0.000 A 
ATOM     22  N   UNL     1       2.576   1.741  18.755  0.00  0.00    +0.000 NA
ATOM     23  H   UNL     1       5.674   1.666  19.467  0.00  0.00    +0.000 HD
ENDBRANCH  17  18
ENDBRANCH  16  17
ENDBRANCH  15  16
ENDBRANCH  14  15
ENDBRANCH   2  14
TORSDOF 7
ENDMDL
MODEL 7
REMARK VINA RESULT:      -6.8      1.644      2.236
REMARK  Name = 
REMARK  7 active torsions:
REMARK  status: ('A' for Active; 'I' for Inactive)
REMARK    1  A    between atoms: C_2  and  O_13
REMARK    2  A    between atoms: N_3  and  C_4
REMARK    3  A    between atoms: C_7  and  N_8
REMARK    4  A    between atoms: O_13  and  C_14
REMARK    5  A    between atoms: C_14  and  C_15
REMARK    6  A    between atoms: C_15  and  C_16
REMARK    7  A    between atoms: C_16  and  C_17
REMARK                            x       y       z     vdW  Elec       q    Type
REMARK                         _______ _______ _______ _____ _____    ______ ____
ROOT
ATOM      1  O   UNL     1       5.487   6.832  15.939  0.00  0.00    +0.000 OA
ATOM      2  C   UNL     1       6.259   6.590  16.857  0.00  0.00    +0.000 C 
ATOM      3  N   UNL     1       5.997   5.892  18.006  0.00  0.00    +0.000 N 
ATOM      4  H   UNL     1       6.777   5.857  18.649  0.00  0.00    +0.000 HD
ENDROOT
BRANCH   3   5
ATOM      5  C   UNL     1       4.828   5.179  18.333  0.00  0.00    +0.000 A 
ATOM      6  C   UNL     1       4.772   3.781  18.377  0.00  0.00    +0.000 A 
ATOM      7  C   UNL     1       3.583   3.117  18.698  0.00  0.00    +0.000 A 
ATOM      8  C   UNL     1       2.433   3.859  18.980  0.00  0.00    +0.000 A 
ATOM      9  C   UNL     1       2.475   5.257  18.965  0.00  0.00    +0.000 A 
ATOM     10  C   UNL     1       3.674   5.912  18.648  0.00  0.00    +0.000 A 
BRANCH   8  11
ATOM     11  N   UNL     1       1.177   3.161  19.284  0.00  0.00    +0.000 N 
ATOM     12  O   UNL     1       0.648   2.498  18.379  0.00  0.00    +0.000 OA
ATOM     13  O   UNL     1       0.717   3.277  20.430  0.00  0.00    +0.000 OA
ENDBRANCH   8  11
ENDBRANCH   3   5
BRANCH   2  14
ATOM     14  O   UNL     1       7.573   6.932  16.842  0.00  0.00    +0.000 OA
BRANCH  14  15
ATOM     15  C   UNL     1       8.026   7.643  18.006  0.00  0.00    +0.000 C 
BRANCH  15  16
ATOM     16  C   UNL     1       8.015   9.156  17.830  0.00  0.00    +0.000 C 
BRANCH  16  17
ATOM     17  C   UNL     1       9.014   9.792  18.803  0.00  0.00    +0.000 C 
BRANCH  17  18
ATOM     18  C   UNL     1       9.559  11.086  18.322  0.00  0.00    +0.000 A 
ATOM     19  C   UNL     1      10.866  11.520  18.283  0.00  0.00    +0.000 A 
ATOM     20  N   UNL     1      10.812  12.784  17.766  0.00  0.00    +0.000 N 
ATOM     21  C   UNL     1       9.499  13.075  17.529  0.00  0.00    +0.000 A 
ATOM     22  N   UNL     1       8.718  12.071  17.855  0.00  0.00    +0.000 NA
ATOM     23  H   UNL     1      11.595  13.398  17.591  0.00  0.00    +0.000 HD
ENDBRANCH  17  18
ENDBRANCH  16  17
ENDBRANCH  15  16
ENDBRANCH  14  15
ENDBRANCH   2  14
TORSDOF 7
ENDMDL
MODEL 8
REMARK VINA RESULT:      -6.8      1.411      1.993
REMARK  Name = 
REMARK  7 active torsions:
REMARK  status: ('A' for Active; 'I' for Inactive)
REMARK    1  A    between atoms: C_2  and  O_13
REMARK    2  A    between atoms: N_3  and  C_4
REMARK    3  A    between atoms: C_7  and  N_8
REMARK    4  A    between atoms: O_13  and  C_14
REMARK    5  A    between atoms: C_14  and  C_15
REMARK    6  A    between atoms: C_15  and  C_16
REMARK    7  A    between atoms: C_16  and  C_17
REMARK                            x       y       z     vdW  Elec       q    Type
REMARK                         _______ _______ _______ _____ _____    ______ ____
ROOT
ATOM      1  O   UNL     1       8.087   5.140  19.344  0.00  0.00    +0.000 OA
ATOM      2  C   UNL     1       7.676   6.112  18.726  0.00  0.00    +0.000 C 
ATOM      3  N   UNL     1       6.459   6.259  18.115  0.00  0.00    +0.000 N 
ATOM      4  H   UNL     1       6.354   7.134  17.620  0.00  0.00    +0.000 HD
ENDROOT
BRANCH   3   5
ATOM      5  C   UNL     1       5.356   5.385  18.171  0.00  0.00    +0.000 A 
ATOM      6  C   UNL     1       5.015   4.517  17.127  0.00  0.00    +0.000 A 
ATOM      7  C   UNL     1       3.903   3.673  17.225  0.00  0.00    +0.000 A 
ATOM      8  C   UNL     1       3.120   3.695  18.382  0.00  0.00    +0.000 A 
ATOM      9  C   UNL     1       3.458   4.539  19.446  0.00  0.00    +0.000 A 
ATOM     10  C   UNL     1       4.580   5.375  19.340  0.00  0.00    +0.000 A 
BRANCH   8  11
ATOM     11  N   UNL     1       1.934   2.834  18.471  0.00  0.00    +0.000 N 
ATOM     12  O   UNL     1       2.017   1.801  19.152  0.00  0.00    +0.000 OA
ATOM     13  O   UNL     1       0.916   3.190  17.859  0.00  0.00    +0.000 OA
ENDBRANCH   8  11
ENDBRANCH   3   5
BRANCH   2  14
ATOM     14  O   UNL     1       8.367   7.274  18.608  0.00  0.00    +0.000 OA
BRANCH  14  15
ATOM     15  C   UNL     1       7.808   8.220  17.682  0.00  0.00    +0.000 C 
BRANCH  15  16
ATOM     16  C   UNL     1       8.281   9.649  17.921  0.00  0.00    +0.000 C 
BRANCH  16  17
ATOM     17  C   UNL     1       9.146   9.696  19.185  0.00  0.00    +0.000 C 
BRANCH  17  18
ATOM     18  C   UNL     1       9.883  10.975  19.343  0.00  0.00    +0.000 A 
ATOM     19  C   UNL     1      10.540  11.725  18.392  0.00  0.00    +0.000 A 
ATOM     20  N   UNL     1      11.057  12.794  19.069  0.00  0.00    +0.000 N 
ATOM     21  C   UNL     1      10.717  12.651  20.383  0.00  0.00    +0.000 A 
ATOM     22  N   UNL     1      10.009  11.564  20.581  0.00  0.00    +0.000 NA
ATOM     23  H   UNL     1      11.595  13.553  18.675  0.00  0.00    +0.000 HD
ENDBRANCH  17  18
ENDBRANCH  16  17
ENDBRANCH  15  16
ENDBRANCH  14  15
ENDBRANCH   2  14
TORSDOF 7
ENDMDL
MODEL 9
REMARK VINA RESULT:      -6.8      5.474      8.311
REMARK  Name = 
REMARK  7 active torsions:
REMARK  status: ('A' for Active; 'I' for Inactive)
REMARK    1  A    between atoms: C_2  and  O_13
REMARK    2  A    between atoms: N_3  and  C_4
REMARK    3  A    between atoms: C_7  and  N_8
REMARK    4  A    between atoms: O_13  and  C_14
REMARK    5  A    between atoms: C_14  and  C_15
REMARK    6  A    between atoms: C_15  and  C_16
REMARK    7  A    between atoms: C_16  and  C_17
REMARK                            x       y       z     vdW  Elec       q    Type
REMARK                         _______ _______ _______ _____ _____    ______ ____
ROOT
ATOM      1  O   UNL     1       2.497   6.996  18.597  0.00  0.00    +0.000 OA
ATOM      2  C   UNL     1       3.027   6.173  19.331  0.00  0.00    +0.000 C 
ATOM      3  N   UNL     1       4.046   5.312  19.020  0.00  0.00    +0.000 N 
ATOM      4  H   UNL     1       4.294   4.684  19.774  0.00  0.00    +0.000 HD
ENDROOT
BRANCH   3   5
ATOM      5  C   UNL     1       4.804   5.266  17.834  0.00  0.00    +0.000 A 
ATOM      6  C   UNL     1       4.468   5.991  16.684  0.00  0.00    +0.000 A 
ATOM      7  C   UNL     1       5.248   5.906  15.526  0.00  0.00    +0.000 A 
ATOM      8  C   UNL     1       6.379   5.087  15.514  0.00  0.00    +0.000 A 
ATOM      9  C   UNL     1       6.745   4.373  16.661  0.00  0.00    +0.000 A 
ATOM     10  C   UNL     1       5.959   4.472  17.819  0.00  0.00    +0.000 A 
BRANCH   8  11
ATOM     11  N   UNL     1       7.178   4.971  14.288  0.00  0.00    +0.000 N 
ATOM     12  O   UNL     1       6.800   4.168  13.421  0.00  0.00    +0.000 OA
ATOM     13  O   UNL     1       8.188   5.684  14.189  0.00  0.00    +0.000 OA
ENDBRANCH   8  11
ENDBRANCH   3   5
BRANCH   2  14
ATOM     14  O   UNL     1       2.722   6.033  20.646  0.00  0.00    +0.000 OA
BRANCH  14  15
ATOM     15  C   UNL     1       2.301   4.714  21.032  0.00  0.00    +0.000 C 
BRANCH  15  16
ATOM     16  C   UNL     1       0.950   4.318  20.448  0.00  0.00    +0.000 C 
BRANCH  16  17
ATOM     17  C   UNL     1       0.969   2.831  20.079  0.00  0.00    +0.000 C 
BRANCH  17  18
ATOM     18  C   UNL     1       1.965   2.500  19.028  0.00  0.00    +0.000 A 
ATOM     19  C   UNL     1       3.117   1.750  19.126  0.00  0.00    +0.000 A 
ATOM     20  N   UNL     1       3.670   1.773  17.876  0.00  0.00    +0.000 N 
ATOM     21  C   UNL     1       2.860   2.535  17.083  0.00  0.00    +0.000 A 
ATOM     22  N   UNL     1       1.824   2.988  17.749  0.00  0.00    +0.000 NA
ATOM     23  H   UNL     1       4.523   1.316  17.586  0.00  0.00    +0.000 HD
ENDBRANCH  17  18
ENDBRANCH  16  17
ENDBRANCH  15  16
ENDBRANCH  14  15
ENDBRANCH   2  14
TORSDOF 7
ENDMDL
