MODEL 1
REMARK VINA RESULT:      -8.6      0.000      0.000
REMARK  Name = 
REMARK  4 active torsions:
REMARK  status: ('A' for Active; 'I' for Inactive)
REMARK    1  A    between atoms: C_2  and  C_13
REMARK    2  A    between atoms: N_3  and  C_4
REMARK    3  A    between atoms: C_4  and  C_5
REMARK    4  A    between atoms: C_16  and  C_17
REMARK                            x       y       z     vdW  Elec       q    Type
REMARK                         _______ _______ _______ _____ _____    ______ ____
ROOT
ATOM      1  C   UNL     1       7.150   6.468  17.940  0.00  0.00    +0.000 A 
ATOM      2  C   UNL     1       8.117   6.562  18.944  0.00  0.00    +0.000 A 
ATOM      3  C   UNL     1       8.776   7.783  19.168  0.00  0.00    +0.000 A 
ATOM      4  C   UNL     1       8.484   8.926  18.402  0.00  0.00    +0.000 A 
ATOM      5  C   UNL     1       7.515   8.812  17.396  0.00  0.00    +0.000 A 
ATOM      6  C   UNL     1       6.854   7.602  17.173  0.00  0.00    +0.000 A 
ENDROOT
BRANCH   4   7
ATOM      7  C   UNL     1       9.149  10.201  18.704  0.00  0.00    +0.000 A 
ATOM      8  N   UNL     1       9.399  10.681  19.911  0.00  0.00    +0.000 NA
ATOM      9  C   UNL     1       9.912  11.941  19.730  0.00  0.00    +0.000 A 
ATOM     10  C   UNL     1      10.305  12.900  20.676  0.00  0.00    +0.000 A 
ATOM     11  C   UNL     1      10.757  14.147  20.223  0.00  0.00    +0.000 A 
ATOM     12  C   UNL     1      10.812  14.422  18.859  0.00  0.00    +0.000 A 
ATOM     13  F   UNL     1      11.227  15.632  18.457  0.00  0.00    +0.000 F 
ATOM     14  C   UNL     1      10.445  13.481  17.895  0.00  0.00    +0.000 A 
ATOM     15  C   UNL     1      10.004  12.247  18.377  0.00  0.00    +0.000 A 
ATOM     16  N   UNL     1       9.572  11.106  17.752  0.00  0.00    +0.000 N 
ATOM     17  H   UNL     1       9.527  10.973  16.753  0.00  0.00    +0.000 HD
ENDBRANCH   4   7
BRANCH   1  19
ATOM     18  O   UNL     1       6.746   4.161  18.116  0.00  0.00    +0.000 OA
ATOM     19  C   UNL     1       6.376   5.231  17.642  0.00  0.00    +0.000 C 
ATOM     20  N   UNL     1       5.239   5.351  16.872  0.00  0.00    +0.000 N 
ATOM     21  H   UNL     1       4.984   6.232  16.451  0.00  0.00    +0.000 HD
BRANCH  20  22
ATOM     22  C   UNL     1       4.446   4.181  16.564  0.00  0.00    +0.000 C 
BRANCH  22  23
ATOM     23  C   UNL     1       3.567   3.766  17.718  0.00  0.00    +0.000 A 
ATOM     24  C   UNL     1       3.355   2.412  18.003  0.00  0.00    +0.000 A 
ATOM     25  C   UNL     1       2.595   2.030  19.113  0.00  0.00    +0.000 A 
ATOM     26  C   UNL     1       2.037   2.998  19.953  0.00  0.00    +0.000 A 
ATOM     27 CL   UNL     1       1.124   2.452  21.314  0.00  0.00    +0.000 Cl
ATOM     28  C   UNL     1       2.239   4.354  19.678  0.00  0.00    +0.000 A 
ATOM     29 CL   UNL     1       1.589   5.608  20.674  0.00  0.00    +0.000 Cl
ATOM     30  C   UNL     1       3.000   4.733  18.567  0.00  0.00    +0.000 A 
ENDBRANCH  22  23
ENDBRANCH  20  22
ENDBRANCH   1  19
TORSDOF 4
ENDMDL
MODEL 2
REMARK VINA RESULT:      -8.5      6.596      8.345
REMARK  Name = 
REMARK  4 active torsions:
REMARK  status: ('A' for Active; 'I' for Inactive)
REMARK    1  A    between atoms: C_2  and  C_13
REMARK    2  A    between atoms: N_3  and  C_4
REMARK    3  A    between atoms: C_4  and  C_5
REMARK    4  A    between atoms: C_16  and  C_17
REMARK                            x       y       z     vdW  Elec       q    Type
REMARK                         _______ _______ _______ _____ _____    ______ ____
ROOT
ATOM      1  C   UNL     1       2.425   6.493  18.978  0.00  0.00    +0.000 A 
ATOM      2  C   UNL     1       1.967   6.502  20.298  0.00  0.00    +0.000 A 
ATOM      3  C   UNL     1       1.419   7.678  20.840  0.00  0.00    +0.000 A 
ATOM      4  C   UNL     1       1.316   8.857  20.081  0.00  0.00    +0.000 A 
ATOM      5  C   UNL     1       1.785   8.832  18.761  0.00  0.00    +0.000 A 
ATOM      6  C   UNL     1       2.325   7.664  18.216  0.00  0.00    +0.000 A 
ENDROOT
BRANCH   4   7
ATOM      7  C   UNL     1       0.682  10.051  20.661  0.00  0.00    +0.000 A 
ATOM      8  N   UNL     1       1.003  11.307  20.398  0.00  0.00    +0.000 NA
ATOM      9  C   UNL     1       0.254  12.084  21.246  0.00  0.00    +0.000 A 
ATOM     10  C   UNL     1       0.235  13.477  21.411  0.00  0.00    +0.000 A 
ATOM     11  C   UNL     1      -0.599  14.027  22.394  0.00  0.00    +0.000 A 
ATOM     12  C   UNL     1      -1.392  13.200  23.186  0.00  0.00    +0.000 A 
ATOM     13  F   UNL     1      -2.163  13.754  24.134  0.00  0.00    +0.000 F 
ATOM     14  C   UNL     1      -1.408  11.813  23.030  0.00  0.00    +0.000 A 
ATOM     15  C   UNL     1      -0.569  11.296  22.040  0.00  0.00    +0.000 A 
ATOM     16  N   UNL     1      -0.322  10.019  21.607  0.00  0.00    +0.000 N 
ATOM     17  H   UNL     1      -0.771   9.189  21.961  0.00  0.00    +0.000 HD
ENDBRANCH   4   7
BRANCH   1  19
ATOM     18  O   UNL     1       2.263   4.587  17.617  0.00  0.00    +0.000 OA
ATOM     19  C   UNL     1       2.994   5.294  18.302  0.00  0.00    +0.000 C 
ATOM     20  N   UNL     1       4.344   5.054  18.445  0.00  0.00    +0.000 N 
ATOM     21  H   UNL     1       4.914   5.620  19.055  0.00  0.00    +0.000 HD
BRANCH  20  22
ATOM     22  C   UNL     1       4.947   3.908  17.798  0.00  0.00    +0.000 C 
BRANCH  22  23
ATOM     23  C   UNL     1       5.658   4.282  16.521  0.00  0.00    +0.000 A 
ATOM     24  C   UNL     1       6.858   5.003  16.556  0.00  0.00    +0.000 A 
ATOM     25  C   UNL     1       7.550   5.290  15.376  0.00  0.00    +0.000 A 
ATOM     26  C   UNL     1       7.051   4.860  14.144  0.00  0.00    +0.000 A 
ATOM     27 CL   UNL     1       7.967   5.237  12.729  0.00  0.00    +0.000 Cl
ATOM     28  C   UNL     1       5.852   4.141  14.094  0.00  0.00    +0.000 A 
ATOM     29 CL   UNL     1       5.177   3.569  12.609  0.00  0.00    +0.000 Cl
ATOM     30  C   UNL     1       5.162   3.855  15.277  0.00  0.00    +0.000 A 
ENDBRANCH  22  23
ENDBRANCH  20  22
ENDBRANCH   1  19
TORSDOF 4
ENDMDL
MODEL 3
REMARK VINA RESULT:      -8.4      7.812     10.288
REMARK  Name = 
REMARK  4 active torsions:
REMARK  status: ('A' for Active; 'I' for Inactive)
REMARK    1  A    between atoms: C_2  and  C_13
REMARK    2  A    between atoms: N_3  and  C_4
REMARK    3  A    between atoms: C_4  and  C_5
REMARK    4  A    between atoms: C_16  and  C_17
REMARK                            x       y       z     vdW  Elec       q    Type
REMARK                         _______ _______ _______ _____ _____    ______ ____
ROOT
ATOM      1  C   UNL     1       0.398   9.814  21.248  0.00  0.00    +0.000 A 
ATOM      2  C   UNL     1       0.890   8.585  21.694  0.00  0.00    +0.000 A 
ATOM      3  C   UNL     1       1.585   7.746  20.806  0.00  0.00    +0.000 A 
ATOM      4  C   UNL     1       1.804   8.115  19.467  0.00  0.00    +0.000 A 
ATOM      5  C   UNL     1       1.299   9.349  19.035  0.00  0.00    +0.000 A 
ATOM      6  C   UNL     1       0.612  10.188  19.915  0.00  0.00    +0.000 A 
ENDROOT
BRANCH   4   7
ATOM      7  C   UNL     1       2.587   7.240  18.583  0.00  0.00    +0.000 A 
ATOM      8  N   UNL     1       2.596   5.917  18.607  0.00  0.00    +0.000 NA
ATOM      9  C   UNL     1       3.552   5.519  17.707  0.00  0.00    +0.000 A 
ATOM     10  C   UNL     1       3.994   4.229  17.373  0.00  0.00    +0.000 A 
ATOM     11  C   UNL     1       5.034   4.095  16.443  0.00  0.00    +0.000 A 
ATOM     12  C   UNL     1       5.612   5.223  15.866  0.00  0.00    +0.000 A 
ATOM     13  F   UNL     1       6.621   5.063  14.997  0.00  0.00    +0.000 F 
ATOM     14  C   UNL     1       5.180   6.516  16.166  0.00  0.00    +0.000 A 
ATOM     15  C   UNL     1       4.139   6.617  17.092  0.00  0.00    +0.000 A 
ATOM     16  N   UNL     1       3.468   7.689  17.620  0.00  0.00    +0.000 N 
ATOM     17  H   UNL     1       3.630   8.653  17.375  0.00  0.00    +0.000 HD
ENDBRANCH   4   7
BRANCH   1  19
ATOM     18  O   UNL     1      -0.301  10.640  23.332  0.00  0.00    +0.000 OA
ATOM     19  C   UNL     1      -0.325  10.786  22.114  0.00  0.00    +0.000 C 
ATOM     20  N   UNL     1      -0.961  11.845  21.503  0.00  0.00    +0.000 N 
ATOM     21  H   UNL     1      -1.010  11.916  20.497  0.00  0.00    +0.000 HD
BRANCH  20  22
ATOM     22  C   UNL     1      -1.668  12.824  22.301  0.00  0.00    +0.000 C 
BRANCH  22  23
ATOM     23  C   UNL     1      -3.146  12.847  22.000  0.00  0.00    +0.000 A 
ATOM     24  C   UNL     1      -3.607  12.777  20.680  0.00  0.00    +0.000 A 
ATOM     25  C   UNL     1      -4.978  12.731  20.407  0.00  0.00    +0.000 A 
ATOM     26  C   UNL     1      -5.906  12.755  21.451  0.00  0.00    +0.000 A 
ATOM     27 CL   UNL     1      -7.581  12.680  21.039  0.00  0.00    +0.000 Cl
ATOM     28  C   UNL     1      -5.459  12.829  22.774  0.00  0.00    +0.000 A 
ATOM     29 CL   UNL     1      -6.545  12.855  24.118  0.00  0.00    +0.000 Cl
ATOM     30  C   UNL     1      -4.087  12.874  23.044  0.00  0.00    +0.000 A 
ENDBRANCH  22  23
ENDBRANCH  20  22
ENDBRANCH   1  19
TORSDOF 4
ENDMDL
MODEL 4
REMARK VINA RESULT:      -8.3      7.171      9.810
REMARK  Name = 
REMARK  4 active torsions:
REMARK  status: ('A' for Active; 'I' for Inactive)
REMARK    1  A    between atoms: C_2  and  C_13
REMARK    2  A    between atoms: N_3  and  C_4
REMARK    3  A    between atoms: C_4  and  C_5
REMARK    4  A    between atoms: C_16  and  C_17
REMARK                            x       y       z     vdW  Elec       q    Type
REMARK                         _______ _______ _______ _____ _____    ______ ____
ROOT
ATOM      1  C   UNL     1       0.767   8.944  20.891  0.00  0.00    +0.000 A 
ATOM      2  C   UNL     1       1.246   7.681  21.244  0.00  0.00    +0.000 A 
ATOM      3  C   UNL     1       2.002   6.937  20.321  0.00  0.00    +0.000 A 
ATOM      4  C   UNL     1       2.295   7.438  19.039  0.00  0.00    +0.000 A 
ATOM      5  C   UNL     1       1.801   8.705  18.700  0.00  0.00    +0.000 A 
ATOM      6  C   UNL     1       1.054   9.449  19.616  0.00  0.00    +0.000 A 
ENDROOT
BRANCH   4   7
ATOM      7  C   UNL     1       3.139   6.659  18.122  0.00  0.00    +0.000 A 
ATOM      8  N   UNL     1       3.164   5.340  18.019  0.00  0.00    +0.000 NA
ATOM      9  C   UNL     1       4.175   5.038  17.142  0.00  0.00    +0.000 A 
ATOM     10  C   UNL     1       4.653   3.791  16.711  0.00  0.00    +0.000 A 
ATOM     11  C   UNL     1       5.746   3.756  15.835  0.00  0.00    +0.000 A 
ATOM     12  C   UNL     1       6.341   4.939  15.404  0.00  0.00    +0.000 A 
ATOM     13  F   UNL     1       7.400   4.872  14.583  0.00  0.00    +0.000 F 
ATOM     14  C   UNL     1       5.875   6.193  15.801  0.00  0.00    +0.000 A 
ATOM     15  C   UNL     1       4.782   6.196  16.670  0.00  0.00    +0.000 A 
ATOM     16  N   UNL     1       4.067   7.206  17.259  0.00  0.00    +0.000 N 
ATOM     17  H   UNL     1       4.230   8.191  17.119  0.00  0.00    +0.000 HD
ENDBRANCH   4   7
BRANCH   1  19
ATOM     18  O   UNL     1      -0.614   9.323  22.752  0.00  0.00    +0.000 OA
ATOM     19  C   UNL     1      -0.018   9.822  21.804  0.00  0.00    +0.000 C 
ATOM     20  N   UNL     1      -0.003  11.179  21.563  0.00  0.00    +0.000 N 
ATOM     21  H   UNL     1       0.452  11.561  20.747  0.00  0.00    +0.000 HD
BRANCH  20  22
ATOM     22  C   UNL     1      -0.740  12.076  22.428  0.00  0.00    +0.000 C 
BRANCH  22  23
ATOM     23  C   UNL     1      -2.123  12.370  21.901  0.00  0.00    +0.000 A 
ATOM     24  C   UNL     1      -2.372  12.394  20.524  0.00  0.00    +0.000 A 
ATOM     25  C   UNL     1      -3.667  12.601  20.039  0.00  0.00    +0.000 A 
ATOM     26  C   UNL     1      -4.731  12.786  20.926  0.00  0.00    +0.000 A 
ATOM     27 CL   UNL     1      -6.305  13.020  20.256  0.00  0.00    +0.000 Cl
ATOM     28  C   UNL     1      -4.495  12.767  22.305  0.00  0.00    +0.000 A 
ATOM     29 CL   UNL     1      -5.760  12.981  23.463  0.00  0.00    +0.000 Cl
ATOM     30  C   UNL     1      -3.198  12.560  22.786  0.00  0.00    +0.000 A 
ENDBRANCH  22  23
ENDBRANCH  20  22
ENDBRANCH   1  19
TORSDOF 4
ENDMDL
MODEL 5
REMARK VINA RESULT:      -8.2      7.405      9.927
REMARK  Name = 
REMARK  4 active torsions:
REMARK  status: ('A' for Active; 'I' for Inactive)
REMARK    1  A    between atoms: C_2  and  C_13
REMARK    2  A    between atoms: N_3  and  C_4
REMARK    3  A    between atoms: C_4  and  C_5
REMARK    4  A    between atoms: C_16  and  C_17
REMARK                            x       y       z     vdW  Elec       q    Type
REMARK                         _______ _______ _______ _____ _____    ______ ____
ROOT
ATOM      1  C   UNL     1       0.537   9.678  20.292  0.00  0.00    +0.000 A 
ATOM      2  C   UNL     1       1.106   8.559  20.906  0.00  0.00    +0.000 A 
ATOM      3  C   UNL     1       1.895   7.674  20.152  0.00  0.00    +0.000 A 
ATOM      4  C   UNL     1       2.132   7.887  18.781  0.00  0.00    +0.000 A 
ATOM      5  C   UNL     1       1.549   9.010  18.181  0.00  0.00    +0.000 A 
ATOM      6  C   UNL     1       0.768   9.896  18.928  0.00  0.00    +0.000 A 
ENDROOT
BRANCH   4   7
ATOM      7  C   UNL     1       3.012   6.973  18.038  0.00  0.00    +0.000 A 
ATOM      8  N   UNL     1       2.864   5.662  17.937  0.00  0.00    +0.000 NA
ATOM      9  C   UNL     1       3.968   5.198  17.267  0.00  0.00    +0.000 A 
ATOM     10  C   UNL     1       4.333   3.885  16.930  0.00  0.00    +0.000 A 
ATOM     11  C   UNL     1       5.554   3.673  16.276  0.00  0.00    +0.000 A 
ATOM     12  C   UNL     1       6.384   4.749  15.969  0.00  0.00    +0.000 A 
ATOM     13  F   UNL     1       7.556   4.512  15.363  0.00  0.00    +0.000 F 
ATOM     14  C   UNL     1       6.037   6.066  16.274  0.00  0.00    +0.000 A 
ATOM     15  C   UNL     1       4.813   6.246  16.922  0.00  0.00    +0.000 A 
ATOM     16  N   UNL     1       4.154   7.362  17.368  0.00  0.00    +0.000 N 
ATOM     17  H   UNL     1       4.481   8.309  17.263  0.00  0.00    +0.000 HD
ENDBRANCH   4   7
BRANCH   1  19
ATOM     18  O   UNL     1      -0.547  10.525  22.195  0.00  0.00    +0.000 OA
ATOM     19  C   UNL     1      -0.290  10.690  21.007  0.00  0.00    +0.000 C 
ATOM     20  N   UNL     1      -0.699  11.802  20.303  0.00  0.00    +0.000 N 
ATOM     21  H   UNL     1      -0.519  11.890  19.313  0.00  0.00    +0.000 HD
BRANCH  20  22
ATOM     22  C   UNL     1      -1.494  12.820  20.955  0.00  0.00    +0.000 C 
BRANCH  22  23
ATOM     23  C   UNL     1      -2.973  12.619  20.733  0.00  0.00    +0.000 A 
ATOM     24  C   UNL     1      -3.885  12.820  21.776  0.00  0.00    +0.000 A 
ATOM     25  C   UNL     1      -5.260  12.699  21.551  0.00  0.00    +0.000 A 
ATOM     26  C   UNL     1      -5.740  12.375  20.280  0.00  0.00    +0.000 A 
ATOM     27 CL   UNL     1      -7.451  12.259  20.072  0.00  0.00    +0.000 Cl
ATOM     28  C   UNL     1      -4.840  12.170  19.229  0.00  0.00    +0.000 A 
ATOM     29 CL   UNL     1      -5.358  11.775  17.629  0.00  0.00    +0.000 Cl
ATOM     30  C   UNL     1      -3.465  12.292  19.458  0.00  0.00    +0.000 A 
ENDBRANCH  22  23
ENDBRANCH  20  22
ENDBRANCH   1  19
TORSDOF 4
ENDMDL
MODEL 6
REMARK VINA RESULT:      -8.2      8.488     11.254
REMARK  Name = 
REMARK  4 active torsions:
REMARK  status: ('A' for Active; 'I' for Inactive)
REMARK    1  A    between atoms: C_2  and  C_13
REMARK    2  A    between atoms: N_3  and  C_4
REMARK    3  A    between atoms: C_4  and  C_5
REMARK    4  A    between atoms: C_16  and  C_17
REMARK                            x       y       z     vdW  Elec       q    Type
REMARK                         _______ _______ _______ _____ _____    ______ ____
ROOT
ATOM      1  C   UNL     1       0.209  10.659  21.383  0.00  0.00    +0.000 A 
ATOM      2  C   UNL     1       0.522  10.534  20.028  0.00  0.00    +0.000 A 
ATOM      3  C   UNL     1       1.176   9.380  19.564  0.00  0.00    +0.000 A 
ATOM      4  C   UNL     1       1.526   8.334  20.438  0.00  0.00    +0.000 A 
ATOM      5  C   UNL     1       1.210   8.479  21.795  0.00  0.00    +0.000 A 
ATOM      6  C   UNL     1       0.555   9.622  22.259  0.00  0.00    +0.000 A 
ENDROOT
BRANCH   4   7
ATOM      7  C   UNL     1       2.156   7.116  19.909  0.00  0.00    +0.000 A 
ATOM      8  N   UNL     1       2.568   6.930  18.666  0.00  0.00    +0.000 NA
ATOM      9  C   UNL     1       2.969   5.621  18.581  0.00  0.00    +0.000 A 
ATOM     10  C   UNL     1       3.453   4.895  17.482  0.00  0.00    +0.000 A 
ATOM     11  C   UNL     1       3.752   3.537  17.651  0.00  0.00    +0.000 A 
ATOM     12  C   UNL     1       3.571   2.926  18.889  0.00  0.00    +0.000 A 
ATOM     13  F   UNL     1       3.845   1.619  19.015  0.00  0.00    +0.000 F 
ATOM     14  C   UNL     1       3.110   3.628  20.004  0.00  0.00    +0.000 A 
ATOM     15  C   UNL     1       2.825   4.980  19.805  0.00  0.00    +0.000 A 
ATOM     16  N   UNL     1       2.367   5.965  20.641  0.00  0.00    +0.000 N 
ATOM     17  H   UNL     1       2.170   5.848  21.623  0.00  0.00    +0.000 HD
ENDBRANCH   4   7
BRANCH   1  19
ATOM     18  O   UNL     1      -0.168  12.962  21.649  0.00  0.00    +0.000 OA
ATOM     19  C   UNL     1      -0.507  11.827  21.969  0.00  0.00    +0.000 C 
ATOM     20  N   UNL     1      -1.559  11.575  22.823  0.00  0.00    +0.000 N 
ATOM     21  H   UNL     1      -1.786  10.635  23.111  0.00  0.00    +0.000 HD
BRANCH  20  22
ATOM     22  C   UNL     1      -2.294  12.676  23.409  0.00  0.00    +0.000 C 
BRANCH  22  23
ATOM     23  C   UNL     1      -3.685  12.802  22.839  0.00  0.00    +0.000 A 
ATOM     24  C   UNL     1      -3.904  12.694  21.460  0.00  0.00    +0.000 A 
ATOM     25  C   UNL     1      -5.201  12.745  20.940  0.00  0.00    +0.000 A 
ATOM     26  C   UNL     1      -6.297  12.904  21.792  0.00  0.00    +0.000 A 
ATOM     27 CL   UNL     1      -7.870  12.942  21.080  0.00  0.00    +0.000 Cl
ATOM     28  C   UNL     1      -6.092  13.016  23.171  0.00  0.00    +0.000 A 
ATOM     29 CL   UNL     1      -7.397  13.207  24.288  0.00  0.00    +0.000 Cl
ATOM     30  C   UNL     1      -4.793  12.965  23.689  0.00  0.00    +0.000 A 
ENDBRANCH  22  23
ENDBRANCH  20  22
ENDBRANCH   1  19
TORSDOF 4
ENDMDL
MODEL 7
REMARK VINA RESULT:      -8.2      6.507      8.232
REMARK  Name = 
REMARK  4 active torsions:
REMARK  status: ('A' for Active; 'I' for Inactive)
REMARK    1  A    between atoms: C_2  and  C_13
REMARK    2  A    between atoms: N_3  and  C_4
REMARK    3  A    between atoms: C_4  and  C_5
REMARK    4  A    between atoms: C_16  and  C_17
REMARK                            x       y       z     vdW  Elec       q    Type
REMARK                         _______ _______ _______ _____ _____    ______ ____
ROOT
ATOM      1  C   UNL     1       2.381   6.660  18.903  0.00  0.00    +0.000 A 
ATOM      2  C   UNL     1       2.225   7.876  18.232  0.00  0.00    +0.000 A 
ATOM      3  C   UNL     1       1.661   8.976  18.901  0.00  0.00    +0.000 A 
ATOM      4  C   UNL     1       1.248   8.886  20.243  0.00  0.00    +0.000 A 
ATOM      5  C   UNL     1       1.407   7.658  20.898  0.00  0.00    +0.000 A 
ATOM      6  C   UNL     1       1.972   6.563  20.239  0.00  0.00    +0.000 A 
ENDROOT
BRANCH   4   7
ATOM      7  C   UNL     1       0.718  10.074  20.928  0.00  0.00    +0.000 A 
ATOM      8  N   UNL     1      -0.158  10.073  21.920  0.00  0.00    +0.000 NA
ATOM      9  C   UNL     1      -0.465  11.387  22.167  0.00  0.00    +0.000 A 
ATOM     10  C   UNL     1      -1.367  11.945  23.087  0.00  0.00    +0.000 A 
ATOM     11  C   UNL     1      -1.532  13.336  23.107  0.00  0.00    +0.000 A 
ATOM     12  C   UNL     1      -0.811  14.144  22.231  0.00  0.00    +0.000 A 
ATOM     13  F   UNL     1      -1.008  15.470  22.259  0.00  0.00    +0.000 F 
ATOM     14  C   UNL     1       0.106  13.618  21.320  0.00  0.00    +0.000 A 
ATOM     15  C   UNL     1       0.252  12.229  21.326  0.00  0.00    +0.000 A 
ATOM     16  N   UNL     1       1.037  11.374  20.596  0.00  0.00    +0.000 N 
ATOM     17  H   UNL     1       1.703  11.656  19.894  0.00  0.00    +0.000 HD
ENDBRANCH   4   7
BRANCH   1  19
ATOM     18  O   UNL     1       2.296   4.698  17.616  0.00  0.00    +0.000 OA
ATOM     19  C   UNL     1       2.992   5.446  18.294  0.00  0.00    +0.000 C 
ATOM     20  N   UNL     1       4.341   5.236  18.489  0.00  0.00    +0.000 N 
ATOM     21  H   UNL     1       4.881   5.837  19.094  0.00  0.00    +0.000 HD
BRANCH  20  22
ATOM     22  C   UNL     1       4.984   4.077  17.909  0.00  0.00    +0.000 C 
BRANCH  22  23
ATOM     23  C   UNL     1       5.676   4.398  16.608  0.00  0.00    +0.000 A 
ATOM     24  C   UNL     1       6.910   5.059  16.599  0.00  0.00    +0.000 A 
ATOM     25  C   UNL     1       7.581   5.297  15.396  0.00  0.00    +0.000 A 
ATOM     26  C   UNL     1       7.026   4.876  14.184  0.00  0.00    +0.000 A 
ATOM     27 CL   UNL     1       7.920   5.189  12.740  0.00  0.00    +0.000 Cl
ATOM     28  C   UNL     1       5.793   4.217  14.178  0.00  0.00    +0.000 A 
ATOM     29 CL   UNL     1       5.048   3.661  12.721  0.00  0.00    +0.000 Cl
ATOM     30  C   UNL     1       5.124   3.981  15.384  0.00  0.00    +0.000 A 
ENDBRANCH  22  23
ENDBRANCH  20  22
ENDBRANCH   1  19
TORSDOF 4
ENDMDL
MODEL 8
REMARK VINA RESULT:      -8.2      8.452     11.128
REMARK  Name = 
REMARK  4 active torsions:
REMARK  status: ('A' for Active; 'I' for Inactive)
REMARK    1  A    between atoms: C_2  and  C_13
REMARK    2  A    between atoms: N_3  and  C_4
REMARK    3  A    between atoms: C_4  and  C_5
REMARK    4  A    between atoms: C_16  and  C_17
REMARK                            x       y       z     vdW  Elec       q    Type
REMARK                         _______ _______ _______ _____ _____    ______ ____
ROOT
ATOM      1  C   UNL     1       0.041  10.585  21.396  0.00  0.00    +0.000 A 
ATOM      2  C   UNL     1       0.441   9.562  22.259  0.00  0.00    +0.000 A 
ATOM      3  C   UNL     1       1.110   8.436  21.747  0.00  0.00    +0.000 A 
ATOM      4  C   UNL     1       1.393   8.312  20.375  0.00  0.00    +0.000 A 
ATOM      5  C   UNL     1       0.980   9.345  19.523  0.00  0.00    +0.000 A 
ATOM      6  C   UNL     1       0.320  10.468  20.028  0.00  0.00    +0.000 A 
ENDROOT
BRANCH   4   7
ATOM      7  C   UNL     1       2.147   7.150  19.883  0.00  0.00    +0.000 A 
ATOM      8  N   UNL     1       2.719   7.040  18.696  0.00  0.00    +0.000 NA
ATOM      9  C   UNL     1       3.197   5.756  18.613  0.00  0.00    +0.000 A 
ATOM     10  C   UNL     1       3.851   5.104  17.556  0.00  0.00    +0.000 A 
ATOM     11  C   UNL     1       4.199   3.755  17.710  0.00  0.00    +0.000 A 
ATOM     12  C   UNL     1       3.899   3.082  18.892  0.00  0.00    +0.000 A 
ATOM     13  F   UNL     1       4.225   1.785  19.001  0.00  0.00    +0.000 F 
ATOM     14  C   UNL     1       3.267   3.711  19.966  0.00  0.00    +0.000 A 
ATOM     15  C   UNL     1       2.937   5.056  19.784  0.00  0.00    +0.000 A 
ATOM     16  N   UNL     1       2.327   5.980  20.592  0.00  0.00    +0.000 N 
ATOM     17  H   UNL     1       2.016   5.810  21.536  0.00  0.00    +0.000 HD
ENDBRANCH   4   7
BRANCH   1  19
ATOM     18  O   UNL     1      -0.428  12.267  22.966  0.00  0.00    +0.000 OA
ATOM     19  C   UNL     1      -0.646  11.829  21.841  0.00  0.00    +0.000 C 
ATOM     20  N   UNL     1      -1.475  12.465  20.941  0.00  0.00    +0.000 N 
ATOM     21  H   UNL     1      -1.679  12.058  20.040  0.00  0.00    +0.000 HD
BRANCH  20  22
ATOM     22  C   UNL     1      -2.157  13.683  21.321  0.00  0.00    +0.000 C 
BRANCH  22  23
ATOM     23  C   UNL     1      -3.485  13.412  21.983  0.00  0.00    +0.000 A 
ATOM     24  C   UNL     1      -3.710  13.786  23.313  0.00  0.00    +0.000 A 
ATOM     25  C   UNL     1      -4.963  13.594  23.903  0.00  0.00    +0.000 A 
ATOM     26  C   UNL     1      -6.008  13.026  23.170  0.00  0.00    +0.000 A 
ATOM     27 CL   UNL     1      -7.533  12.835  23.960  0.00  0.00    +0.000 Cl
ATOM     28  C   UNL     1      -5.797  12.645  21.841  0.00  0.00    +0.000 A 
ATOM     29 CL   UNL     1      -7.042  11.944  20.870  0.00  0.00    +0.000 Cl
ATOM     30  C   UNL     1      -4.542  12.838  21.254  0.00  0.00    +0.000 A 
ENDBRANCH  22  23
ENDBRANCH  20  22
ENDBRANCH   1  19
TORSDOF 4
ENDMDL
MODEL 9
REMARK VINA RESULT:      -8.1      8.088     10.932
REMARK  Name = 
REMARK  4 active torsions:
REMARK  status: ('A' for Active; 'I' for Inactive)
REMARK    1  A    between atoms: C_2  and  C_13
REMARK    2  A    between atoms: N_3  and  C_4
REMARK    3  A    between atoms: C_4  and  C_5
REMARK    4  A    between atoms: C_16  and  C_17
REMARK                            x       y       z     vdW  Elec       q    Type
REMARK                         _______ _______ _______ _____ _____    ______ ____
ROOT
ATOM      1  C   UNL     1       0.425  10.346  20.706  0.00  0.00    +0.000 A 
ATOM      2  C   UNL     1       0.540   9.277  21.597  0.00  0.00    +0.000 A 
ATOM      3  C   UNL     1       1.141   8.077  21.177  0.00  0.00    +0.000 A 
ATOM      4  C   UNL     1       1.637   7.924  19.870  0.00  0.00    +0.000 A 
ATOM      5  C   UNL     1       1.509   9.005  18.987  0.00  0.00    +0.000 A 
ATOM      6  C   UNL     1       0.917  10.200  19.402  0.00  0.00    +0.000 A 
ENDROOT
BRANCH   4   7
ATOM      7  C   UNL     1       2.313   6.677  19.483  0.00  0.00    +0.000 A 
ATOM      8  N   UNL     1       2.663   6.330  18.256  0.00  0.00    +0.000 NA
ATOM      9  C   UNL     1       3.144   5.048  18.337  0.00  0.00    +0.000 A 
ATOM     10  C   UNL     1       3.609   4.193  17.325  0.00  0.00    +0.000 A 
ATOM     11  C   UNL     1       4.006   2.895  17.671  0.00  0.00    +0.000 A 
ATOM     12  C   UNL     1       3.940   2.468  18.996  0.00  0.00    +0.000 A 
ATOM     13  F   UNL     1       4.307   1.213  19.292  0.00  0.00    +0.000 F 
ATOM     14  C   UNL     1       3.501   3.303  20.024  0.00  0.00    +0.000 A 
ATOM     15  C   UNL     1       3.116   4.592  19.649  0.00  0.00    +0.000 A 
ATOM     16  N   UNL     1       2.643   5.664  20.361  0.00  0.00    +0.000 N 
ATOM     17  H   UNL     1       2.513   5.685  21.360  0.00  0.00    +0.000 HD
ENDBRANCH   4   7
BRANCH   1  19
ATOM     18  O   UNL     1       0.335  12.328  21.961  0.00  0.00    +0.000 OA
ATOM     19  C   UNL     1      -0.168  11.666  21.059  0.00  0.00    +0.000 C 
ATOM     20  N   UNL     1      -1.243  12.109  20.320  0.00  0.00    +0.000 N 
ATOM     21  H   UNL     1      -1.671  11.524  19.617  0.00  0.00    +0.000 HD
BRANCH  20  22
ATOM     22  C   UNL     1      -1.848  13.390  20.617  0.00  0.00    +0.000 C 
BRANCH  22  23
ATOM     23  C   UNL     1      -3.186  13.246  21.297  0.00  0.00    +0.000 A 
ATOM     24  C   UNL     1      -4.375  13.366  20.568  0.00  0.00    +0.000 A 
ATOM     25  C   UNL     1      -5.613  13.165  21.187  0.00  0.00    +0.000 A 
ATOM     26  C   UNL     1      -5.678  12.843  22.545  0.00  0.00    +0.000 A 
ATOM     27 CL   UNL     1      -7.240  12.595  23.237  0.00  0.00    +0.000 Cl
ATOM     28  C   UNL     1      -4.498  12.724  23.286  0.00  0.00    +0.000 A 
ATOM     29 CL   UNL     1      -4.498  12.320  24.967  0.00  0.00    +0.000 Cl
ATOM     30  C   UNL     1      -3.262  12.924  22.664  0.00  0.00    +0.000 A 
ENDBRANCH  22  23
ENDBRANCH  20  22
ENDBRANCH   1  19
TORSDOF 4
ENDMDL
