MODEL 1
REMARK VINA RESULT:      -8.7      0.000      0.000
REMARK  Name = 
REMARK  4 active torsions:
REMARK  status: ('A' for Active; 'I' for Inactive)
REMARK    1  A    between atoms: C_2  and  C_3
REMARK    2  A    between atoms: C_2  and  C_16
REMARK    3  A    between atoms: C_6  and  C_7
REMARK    4  A    between atoms: N_20  and  O_21
REMARK                            x       y       z     vdW  Elec       q    Type
REMARK                         _______ _______ _______ _____ _____    ______ ____
ROOT
ATOM      1  O   UNL     1       3.597   3.099  18.336  0.00  0.00    +0.000 OA
ATOM      2  C   UNL     1       3.861   4.268  18.071  0.00  0.00    +0.000 C 
ENDROOT
BRANCH   2   3
ATOM      3  C   UNL     1       4.925   4.628  17.071  0.00  0.00    +0.000 A 
ATOM      4  C   UNL     1       4.951   3.963  15.908  0.00  0.00    +0.000 A 
ATOM      5  C   UNL     1       6.015   4.279  14.934  0.00  0.00    +0.000 A 
ATOM      6  O   UNL     1       6.055   3.721  13.841  0.00  0.00    +0.000 OA
ATOM      7  N   UNL     1       6.943   5.208  15.345  0.00  0.00    +0.000 N 
ATOM      8  C   UNL     1       6.895   5.931  16.517  0.00  0.00    +0.000 A 
ATOM      9  O   UNL     1       7.693   6.795  16.873  0.00  0.00    +0.000 OA
ATOM     10  N   UNL     1       5.843   5.611  17.341  0.00  0.00    +0.000 N 
ATOM     11  H   UNL     1       5.793   6.160  18.191  0.00  0.00    +0.000 HD
BRANCH   7  12
ATOM     12  O   UNL     1       7.987   5.503  14.445  0.00  0.00    +0.000 OA
ATOM     13  H   UNL     1       8.599   4.753  14.589  0.00  0.00    +0.000 HD
ENDBRANCH   7  12
ENDBRANCH   2   3
BRANCH   2  14
ATOM     14  C   UNL     1       3.110   5.370  18.735  0.00  0.00    +0.000 A 
ATOM     15  C   UNL     1       2.524   5.201  19.990  0.00  0.00    +0.000 A 
ATOM     16  C   UNL     1       1.892   6.274  20.621  0.00  0.00    +0.000 A 
ATOM     17  C   UNL     1       1.798   7.538  20.011  0.00  0.00    +0.000 A 
ATOM     18  C   UNL     1       2.345   7.671  18.720  0.00  0.00    +0.000 A 
ATOM     19  C   UNL     1       2.988   6.599  18.084  0.00  0.00    +0.000 A 
BRANCH  17  20
ATOM     20  C   UNL     1       1.123   8.657  20.707  0.00  0.00    +0.000 A 
ATOM     21  C   UNL     1       1.020   8.681  22.114  0.00  0.00    +0.000 A 
ATOM     22  C   UNL     1       0.326   9.694  22.779  0.00  0.00    +0.000 A 
ATOM     23  C   UNL     1      -0.258  10.714  22.046  0.00  0.00    +0.000 A 
ATOM     24  F   UNL     1      -0.934  11.682  22.679  0.00  0.00    +0.000 F 
ATOM     25  C   UNL     1      -0.155  10.742  20.662  0.00  0.00    +0.000 A 
ATOM     26  C   UNL     1       0.530   9.719  19.997  0.00  0.00    +0.000 A 
ENDBRANCH  17  20
ENDBRANCH   2  14
TORSDOF 4
ENDMDL
MODEL 2
REMARK VINA RESULT:      -8.6      1.590      2.305
REMARK  Name = 
REMARK  4 active torsions:
REMARK  status: ('A' for Active; 'I' for Inactive)
REMARK    1  A    between atoms: C_2  and  C_3
REMARK    2  A    between atoms: C_2  and  C_16
REMARK    3  A    between atoms: C_6  and  C_7
REMARK    4  A    between atoms: N_20  and  O_21
REMARK                            x       y       z     vdW  Elec       q    Type
REMARK                         _______ _______ _______ _____ _____    ______ ____
ROOT
ATOM      1  O   UNL     1       1.985   4.479  17.528  0.00  0.00    +0.000 OA
ATOM      2  C   UNL     1       2.795   5.270  18.001  0.00  0.00    +0.000 C 
ENDROOT
BRANCH   2   3
ATOM      3  C   UNL     1       4.276   5.040  17.890  0.00  0.00    +0.000 A 
ATOM      4  C   UNL     1       4.756   4.539  16.744  0.00  0.00    +0.000 A 
ATOM      5  C   UNL     1       6.204   4.271  16.636  0.00  0.00    +0.000 A 
ATOM      6  O   UNL     1       6.691   3.849  15.592  0.00  0.00    +0.000 OA
ATOM      7  N   UNL     1       6.940   4.509  17.774  0.00  0.00    +0.000 N 
ATOM      8  C   UNL     1       6.464   5.069  18.940  0.00  0.00    +0.000 A 
ATOM      9  O   UNL     1       7.122   5.328  19.945  0.00  0.00    +0.000 OA
ATOM     10  N   UNL     1       5.116   5.336  18.934  0.00  0.00    +0.000 N 
ATOM     11  H   UNL     1       4.771   5.772  19.782  0.00  0.00    +0.000 HD
BRANCH   7  12
ATOM     12  O   UNL     1       8.320   4.229  17.707  0.00  0.00    +0.000 OA
ATOM     13  H   UNL     1       8.507   4.351  16.754  0.00  0.00    +0.000 HD
ENDBRANCH   7  12
ENDBRANCH   2   3
BRANCH   2  14
ATOM     14  C   UNL     1       2.318   6.500  18.691  0.00  0.00    +0.000 A 
ATOM     15  C   UNL     1       2.220   7.722  18.022  0.00  0.00    +0.000 A 
ATOM     16  C   UNL     1       1.698   8.841  18.674  0.00  0.00    +0.000 A 
ATOM     17  C   UNL     1       1.285   8.786  20.018  0.00  0.00    +0.000 A 
ATOM     18  C   UNL     1       1.447   7.560  20.691  0.00  0.00    +0.000 A 
ATOM     19  C   UNL     1       1.964   6.430  20.040  0.00  0.00    +0.000 A 
BRANCH  17  20
ATOM     20  C   UNL     1       0.734   9.990  20.681  0.00  0.00    +0.000 A 
ATOM     21  C   UNL     1       0.995  11.281  20.177  0.00  0.00    +0.000 A 
ATOM     22  C   UNL     1       0.539  12.428  20.832  0.00  0.00    +0.000 A 
ATOM     23  C   UNL     1      -0.207  12.298  21.991  0.00  0.00    +0.000 A 
ATOM     24  F   UNL     1      -0.638  13.395  22.627  0.00  0.00    +0.000 F 
ATOM     25  C   UNL     1      -0.511  11.045  22.504  0.00  0.00    +0.000 A 
ATOM     26  C   UNL     1      -0.042   9.898  21.853  0.00  0.00    +0.000 A 
ENDBRANCH  17  20
ENDBRANCH   2  14
TORSDOF 4
ENDMDL
MODEL 3
REMARK VINA RESULT:      -8.6      0.565      1.930
REMARK  Name = 
REMARK  4 active torsions:
REMARK  status: ('A' for Active; 'I' for Inactive)
REMARK    1  A    between atoms: C_2  and  C_3
REMARK    2  A    between atoms: C_2  and  C_16
REMARK    3  A    between atoms: C_6  and  C_7
REMARK    4  A    between atoms: N_20  and  O_21
REMARK                            x       y       z     vdW  Elec       q    Type
REMARK                         _______ _______ _______ _____ _____    ______ ____
ROOT
ATOM      1  O   UNL     1       3.332   3.241  18.143  0.00  0.00    +0.000 OA
ATOM      2  C   UNL     1       3.751   4.382  17.982  0.00  0.00    +0.000 C 
ENDROOT
BRANCH   2   3
ATOM      3  C   UNL     1       4.905   4.674  17.064  0.00  0.00    +0.000 A 
ATOM      4  C   UNL     1       5.784   5.617  17.431  0.00  0.00    +0.000 A 
ATOM      5  C   UNL     1       6.900   5.941  16.520  0.00  0.00    +0.000 A 
ATOM      6  O   UNL     1       7.749   6.771  16.834  0.00  0.00    +0.000 OA
ATOM      7  N   UNL     1       6.902   5.271  15.318  0.00  0.00    +0.000 N 
ATOM      8  C   UNL     1       6.032   4.267  14.953  0.00  0.00    +0.000 A 
ATOM      9  O   UNL     1       6.053   3.632  13.902  0.00  0.00    +0.000 OA
ATOM     10  N   UNL     1       5.057   3.993  15.882  0.00  0.00    +0.000 N 
ATOM     11  H   UNL     1       4.433   3.237  15.626  0.00  0.00    +0.000 HD
BRANCH   7  12
ATOM     12  O   UNL     1       7.939   5.588  14.417  0.00  0.00    +0.000 OA
ATOM     13  H   UNL     1       8.362   6.356  14.853  0.00  0.00    +0.000 HD
ENDBRANCH   7  12
ENDBRANCH   2   3
BRANCH   2  14
ATOM     14  C   UNL     1       3.106   5.520  18.693  0.00  0.00    +0.000 A 
ATOM     15  C   UNL     1       2.962   6.771  18.090  0.00  0.00    +0.000 A 
ATOM     16  C   UNL     1       2.285   7.797  18.752  0.00  0.00    +0.000 A 
ATOM     17  C   UNL     1       1.757   7.620  20.044  0.00  0.00    +0.000 A 
ATOM     18  C   UNL     1       1.964   6.369  20.657  0.00  0.00    +0.000 A 
ATOM     19  C   UNL     1       2.636   5.331  19.994  0.00  0.00    +0.000 A 
BRANCH  17  20
ATOM     20  C   UNL     1       1.042   8.727  20.719  0.00  0.00    +0.000 A 
ATOM     21  C   UNL     1       0.911   8.759  22.123  0.00  0.00    +0.000 A 
ATOM     22  C   UNL     1       0.180   9.760  22.767  0.00  0.00    +0.000 A 
ATOM     23  C   UNL     1      -0.414  10.760  22.015  0.00  0.00    +0.000 A 
ATOM     24  F   UNL     1      -1.125  11.715  22.627  0.00  0.00    +0.000 F 
ATOM     25  C   UNL     1      -0.285  10.780  20.633  0.00  0.00    +0.000 A 
ATOM     26  C   UNL     1       0.437   9.769  19.990  0.00  0.00    +0.000 A 
ENDBRANCH  17  20
ENDBRANCH   2  14
TORSDOF 4
ENDMDL
MODEL 4
REMARK VINA RESULT:      -8.6      2.281      2.926
REMARK  Name = 
REMARK  4 active torsions:
REMARK  status: ('A' for Active; 'I' for Inactive)
REMARK    1  A    between atoms: C_2  and  C_3
REMARK    2  A    between atoms: C_2  and  C_16
REMARK    3  A    between atoms: C_6  and  C_7
REMARK    4  A    between atoms: N_20  and  O_21
REMARK                            x       y       z     vdW  Elec       q    Type
REMARK                         _______ _______ _______ _____ _____    ______ ____
ROOT
ATOM      1  O   UNL     1       2.652   4.679  20.298  0.00  0.00    +0.000 OA
ATOM      2  C   UNL     1       3.186   5.493  19.551  0.00  0.00    +0.000 C 
ENDROOT
BRANCH   2   3
ATOM      3  C   UNL     1       4.470   5.181  18.836  0.00  0.00    +0.000 A 
ATOM      4  C   UNL     1       4.400   4.573  17.644  0.00  0.00    +0.000 A 
ATOM      5  C   UNL     1       5.655   4.225  16.948  0.00  0.00    +0.000 A 
ATOM      6  O   UNL     1       5.637   3.702  15.838  0.00  0.00    +0.000 OA
ATOM      7  N   UNL     1       6.814   4.509  17.633  0.00  0.00    +0.000 N 
ATOM      8  C   UNL     1       6.897   5.176  18.837  0.00  0.00    +0.000 A 
ATOM      9  O   UNL     1       7.928   5.475  19.434  0.00  0.00    +0.000 OA
ATOM     10  N   UNL     1       5.683   5.510  19.387  0.00  0.00    +0.000 N 
ATOM     11  H   UNL     1       5.744   6.024  20.258  0.00  0.00    +0.000 HD
BRANCH   7  12
ATOM     12  O   UNL     1       8.026   4.155  17.005  0.00  0.00    +0.000 OA
ATOM     13  H   UNL     1       8.507   3.705  17.728  0.00  0.00    +0.000 HD
ENDBRANCH   7  12
ENDBRANCH   2   3
BRANCH   2  14
ATOM     14  C   UNL     1       2.553   6.822  19.325  0.00  0.00    +0.000 A 
ATOM     15  C   UNL     1       1.824   7.465  20.327  0.00  0.00    +0.000 A 
ATOM     16  C   UNL     1       1.307   8.743  20.111  0.00  0.00    +0.000 A 
ATOM     17  C   UNL     1       1.473   9.409  18.883  0.00  0.00    +0.000 A 
ATOM     18  C   UNL     1       2.161   8.720  17.866  0.00  0.00    +0.000 A 
ATOM     19  C   UNL     1       2.691   7.438  18.079  0.00  0.00    +0.000 A 
BRANCH  17  20
ATOM     20  C   UNL     1       0.914  10.766  18.686  0.00  0.00    +0.000 A 
ATOM     21  C   UNL     1       1.755  11.898  18.639  0.00  0.00    +0.000 A 
ATOM     22  C   UNL     1       1.236  13.190  18.524  0.00  0.00    +0.000 A 
ATOM     23  C   UNL     1      -0.135  13.367  18.430  0.00  0.00    +0.000 A 
ATOM     24  F   UNL     1      -0.638  14.604  18.329  0.00  0.00    +0.000 F 
ATOM     25  C   UNL     1      -0.994  12.277  18.443  0.00  0.00    +0.000 A 
ATOM     26  C   UNL     1      -0.472  10.985  18.572  0.00  0.00    +0.000 A 
ENDBRANCH  17  20
ENDBRANCH   2  14
TORSDOF 4
ENDMDL
MODEL 5
REMARK VINA RESULT:      -8.6      1.696      2.664
REMARK  Name = 
REMARK  4 active torsions:
REMARK  status: ('A' for Active; 'I' for Inactive)
REMARK    1  A    between atoms: C_2  and  C_3
REMARK    2  A    between atoms: C_2  and  C_16
REMARK    3  A    between atoms: C_6  and  C_7
REMARK    4  A    between atoms: N_20  and  O_21
REMARK                            x       y       z     vdW  Elec       q    Type
REMARK                         _______ _______ _______ _____ _____    ______ ____
ROOT
ATOM      1  O   UNL     1       7.320   4.220  17.833  0.00  0.00    +0.000 OA
ATOM      2  C   UNL     1       6.538   4.778  17.070  0.00  0.00    +0.000 C 
ENDROOT
BRANCH   2   3
ATOM      3  C   UNL     1       6.710   4.708  15.578  0.00  0.00    +0.000 A 
ATOM      4  C   UNL     1       5.887   3.911  14.882  0.00  0.00    +0.000 A 
ATOM      5  C   UNL     1       6.071   3.803  13.421  0.00  0.00    +0.000 A 
ATOM      6  O   UNL     1       5.317   3.115  12.740  0.00  0.00    +0.000 OA
ATOM      7  N   UNL     1       7.136   4.502  12.901  0.00  0.00    +0.000 N 
ATOM      8  C   UNL     1       7.957   5.360  13.601  0.00  0.00    +0.000 A 
ATOM      9  O   UNL     1       8.881   6.024  13.138  0.00  0.00    +0.000 OA
ATOM     10  N   UNL     1       7.681   5.442  14.945  0.00  0.00    +0.000 N 
ATOM     11  H   UNL     1       8.267   6.093  15.455  0.00  0.00    +0.000 HD
BRANCH   7  12
ATOM     12  O   UNL     1       7.353   4.388  11.513  0.00  0.00    +0.000 OA
ATOM     13  H   UNL     1       6.506   4.006  11.204  0.00  0.00    +0.000 HD
ENDBRANCH   7  12
ENDBRANCH   2   3
BRANCH   2  14
ATOM     14  C   UNL     1       5.377   5.535  17.615  0.00  0.00    +0.000 A 
ATOM     15  C   UNL     1       4.726   5.132  18.782  0.00  0.00    +0.000 A 
ATOM     16  C   UNL     1       3.689   5.903  19.311  0.00  0.00    +0.000 A 
ATOM     17  C   UNL     1       3.250   7.082  18.681  0.00  0.00    +0.000 A 
ATOM     18  C   UNL     1       3.882   7.439  17.474  0.00  0.00    +0.000 A 
ATOM     19  C   UNL     1       4.930   6.673  16.941  0.00  0.00    +0.000 A 
BRANCH  17  20
ATOM     20  C   UNL     1       2.150   7.880  19.268  0.00  0.00    +0.000 A 
ATOM     21  C   UNL     1       1.572   8.954  18.560  0.00  0.00    +0.000 A 
ATOM     22  C   UNL     1       0.582   9.758  19.129  0.00  0.00    +0.000 A 
ATOM     23  C   UNL     1       0.138   9.484  20.413  0.00  0.00    +0.000 A 
ATOM     24  F   UNL     1      -0.804  10.258  20.966  0.00  0.00    +0.000 F 
ATOM     25  C   UNL     1       0.660   8.418  21.132  0.00  0.00    +0.000 A 
ATOM     26  C   UNL     1       1.661   7.623  20.564  0.00  0.00    +0.000 A 
ENDBRANCH  17  20
ENDBRANCH   2  14
TORSDOF 4
ENDMDL
MODEL 6
REMARK VINA RESULT:      -8.6      1.142      2.069
REMARK  Name = 
REMARK  4 active torsions:
REMARK  status: ('A' for Active; 'I' for Inactive)
REMARK    1  A    between atoms: C_2  and  C_3
REMARK    2  A    between atoms: C_2  and  C_16
REMARK    3  A    between atoms: C_6  and  C_7
REMARK    4  A    between atoms: N_20  and  O_21
REMARK                            x       y       z     vdW  Elec       q    Type
REMARK                         _______ _______ _______ _____ _____    ______ ____
ROOT
ATOM      1  O   UNL     1       2.547   3.068  18.819  0.00  0.00    +0.000 OA
ATOM      2  C   UNL     1       3.142   4.131  18.666  0.00  0.00    +0.000 C 
ENDROOT
BRANCH   2   3
ATOM      3  C   UNL     1       4.404   4.217  17.855  0.00  0.00    +0.000 A 
ATOM      4  C   UNL     1       5.568   4.351  18.506  0.00  0.00    +0.000 A 
ATOM      5  C   UNL     1       6.811   4.477  17.719  0.00  0.00    +0.000 A 
ATOM      6  O   UNL     1       7.902   4.563  18.276  0.00  0.00    +0.000 OA
ATOM      7  N   UNL     1       6.652   4.506  16.353  0.00  0.00    +0.000 N 
ATOM      8  C   UNL     1       5.467   4.320  15.675  0.00  0.00    +0.000 A 
ATOM      9  O   UNL     1       5.321   4.299  14.456  0.00  0.00    +0.000 OA
ATOM     10  N   UNL     1       4.368   4.158  16.484  0.00  0.00    +0.000 N 
ATOM     11  H   UNL     1       3.500   3.995  15.986  0.00  0.00    +0.000 HD
BRANCH   7  12
ATOM     12  O   UNL     1       7.822   4.659  15.582  0.00  0.00    +0.000 OA
ATOM     13  H   UNL     1       7.490   5.146  14.801  0.00  0.00    +0.000 HD
ENDBRANCH   7  12
ENDBRANCH   2   3
BRANCH   2  14
ATOM     14  C   UNL     1       2.607   5.377  19.280  0.00  0.00    +0.000 A 
ATOM     15  C   UNL     1       2.715   6.612  18.638  0.00  0.00    +0.000 A 
ATOM     16  C   UNL     1       2.137   7.751  19.202  0.00  0.00    +0.000 A 
ATOM     17  C   UNL     1       1.462   7.703  20.436  0.00  0.00    +0.000 A 
ATOM     18  C   UNL     1       1.415   6.459  21.094  0.00  0.00    +0.000 A 
ATOM     19  C   UNL     1       1.986   5.309  20.529  0.00  0.00    +0.000 A 
BRANCH  17  20
ATOM     20  C   UNL     1       0.858   8.928  21.007  0.00  0.00    +0.000 A 
ATOM     21  C   UNL     1       0.331   8.936  22.315  0.00  0.00    +0.000 A 
ATOM     22  C   UNL     1      -0.304  10.064  22.841  0.00  0.00    +0.000 A 
ATOM     23  C   UNL     1      -0.400  11.212  22.071  0.00  0.00    +0.000 A 
ATOM     24  F   UNL     1      -1.017  12.292  22.567  0.00  0.00    +0.000 F 
ATOM     25  C   UNL     1       0.131  11.254  20.789  0.00  0.00    +0.000 A 
ATOM     26  C   UNL     1       0.754  10.118  20.260  0.00  0.00    +0.000 A 
ENDBRANCH  17  20
ENDBRANCH   2  14
TORSDOF 4
ENDMDL
MODEL 7
REMARK VINA RESULT:      -8.6      1.529      2.533
REMARK  Name = 
REMARK  4 active torsions:
REMARK  status: ('A' for Active; 'I' for Inactive)
REMARK    1  A    between atoms: C_2  and  C_3
REMARK    2  A    between atoms: C_2  and  C_16
REMARK    3  A    between atoms: C_6  and  C_7
REMARK    4  A    between atoms: N_20  and  O_21
REMARK                            x       y       z     vdW  Elec       q    Type
REMARK                         _______ _______ _______ _____ _____    ______ ____
ROOT
ATOM      1  O   UNL     1       1.954   4.348  17.529  0.00  0.00    +0.000 OA
ATOM      2  C   UNL     1       2.751   5.096  18.087  0.00  0.00    +0.000 C 
ENDROOT
BRANCH   2   3
ATOM      3  C   UNL     1       4.236   4.884  17.980  0.00  0.00    +0.000 A 
ATOM      4  C   UNL     1       5.000   5.212  19.031  0.00  0.00    +0.000 A 
ATOM      5  C   UNL     1       6.463   5.046  18.924  0.00  0.00    +0.000 A 
ATOM      6  O   UNL     1       7.197   5.297  19.876  0.00  0.00    +0.000 OA
ATOM      7  N   UNL     1       6.927   4.615  17.702  0.00  0.00    +0.000 N 
ATOM      8  C   UNL     1       6.146   4.231  16.633  0.00  0.00    +0.000 A 
ATOM      9  O   UNL     1       6.549   3.802  15.555  0.00  0.00    +0.000 OA
ATOM     10  N   UNL     1       4.794   4.367  16.838  0.00  0.00    +0.000 N 
ATOM     11  H   UNL     1       4.219   4.060  16.062  0.00  0.00    +0.000 HD
BRANCH   7  12
ATOM     12  O   UNL     1       8.324   4.481  17.565  0.00  0.00    +0.000 OA
ATOM     13  H   UNL     1       8.550   5.255  17.011  0.00  0.00    +0.000 HD
ENDBRANCH   7  12
ENDBRANCH   2   3
BRANCH   2  14
ATOM     14  C   UNL     1       2.256   6.254  18.880  0.00  0.00    +0.000 A 
ATOM     15  C   UNL     1       2.207   7.541  18.342  0.00  0.00    +0.000 A 
ATOM     16  C   UNL     1       1.667   8.594  19.084  0.00  0.00    +0.000 A 
ATOM     17  C   UNL     1       1.187   8.405  20.393  0.00  0.00    +0.000 A 
ATOM     18  C   UNL     1       1.300   7.111  20.938  0.00  0.00    +0.000 A 
ATOM     19  C   UNL     1       1.834   6.047  20.196  0.00  0.00    +0.000 A 
BRANCH  17  20
ATOM     20  C   UNL     1       0.618   9.541  21.153  0.00  0.00    +0.000 A 
ATOM     21  C   UNL     1      -0.105   9.328  22.345  0.00  0.00    +0.000 A 
ATOM     22  C   UNL     1      -0.706  10.384  23.034  0.00  0.00    +0.000 A 
ATOM     23  C   UNL     1      -0.573  11.676  22.551  0.00  0.00    +0.000 A 
ATOM     24  F   UNL     1      -1.156  12.690  23.202  0.00  0.00    +0.000 F 
ATOM     25  C   UNL     1       0.155  11.930  21.397  0.00  0.00    +0.000 A 
ATOM     26  C   UNL     1       0.745  10.869  20.701  0.00  0.00    +0.000 A 
ENDBRANCH  17  20
ENDBRANCH   2  14
TORSDOF 4
ENDMDL
MODEL 8
REMARK VINA RESULT:      -8.5      2.305      3.437
REMARK  Name = 
REMARK  4 active torsions:
REMARK  status: ('A' for Active; 'I' for Inactive)
REMARK    1  A    between atoms: C_2  and  C_3
REMARK    2  A    between atoms: C_2  and  C_16
REMARK    3  A    between atoms: C_6  and  C_7
REMARK    4  A    between atoms: N_20  and  O_21
REMARK                            x       y       z     vdW  Elec       q    Type
REMARK                         _______ _______ _______ _____ _____    ______ ____
ROOT
ATOM      1  O   UNL     1       2.061   4.515  19.317  0.00  0.00    +0.000 OA
ATOM      2  C   UNL     1       2.851   5.378  18.945  0.00  0.00    +0.000 C 
ENDROOT
BRANCH   2   3
ATOM      3  C   UNL     1       4.246   5.030  18.507  0.00  0.00    +0.000 A 
ATOM      4  C   UNL     1       5.263   5.349  19.319  0.00  0.00    +0.000 A 
ATOM      5  C   UNL     1       6.642   5.049  18.882  0.00  0.00    +0.000 A 
ATOM      6  O   UNL     1       7.600   5.290  19.611  0.00  0.00    +0.000 OA
ATOM      7  N   UNL     1       6.764   4.510  17.622  0.00  0.00    +0.000 N 
ATOM      8  C   UNL     1       5.722   4.134  16.801  0.00  0.00    +0.000 A 
ATOM      9  O   UNL     1       5.820   3.610  15.694  0.00  0.00    +0.000 OA
ATOM     10  N   UNL     1       4.473   4.401  17.308  0.00  0.00    +0.000 N 
ATOM     11  H   UNL     1       3.707   4.101  16.717  0.00  0.00    +0.000 HD
BRANCH   7  12
ATOM     12  O   UNL     1       8.072   4.245  17.170  0.00  0.00    +0.000 OA
ATOM     13  H   UNL     1       8.603   4.876  17.696  0.00  0.00    +0.000 HD
ENDBRANCH   7  12
ENDBRANCH   2   3
BRANCH   2  14
ATOM     14  C   UNL     1       2.431   6.806  18.906  0.00  0.00    +0.000 A 
ATOM     15  C   UNL     1       2.589   7.583  17.758  0.00  0.00    +0.000 A 
ATOM     16  C   UNL     1       2.117   8.897  17.727  0.00  0.00    +0.000 A 
ATOM     17  C   UNL     1       1.500   9.486  18.846  0.00  0.00    +0.000 A 
ATOM     18  C   UNL     1       1.403   8.704  20.012  0.00  0.00    +0.000 A 
ATOM     19  C   UNL     1       1.868   7.380  20.048  0.00  0.00    +0.000 A 
BRANCH  17  20
ATOM     20  C   UNL     1       1.008  10.881  18.781  0.00  0.00    +0.000 A 
ATOM     21  C   UNL     1      -0.368  11.171  18.888  0.00  0.00    +0.000 A 
ATOM     22  C   UNL     1      -0.853  12.475  18.758  0.00  0.00    +0.000 A 
ATOM     23  C   UNL     1       0.038  13.514  18.542  0.00  0.00    +0.000 A 
ATOM     24  F   UNL     1      -0.423  14.764  18.406  0.00  0.00    +0.000 F 
ATOM     25  C   UNL     1       1.402  13.273  18.459  0.00  0.00    +0.000 A 
ATOM     26  C   UNL     1       1.883  11.965  18.576  0.00  0.00    +0.000 A 
ENDBRANCH  17  20
ENDBRANCH   2  14
TORSDOF 4
ENDMDL
MODEL 9
REMARK VINA RESULT:      -8.5      2.255      3.041
REMARK  Name = 
REMARK  4 active torsions:
REMARK  status: ('A' for Active; 'I' for Inactive)
REMARK    1  A    between atoms: C_2  and  C_3
REMARK    2  A    between atoms: C_2  and  C_16
REMARK    3  A    between atoms: C_6  and  C_7
REMARK    4  A    between atoms: N_20  and  O_21
REMARK                            x       y       z     vdW  Elec       q    Type
REMARK                         _______ _______ _______ _____ _____    ______ ____
ROOT
ATOM      1  O   UNL     1       2.204   4.645  19.626  0.00  0.00    +0.000 OA
ATOM      2  C   UNL     1       2.919   5.510  19.127  0.00  0.00    +0.000 C 
ENDROOT
BRANCH   2   3
ATOM      3  C   UNL     1       4.286   5.188  18.593  0.00  0.00    +0.000 A 
ATOM      4  C   UNL     1       4.373   4.573  17.405  0.00  0.00    +0.000 A 
ATOM      5  C   UNL     1       5.709   4.215  16.887  0.00  0.00    +0.000 A 
ATOM      6  O   UNL     1       5.837   3.686  15.787  0.00  0.00    +0.000 OA
ATOM      7  N   UNL     1       6.767   4.499  17.719  0.00  0.00    +0.000 N 
ATOM      8  C   UNL     1       6.691   5.174  18.919  0.00  0.00    +0.000 A 
ATOM      9  O   UNL     1       7.634   5.472  19.648  0.00  0.00    +0.000 OA
ATOM     10  N   UNL     1       5.416   5.516  19.299  0.00  0.00    +0.000 N 
ATOM     11  H   UNL     1       5.362   6.035  20.168  0.00  0.00    +0.000 HD
BRANCH   7  12
ATOM     12  O   UNL     1       8.050   4.137  17.261  0.00  0.00    +0.000 OA
ATOM     13  H   UNL     1       8.112   4.629  16.417  0.00  0.00    +0.000 HD
ENDBRANCH   7  12
ENDBRANCH   2   3
BRANCH   2  14
ATOM     14  C   UNL     1       2.431   6.913  19.029  0.00  0.00    +0.000 A 
ATOM     15  C   UNL     1       2.434   7.605  17.816  0.00  0.00    +0.000 A 
ATOM     16  C   UNL     1       1.901   8.892  17.739  0.00  0.00    +0.000 A 
ATOM     17  C   UNL     1       1.375   9.543  18.871  0.00  0.00    +0.000 A 
ATOM     18  C   UNL     1       1.435   8.851  20.095  0.00  0.00    +0.000 A 
ATOM     19  C   UNL     1       1.962   7.553  20.179  0.00  0.00    +0.000 A 
BRANCH  17  20
ATOM     20  C   UNL     1       0.815  10.908  18.756  0.00  0.00    +0.000 A 
ATOM     21  C   UNL     1       1.615  12.045  18.993  0.00  0.00    +0.000 A 
ATOM     22  C   UNL     1       1.082  13.336  18.957  0.00  0.00    +0.000 A 
ATOM     23  C   UNL     1      -0.260  13.510  18.658  0.00  0.00    +0.000 A 
ATOM     24  F   UNL     1      -0.777  14.745  18.632  0.00  0.00    +0.000 F 
ATOM     25  C   UNL     1      -1.074  12.419  18.390  0.00  0.00    +0.000 A 
ATOM     26  C   UNL     1      -0.541  11.126  18.440  0.00  0.00    +0.000 A 
ENDBRANCH  17  20
ENDBRANCH   2  14
TORSDOF 4
ENDMDL
