MODEL 1
REMARK VINA RESULT:      -8.2      0.000      0.000
REMARK  Name = 
REMARK  7 active torsions:
REMARK  status: ('A' for Active; 'I' for Inactive)
REMARK    1  A    between atoms: C_1  and  C_2
REMARK    2  A    between atoms: C_5  and  O_6
REMARK    3  A    between atoms: O_6  and  C_7
REMARK    4  A    between atoms: C_7  and  C_8
REMARK    5  A    between atoms: C_11  and  C_12
REMARK    6  A    between atoms: C_16  and  C_17
REMARK    7  A    between atoms: C_18  and  N_19
REMARK                            x       y       z     vdW  Elec       q    Type
REMARK                         _______ _______ _______ _____ _____    ______ ____
ROOT
ATOM      1  O   UNL     1       5.254   3.499  16.612  0.00  0.00    +0.000 OA
ENDROOT
BRANCH   1   6
ATOM      2  C   UNL     1       8.254   5.713  12.368  0.00  0.00    +0.000 C 
ATOM      3  C   UNL     1       7.442   5.093  13.466  0.00  0.00    +0.000 A 
ATOM      4  C   UNL     1       6.404   4.222  13.174  0.00  0.00    +0.000 A 
ATOM      5  C   UNL     1       5.671   3.663  14.219  0.00  0.00    +0.000 A 
ATOM      6  C   UNL     1       5.976   3.967  15.548  0.00  0.00    +0.000 A 
ATOM      7  C   UNL     1       7.033   4.864  15.754  0.00  0.00    +0.000 A 
ATOM      8  N   UNL     1       7.766   5.424  14.734  0.00  0.00    +0.000 NA
BRANCH   7   9
ATOM      9  N   UNL     1       7.352   5.192  17.150  0.00  0.00    +0.000 N 
ATOM     10  O   UNL     1       8.019   4.368  17.799  0.00  0.00    +0.000 OA
ATOM     11  O   UNL     1       6.956   6.287  17.579  0.00  0.00    +0.000 OA
ENDBRANCH   7   9
ENDBRANCH   1   6
BRANCH   1  12
ATOM     12  C   UNL     1       3.889   3.891  16.690  0.00  0.00    +0.000 C 
BRANCH  12  13
ATOM     13  C   UNL     1       3.552   4.767  17.910  0.00  0.00    +0.000 C 
ATOM     14  O   UNL     1       3.800   5.973  17.841  0.00  0.00    +0.000 OA
ATOM     15  N   UNL     1       2.929   4.175  19.012  0.00  0.00    +0.000 N 
ATOM     16  C   UNL     1       2.457   4.988  20.170  0.00  0.00    +0.000 C 
ATOM     17  C   UNL     1       2.231   6.488  19.933  0.00  0.00    +0.000 C 
ATOM     18  C   UNL     1       1.134   4.408  20.711  0.00  0.00    +0.000 C 
ATOM     19  C   UNL     1       1.219   2.918  21.017  0.00  0.00    +0.000 C 
ATOM     20  C   UNL     1       1.737   2.151  19.809  0.00  0.00    +0.000 C 
ATOM     21  C   UNL     1       3.057   2.722  19.278  0.00  0.00    +0.000 C 
ATOM     22  C   UNL     1       4.238   2.421  20.208  0.00  0.00    +0.000 C 
ENDBRANCH  12  13
ENDBRANCH   1  12
TORSDOF 4
ENDMDL
MODEL 2
REMARK VINA RESULT:      -7.4      1.112      1.982
REMARK  Name = 
REMARK  7 active torsions:
REMARK  status: ('A' for Active; 'I' for Inactive)
REMARK    1  A    between atoms: C_1  and  C_2
REMARK    2  A    between atoms: C_5  and  O_6
REMARK    3  A    between atoms: O_6  and  C_7
REMARK    4  A    between atoms: C_7  and  C_8
REMARK    5  A    between atoms: C_11  and  C_12
REMARK    6  A    between atoms: C_16  and  C_17
REMARK    7  A    between atoms: C_18  and  N_19
REMARK                            x       y       z     vdW  Elec       q    Type
REMARK                         _______ _______ _______ _____ _____    ______ ____
ROOT
ATOM      1  O   UNL     1       4.943   3.925  17.175  0.00  0.00    +0.000 OA
ENDROOT
BRANCH   1   6
ATOM      2  C   UNL     1       8.056   5.378  12.690  0.00  0.00    +0.000 C 
ATOM      3  C   UNL     1       7.207   4.963  13.854  0.00  0.00    +0.000 A 
ATOM      4  C   UNL     1       6.015   4.284  13.655  0.00  0.00    +0.000 A 
ATOM      5  C   UNL     1       5.251   3.911  14.760  0.00  0.00    +0.000 A 
ATOM      6  C   UNL     1       5.678   4.209  16.056  0.00  0.00    +0.000 A 
ATOM      7  C   UNL     1       6.889   4.906  16.167  0.00  0.00    +0.000 A 
ATOM      8  N   UNL     1       7.654   5.281  15.088  0.00  0.00    +0.000 NA
BRANCH   7   9
ATOM      9  N   UNL     1       7.337   5.227  17.529  0.00  0.00    +0.000 N 
ATOM     10  O   UNL     1       7.983   4.362  18.144  0.00  0.00    +0.000 OA
ATOM     11  O   UNL     1       7.064   6.358  17.963  0.00  0.00    +0.000 OA
ENDBRANCH   7   9
ENDBRANCH   1   6
BRANCH   1  12
ATOM     12  C   UNL     1       3.856   4.794  17.472  0.00  0.00    +0.000 C 
BRANCH  12  13
ATOM     13  C   UNL     1       2.540   4.067  17.805  0.00  0.00    +0.000 C 
ATOM     14  O   UNL     1       1.893   3.587  16.871  0.00  0.00    +0.000 OA
ATOM     15  N   UNL     1       2.168   3.930  19.145  0.00  0.00    +0.000 N 
ATOM     16  C   UNL     1       0.978   3.125  19.545  0.00  0.00    +0.000 C 
ATOM     17  C   UNL     1       0.464   2.082  18.542  0.00  0.00    +0.000 C 
ATOM     18  C   UNL     1       1.268   2.383  20.865  0.00  0.00    +0.000 C 
ATOM     19  C   UNL     1       1.767   3.307  21.969  0.00  0.00    +0.000 C 
ATOM     20  C   UNL     1       2.959   4.122  21.488  0.00  0.00    +0.000 C 
ATOM     21  C   UNL     1       2.667   4.866  20.180  0.00  0.00    +0.000 C 
ATOM     22  C   UNL     1       1.706   6.046  20.383  0.00  0.00    +0.000 C 
ENDBRANCH  12  13
ENDBRANCH   1  12
TORSDOF 4
ENDMDL
MODEL 3
REMARK VINA RESULT:      -7.4      1.489      2.613
REMARK  Name = 
REMARK  7 active torsions:
REMARK  status: ('A' for Active; 'I' for Inactive)
REMARK    1  A    between atoms: C_1  and  C_2
REMARK    2  A    between atoms: C_5  and  O_6
REMARK    3  A    between atoms: O_6  and  C_7
REMARK    4  A    between atoms: C_7  and  C_8
REMARK    5  A    between atoms: C_11  and  C_12
REMARK    6  A    between atoms: C_16  and  C_17
REMARK    7  A    between atoms: C_18  and  N_19
REMARK                            x       y       z     vdW  Elec       q    Type
REMARK                         _______ _______ _______ _____ _____    ______ ____
ROOT
ATOM      1  O   UNL     1       4.762   6.482  17.826  0.00  0.00    +0.000 OA
ENDROOT
BRANCH   1   6
ATOM      2  C   UNL     1       7.502   4.321  13.384  0.00  0.00    +0.000 C 
ATOM      3  C   UNL     1       6.743   4.862  14.558  0.00  0.00    +0.000 A 
ATOM      4  C   UNL     1       5.419   4.510  14.768  0.00  0.00    +0.000 A 
ATOM      5  C   UNL     1       4.743   5.031  15.871  0.00  0.00    +0.000 A 
ATOM      6  C   UNL     1       5.389   5.892  16.762  0.00  0.00    +0.000 A 
ATOM      7  C   UNL     1       6.724   6.203  16.470  0.00  0.00    +0.000 A 
ATOM      8  N   UNL     1       7.404   5.698  15.386  0.00  0.00    +0.000 NA
BRANCH   7   9
ATOM      9  N   UNL     1       7.403   7.114  17.401  0.00  0.00    +0.000 N 
ATOM     10  O   UNL     1       7.291   8.335  17.199  0.00  0.00    +0.000 OA
ATOM     11  O   UNL     1       8.022   6.600  18.346  0.00  0.00    +0.000 OA
ENDBRANCH   7   9
ENDBRANCH   1   6
BRANCH   1  12
ATOM     12  C   UNL     1       5.091   5.995  19.122  0.00  0.00    +0.000 C 
BRANCH  12  13
ATOM     13  C   UNL     1       4.862   4.485  19.305  0.00  0.00    +0.000 C 
ATOM     14  O   UNL     1       5.836   3.735  19.195  0.00  0.00    +0.000 OA
ATOM     15  N   UNL     1       3.584   4.034  19.646  0.00  0.00    +0.000 N 
ATOM     16  C   UNL     1       3.323   2.601  19.968  0.00  0.00    +0.000 C 
ATOM     17  C   UNL     1       4.525   1.741  20.382  0.00  0.00    +0.000 C 
ATOM     18  C   UNL     1       2.280   2.501  21.099  0.00  0.00    +0.000 C 
ATOM     19  C   UNL     1       1.012   3.293  20.811  0.00  0.00    +0.000 C 
ATOM     20  C   UNL     1       1.348   4.735  20.458  0.00  0.00    +0.000 C 
ATOM     21  C   UNL     1       2.377   4.834  19.327  0.00  0.00    +0.000 C 
ATOM     22  C   UNL     1       1.786   4.444  17.966  0.00  0.00    +0.000 C 
ENDBRANCH  12  13
ENDBRANCH   1  12
TORSDOF 4
ENDMDL
MODEL 4
REMARK VINA RESULT:      -7.3      1.256      2.287
REMARK  Name = 
REMARK  7 active torsions:
REMARK  status: ('A' for Active; 'I' for Inactive)
REMARK    1  A    between atoms: C_1  and  C_2
REMARK    2  A    between atoms: C_5  and  O_6
REMARK    3  A    between atoms: O_6  and  C_7
REMARK    4  A    between atoms: C_7  and  C_8
REMARK    5  A    between atoms: C_11  and  C_12
REMARK    6  A    between atoms: C_16  and  C_17
REMARK    7  A    between atoms: C_18  and  N_19
REMARK                            x       y       z     vdW  Elec       q    Type
REMARK                         _______ _______ _______ _____ _____    ______ ____
ROOT
ATOM      1  O   UNL     1       5.184   3.836  17.485  0.00  0.00    +0.000 OA
ENDROOT
BRANCH   1   6
ATOM      2  C   UNL     1       7.867   5.311  12.737  0.00  0.00    +0.000 C 
ATOM      3  C   UNL     1       7.132   4.888  13.973  0.00  0.00    +0.000 A 
ATOM      4  C   UNL     1       5.980   4.122  13.886  0.00  0.00    +0.000 A 
ATOM      5  C   UNL     1       5.323   3.745  15.056  0.00  0.00    +0.000 A 
ATOM      6  C   UNL     1       5.818   4.124  16.306  0.00  0.00    +0.000 A 
ATOM      7  C   UNL     1       6.982   4.904  16.304  0.00  0.00    +0.000 A 
ATOM      8  N   UNL     1       7.641   5.285  15.159  0.00  0.00    +0.000 NA
BRANCH   7   9
ATOM      9  N   UNL     1       7.501   5.311  17.617  0.00  0.00    +0.000 N 
ATOM     10  O   UNL     1       8.101   4.457  18.290  0.00  0.00    +0.000 OA
ATOM     11  O   UNL     1       7.327   6.493  17.953  0.00  0.00    +0.000 OA
ENDBRANCH   7   9
ENDBRANCH   1   6
BRANCH   1  12
ATOM     12  C   UNL     1       4.320   2.706  17.495  0.00  0.00    +0.000 C 
BRANCH  12  13
ATOM     13  C   UNL     1       3.395   2.630  18.723  0.00  0.00    +0.000 C 
ATOM     14  O   UNL     1       3.302   1.549  19.310  0.00  0.00    +0.000 OA
ATOM     15  N   UNL     1       2.753   3.794  19.155  0.00  0.00    +0.000 N 
ATOM     16  C   UNL     1       1.951   3.821  20.412  0.00  0.00    +0.000 C 
ATOM     17  C   UNL     1       2.227   2.722  21.448  0.00  0.00    +0.000 C 
ATOM     18  C   UNL     1       2.139   5.176  21.124  0.00  0.00    +0.000 C 
ATOM     19  C   UNL     1       1.871   6.368  20.214  0.00  0.00    +0.000 C 
ATOM     20  C   UNL     1       2.694   6.264  18.938  0.00  0.00    +0.000 C 
ATOM     21  C   UNL     1       2.499   4.921  18.226  0.00  0.00    +0.000 C 
ATOM     22  C   UNL     1       1.119   4.807  17.566  0.00  0.00    +0.000 C 
ENDBRANCH  12  13
ENDBRANCH   1  12
TORSDOF 4
ENDMDL
MODEL 5
REMARK VINA RESULT:      -7.3      2.555      3.769
REMARK  Name = 
REMARK  7 active torsions:
REMARK  status: ('A' for Active; 'I' for Inactive)
REMARK    1  A    between atoms: C_1  and  C_2
REMARK    2  A    between atoms: C_5  and  O_6
REMARK    3  A    between atoms: O_6  and  C_7
REMARK    4  A    between atoms: C_7  and  C_8
REMARK    5  A    between atoms: C_11  and  C_12
REMARK    6  A    between atoms: C_16  and  C_17
REMARK    7  A    between atoms: C_18  and  N_19
REMARK                            x       y       z     vdW  Elec       q    Type
REMARK                         _______ _______ _______ _____ _____    ______ ____
ROOT
ATOM      1  O   UNL     1       6.634   4.620  17.992  0.00  0.00    +0.000 OA
ENDROOT
BRANCH   1   6
ATOM      2  C   UNL     1       8.585   9.922  17.962  0.00  0.00    +0.000 C 
ATOM      3  C   UNL     1       8.083   8.510  18.012  0.00  0.00    +0.000 A 
ATOM      4  C   UNL     1       8.559   7.623  18.966  0.00  0.00    +0.000 A 
ATOM      5  C   UNL     1       8.070   6.317  18.985  0.00  0.00    +0.000 A 
ATOM      6  C   UNL     1       7.106   5.903  18.062  0.00  0.00    +0.000 A 
ATOM      7  C   UNL     1       6.687   6.859  17.127  0.00  0.00    +0.000 A 
ATOM      8  N   UNL     1       7.161   8.151  17.095  0.00  0.00    +0.000 NA
BRANCH   7   9
ATOM      9  N   UNL     1       5.680   6.424  16.150  0.00  0.00    +0.000 N 
ATOM     10  O   UNL     1       6.082   5.857  15.120  0.00  0.00    +0.000 OA
ATOM     11  O   UNL     1       4.489   6.629  16.436  0.00  0.00    +0.000 OA
ENDBRANCH   7   9
ENDBRANCH   1   6
BRANCH   1  12
ATOM     12  C   UNL     1       5.658   4.237  18.954  0.00  0.00    +0.000 C 
BRANCH  12  13
ATOM     13  C   UNL     1       4.354   3.690  18.346  0.00  0.00    +0.000 C 
ATOM     14  O   UNL     1       4.406   3.198  17.215  0.00  0.00    +0.000 OA
ATOM     15  N   UNL     1       3.188   3.717  19.116  0.00  0.00    +0.000 N 
ATOM     16  C   UNL     1       1.924   3.084  18.641  0.00  0.00    +0.000 C 
ATOM     17  C   UNL     1       2.041   2.015  17.545  0.00  0.00    +0.000 C 
ATOM     18  C   UNL     1       1.183   2.439  19.828  0.00  0.00    +0.000 C 
ATOM     19  C   UNL     1       0.973   3.401  20.991  0.00  0.00    +0.000 C 
ATOM     20  C   UNL     1       2.292   4.037  21.407  0.00  0.00    +0.000 C 
ATOM     21  C   UNL     1       3.024   4.685  20.227  0.00  0.00    +0.000 C 
ATOM     22  C   UNL     1       2.340   5.974  19.754  0.00  0.00    +0.000 C 
ENDBRANCH  12  13
ENDBRANCH   1  12
TORSDOF 4
ENDMDL
MODEL 6
REMARK VINA RESULT:      -7.3      1.497      2.185
REMARK  Name = 
REMARK  7 active torsions:
REMARK  status: ('A' for Active; 'I' for Inactive)
REMARK    1  A    between atoms: C_1  and  C_2
REMARK    2  A    between atoms: C_5  and  O_6
REMARK    3  A    between atoms: O_6  and  C_7
REMARK    4  A    between atoms: C_7  and  C_8
REMARK    5  A    between atoms: C_11  and  C_12
REMARK    6  A    between atoms: C_16  and  C_17
REMARK    7  A    between atoms: C_18  and  N_19
REMARK                            x       y       z     vdW  Elec       q    Type
REMARK                         _______ _______ _______ _____ _____    ______ ____
ROOT
ATOM      1  O   UNL     1       4.984   6.298  18.153  0.00  0.00    +0.000 OA
ENDROOT
BRANCH   1   6
ATOM      2  C   UNL     1       7.318   4.435  13.357  0.00  0.00    +0.000 C 
ATOM      3  C   UNL     1       6.668   4.896  14.627  0.00  0.00    +0.000 A 
ATOM      4  C   UNL     1       5.396   4.463  14.970  0.00  0.00    +0.000 A 
ATOM      5  C   UNL     1       4.823   4.909  16.159  0.00  0.00    +0.000 A 
ATOM      6  C   UNL     1       5.518   5.778  17.005  0.00  0.00    +0.000 A 
ATOM      7  C   UNL     1       6.793   6.173  16.579  0.00  0.00    +0.000 A 
ATOM      8  N   UNL     1       7.373   5.742  15.408  0.00  0.00    +0.000 NA
BRANCH   7   9
ATOM      9  N   UNL     1       7.524   7.092  17.462  0.00  0.00    +0.000 N 
ATOM     10  O   UNL     1       8.096   6.608  18.453  0.00  0.00    +0.000 OA
ATOM     11  O   UNL     1       7.543   8.291  17.140  0.00  0.00    +0.000 OA
ENDBRANCH   7   9
ENDBRANCH   1   6
BRANCH   1  12
ATOM     12  C   UNL     1       5.035   5.481  19.317  0.00  0.00    +0.000 C 
BRANCH  12  13
ATOM     13  C   UNL     1       3.654   5.075  19.862  0.00  0.00    +0.000 C 
ATOM     14  O   UNL     1       3.026   5.907  20.521  0.00  0.00    +0.000 OA
ATOM     15  N   UNL     1       3.148   3.812  19.541  0.00  0.00    +0.000 N 
ATOM     16  C   UNL     1       1.765   3.406  19.924  0.00  0.00    +0.000 C 
ATOM     17  C   UNL     1       0.764   4.526  20.240  0.00  0.00    +0.000 C 
ATOM     18  C   UNL     1       1.145   2.543  18.807  0.00  0.00    +0.000 C 
ATOM     19  C   UNL     1       2.027   1.368  18.404  0.00  0.00    +0.000 C 
ATOM     20  C   UNL     1       3.431   1.844  18.058  0.00  0.00    +0.000 C 
ATOM     21  C   UNL     1       4.050   2.695  19.172  0.00  0.00    +0.000 C 
ATOM     22  C   UNL     1       4.437   1.856  20.397  0.00  0.00    +0.000 C 
ENDBRANCH  12  13
ENDBRANCH   1  12
TORSDOF 4
ENDMDL
MODEL 7
REMARK VINA RESULT:      -7.2      0.954      1.169
REMARK  Name = 
REMARK  7 active torsions:
REMARK  status: ('A' for Active; 'I' for Inactive)
REMARK    1  A    between atoms: C_1  and  C_2
REMARK    2  A    between atoms: C_5  and  O_6
REMARK    3  A    between atoms: O_6  and  C_7
REMARK    4  A    between atoms: C_7  and  C_8
REMARK    5  A    between atoms: C_11  and  C_12
REMARK    6  A    between atoms: C_16  and  C_17
REMARK    7  A    between atoms: C_18  and  N_19
REMARK                            x       y       z     vdW  Elec       q    Type
REMARK                         _______ _______ _______ _____ _____    ______ ____
ROOT
ATOM      1  O   UNL     1       5.126   4.737  17.188  0.00  0.00    +0.000 OA
ENDROOT
BRANCH   1   6
ATOM      2  C   UNL     1       7.892   4.872  12.265  0.00  0.00    +0.000 C 
ATOM      3  C   UNL     1       7.136   4.799  13.557  0.00  0.00    +0.000 A 
ATOM      4  C   UNL     1       5.999   4.014  13.669  0.00  0.00    +0.000 A 
ATOM      5  C   UNL     1       5.322   3.967  14.887  0.00  0.00    +0.000 A 
ATOM      6  C   UNL     1       5.781   4.694  15.987  0.00  0.00    +0.000 A 
ATOM      7  C   UNL     1       6.932   5.469  15.785  0.00  0.00    +0.000 A 
ATOM      8  N   UNL     1       7.611   5.526  14.591  0.00  0.00    +0.000 NA
BRANCH   7   9
ATOM      9  N   UNL     1       7.413   6.241  16.939  0.00  0.00    +0.000 N 
ATOM     10  O   UNL     1       7.289   7.477  16.898  0.00  0.00    +0.000 OA
ATOM     11  O   UNL     1       7.887   5.601  17.891  0.00  0.00    +0.000 OA
ENDBRANCH   7   9
ENDBRANCH   1   6
BRANCH   1  12
ATOM     12  C   UNL     1       3.865   5.396  17.213  0.00  0.00    +0.000 C 
BRANCH  12  13
ATOM     13  C   UNL     1       3.289   5.604  18.625  0.00  0.00    +0.000 C 
ATOM     14  O   UNL     1       3.274   6.751  19.080  0.00  0.00    +0.000 OA
ATOM     15  N   UNL     1       2.757   4.504  19.304  0.00  0.00    +0.000 N 
ATOM     16  C   UNL     1       2.065   4.658  20.616  0.00  0.00    +0.000 C 
ATOM     17  C   UNL     1       1.532   6.053  20.973  0.00  0.00    +0.000 C 
ATOM     18  C   UNL     1       0.875   3.682  20.698  0.00  0.00    +0.000 C 
ATOM     19  C   UNL     1       1.265   2.242  20.389  0.00  0.00    +0.000 C 
ATOM     20  C   UNL     1       1.993   2.157  19.055  0.00  0.00    +0.000 C 
ATOM     21  C   UNL     1       3.182   3.122  18.979  0.00  0.00    +0.000 C 
ATOM     22  C   UNL     1       4.355   2.672  19.859  0.00  0.00    +0.000 C 
ENDBRANCH  12  13
ENDBRANCH   1  12
TORSDOF 4
ENDMDL
MODEL 8
REMARK VINA RESULT:      -7.1      2.324      3.655
REMARK  Name = 
REMARK  7 active torsions:
REMARK  status: ('A' for Active; 'I' for Inactive)
REMARK    1  A    between atoms: C_1  and  C_2
REMARK    2  A    between atoms: C_5  and  O_6
REMARK    3  A    between atoms: O_6  and  C_7
REMARK    4  A    between atoms: C_7  and  C_8
REMARK    5  A    between atoms: C_11  and  C_12
REMARK    6  A    between atoms: C_16  and  C_17
REMARK    7  A    between atoms: C_18  and  N_19
REMARK                            x       y       z     vdW  Elec       q    Type
REMARK                         _______ _______ _______ _____ _____    ______ ____
ROOT
ATOM      1  O   UNL     1       5.695   4.037  17.122  0.00  0.00    +0.000 OA
ENDROOT
BRANCH   1   6
ATOM      2  C   UNL     1       8.630   8.715  18.310  0.00  0.00    +0.000 C 
ATOM      3  C   UNL     1       7.851   7.463  18.039  0.00  0.00    +0.000 A 
ATOM      4  C   UNL     1       7.792   6.448  18.982  0.00  0.00    +0.000 A 
ATOM      5  C   UNL     1       7.057   5.298  18.698  0.00  0.00    +0.000 A 
ATOM      6  C   UNL     1       6.380   5.165  17.483  0.00  0.00    +0.000 A 
ATOM      7  C   UNL     1       6.501   6.233  16.583  0.00  0.00    +0.000 A 
ATOM      8  N   UNL     1       7.222   7.374  16.848  0.00  0.00    +0.000 NA
BRANCH   7   9
ATOM      9  N   UNL     1       5.796   6.094  15.302  0.00  0.00    +0.000 N 
ATOM     10  O   UNL     1       4.795   6.805  15.113  0.00  0.00    +0.000 OA
ATOM     11  O   UNL     1       6.269   5.292  14.481  0.00  0.00    +0.000 OA
ENDBRANCH   7   9
ENDBRANCH   1   6
BRANCH   1  12
ATOM     12  C   UNL     1       5.186   3.226  18.175  0.00  0.00    +0.000 C 
BRANCH  12  13
ATOM     13  C   UNL     1       3.664   3.005  18.122  0.00  0.00    +0.000 C 
ATOM     14  O   UNL     1       3.244   2.024  17.504  0.00  0.00    +0.000 OA
ATOM     15  N   UNL     1       2.832   3.884  18.822  0.00  0.00    +0.000 N 
ATOM     16  C   UNL     1       1.362   3.651  18.922  0.00  0.00    +0.000 C 
ATOM     17  C   UNL     1       0.855   2.224  18.668  0.00  0.00    +0.000 C 
ATOM     18  C   UNL     1       0.860   4.071  20.318  0.00  0.00    +0.000 C 
ATOM     19  C   UNL     1       1.272   5.488  20.697  0.00  0.00    +0.000 C 
ATOM     20  C   UNL     1       2.775   5.669  20.543  0.00  0.00    +0.000 C 
ATOM     21  C   UNL     1       3.272   5.260  19.152  0.00  0.00    +0.000 C 
ATOM     22  C   UNL     1       2.853   6.261  18.067  0.00  0.00    +0.000 C 
ENDBRANCH  12  13
ENDBRANCH   1  12
TORSDOF 4
ENDMDL
MODEL 9
REMARK VINA RESULT:      -7.1      1.245      2.218
REMARK  Name = 
REMARK  7 active torsions:
REMARK  status: ('A' for Active; 'I' for Inactive)
REMARK    1  A    between atoms: C_1  and  C_2
REMARK    2  A    between atoms: C_5  and  O_6
REMARK    3  A    between atoms: O_6  and  C_7
REMARK    4  A    between atoms: C_7  and  C_8
REMARK    5  A    between atoms: C_11  and  C_12
REMARK    6  A    between atoms: C_16  and  C_17
REMARK    7  A    between atoms: C_18  and  N_19
REMARK                            x       y       z     vdW  Elec       q    Type
REMARK                         _______ _______ _______ _____ _____    ______ ____
ROOT
ATOM      1  O   UNL     1       5.238   4.450  17.367  0.00  0.00    +0.000 OA
ENDROOT
BRANCH   1   6
ATOM      2  C   UNL     1       7.805   5.035  12.369  0.00  0.00    +0.000 C 
ATOM      3  C   UNL     1       7.105   4.841  13.681  0.00  0.00    +0.000 A 
ATOM      4  C   UNL     1       6.040   3.960  13.791  0.00  0.00    +0.000 A 
ATOM      5  C   UNL     1       5.413   3.803  15.027  0.00  0.00    +0.000 A 
ATOM      6  C   UNL     1       5.851   4.516  16.145  0.00  0.00    +0.000 A 
ATOM      7  C   UNL     1       6.926   5.392  15.943  0.00  0.00    +0.000 A 
ATOM      8  N   UNL     1       7.556   5.559  14.732  0.00  0.00    +0.000 NA
BRANCH   7   9
ATOM      9  N   UNL     1       7.384   6.149  17.116  0.00  0.00    +0.000 N 
ATOM     10  O   UNL     1       7.835   5.505  18.079  0.00  0.00    +0.000 OA
ATOM     11  O   UNL     1       7.316   7.387  17.053  0.00  0.00    +0.000 OA
ENDBRANCH   7   9
ENDBRANCH   1   6
BRANCH   1  12
ATOM     12  C   UNL     1       4.865   3.159  17.834  0.00  0.00    +0.000 C 
BRANCH  12  13
ATOM     13  C   UNL     1       3.346   2.951  17.970  0.00  0.00    +0.000 C 
ATOM     14  O   UNL     1       2.846   1.967  17.419  0.00  0.00    +0.000 OA
ATOM     15  N   UNL     1       2.612   3.844  18.757  0.00  0.00    +0.000 N 
ATOM     16  C   UNL     1       1.164   3.625  19.039  0.00  0.00    +0.000 C 
ATOM     17  C   UNL     1       0.619   2.200  18.864  0.00  0.00    +0.000 C 
ATOM     18  C   UNL     1       0.840   4.063  20.481  0.00  0.00    +0.000 C 
ATOM     19  C   UNL     1       1.306   5.480  20.791  0.00  0.00    +0.000 C 
ATOM     20  C   UNL     1       2.780   5.647  20.452  0.00  0.00    +0.000 C 
ATOM     21  C   UNL     1       3.100   5.219  19.015  0.00  0.00    +0.000 C 
ATOM     22  C   UNL     1       2.559   6.212  17.978  0.00  0.00    +0.000 C 
ENDBRANCH  12  13
ENDBRANCH   1  12
TORSDOF 4
ENDMDL
