MODEL 1
REMARK VINA RESULT:      -7.8      0.000      0.000
REMARK  Name = 
REMARK  7 active torsions:
REMARK  status: ('A' for Active; 'I' for Inactive)
REMARK    1  A    between atoms: C_1  and  C_2
REMARK    2  A    between atoms: C_6  and  C_8
REMARK    3  A    between atoms: C_8  and  S_9
REMARK    4  A    between atoms: S_9  and  C_10
REMARK    5  A    between atoms: C_14  and  N_15
REMARK    6  A    between atoms: C_16  and  C_18
REMARK    7  A    between atoms: C_23  and  O_24
REMARK                            x       y       z     vdW  Elec       q    Type
REMARK                         _______ _______ _______ _____ _____    ______ ____
ROOT
ATOM      1  C   UNL     1       2.380   6.793  18.946  0.00  0.00    +0.000 A 
ATOM      2  N   UNL     1       2.067   6.983  20.238  0.00  0.00    +0.000 NA
ATOM      3  C   UNL     1       1.607   8.200  20.563  0.00  0.00    +0.000 A 
ATOM      4  N   UNL     1       1.275   8.402  21.918  0.00  0.00    +0.000 N 
ATOM      5  C   UNL     1       1.429   9.228  19.645  0.00  0.00    +0.000 A 
ATOM      6  C   UNL     1       1.769   8.904  18.344  0.00  0.00    +0.000 A 
ATOM      7  N   UNL     1       2.249   7.706  17.975  0.00  0.00    +0.000 NA
ATOM      8  H   UNL     1       1.435   7.520  22.398  0.00  0.00    +0.000 HD
ATOM      9  H   UNL     1       0.302   8.688  22.011  0.00  0.00    +0.000 HD
ENDROOT
BRANCH   5  10
ATOM     10  N   UNL     1       0.992  10.491  20.115  0.00  0.00    +0.000 N 
ATOM     11  C   UNL     1      -0.237  11.049  19.824  0.00  0.00    +0.000 C 
ATOM     12  O   UNL     1      -1.001  10.555  19.001  0.00  0.00    +0.000 OA
ATOM     13  H   UNL     1       1.430  10.818  20.974  0.00  0.00    +0.000 HD
BRANCH  11  14
ATOM     14  C   UNL     1      -0.538  12.232  20.600  0.00  0.00    +0.000 A 
ATOM     15  C   UNL     1      -1.453  13.249  20.407  0.00  0.00    +0.000 A 
ATOM     16  C   UNL     1      -1.263  14.175  21.460  0.00  0.00    +0.000 A 
ATOM     17  C   UNL     1      -0.257  13.661  22.245  0.00  0.00    +0.000 A 
ATOM     18  O   UNL     1       0.173  12.474  21.748  0.00  0.00    +0.000 OA
ENDBRANCH  11  14
ENDBRANCH   5  10
BRANCH   6  19
ATOM     19  O   UNL     1       1.777   9.824  17.335  0.00  0.00    +0.000 OA
ATOM     20  H   UNL     1       1.324  10.619  17.665  0.00  0.00    +0.000 HD
ENDBRANCH   6  19
BRANCH   1  21
ATOM     21  S   UNL     1       3.164   5.264  18.497  0.00  0.00    +0.000 S 
BRANCH  21  22
ATOM     22  C   UNL     1       4.856   5.619  19.066  0.00  0.00    +0.000 C 
BRANCH  22  28
ATOM     23  C   UNL     1       7.123   4.148  12.135  0.00  0.00    +0.000 C 
ATOM     24  C   UNL     1       6.869   4.539  13.533  0.00  0.00    +0.000 A 
ATOM     25  C   UNL     1       5.866   4.300  14.442  0.00  0.00    +0.000 A 
ATOM     26  C   UNL     1       6.259   4.991  15.615  0.00  0.00    +0.000 A 
ATOM     27  N   UNL     1       5.516   5.030  16.780  0.00  0.00    +0.000 N 
ATOM     28  C   UNL     1       5.855   5.736  17.913  0.00  0.00    +0.000 C 
ATOM     29  O   UNL     1       6.896   6.367  18.089  0.00  0.00    +0.000 OA
ATOM     30  N   UNL     1       7.432   5.610  15.415  0.00  0.00    +0.000 NA
ATOM     31  O   UNL     1       7.807   5.327  14.112  0.00  0.00    +0.000 OA
ATOM     32  H   UNL     1       4.623   4.554  16.762  0.00  0.00    +0.000 HD
ENDBRANCH  22  28
ENDBRANCH  21  22
ENDBRANCH   1  21
TORSDOF 6
ENDMDL
MODEL 2
REMARK VINA RESULT:      -7.8      1.061      1.248
REMARK  Name = 
REMARK  7 active torsions:
REMARK  status: ('A' for Active; 'I' for Inactive)
REMARK    1  A    between atoms: C_1  and  C_2
REMARK    2  A    between atoms: C_6  and  C_8
REMARK    3  A    between atoms: C_8  and  S_9
REMARK    4  A    between atoms: S_9  and  C_10
REMARK    5  A    between atoms: C_14  and  N_15
REMARK    6  A    between atoms: C_16  and  C_18
REMARK    7  A    between atoms: C_23  and  O_24
REMARK                            x       y       z     vdW  Elec       q    Type
REMARK                         _______ _______ _______ _____ _____    ______ ____
ROOT
ATOM      1  C   UNL     1       2.978   6.079  19.099  0.00  0.00    +0.000 A 
ATOM      2  N   UNL     1       2.418   6.381  20.281  0.00  0.00    +0.000 NA
ATOM      3  C   UNL     1       1.834   7.584  20.370  0.00  0.00    +0.000 A 
ATOM      4  N   UNL     1       1.244   7.904  21.610  0.00  0.00    +0.000 N 
ATOM      5  C   UNL     1       1.770   8.491  19.318  0.00  0.00    +0.000 A 
ATOM      6  C   UNL     1       2.366   8.056  18.147  0.00  0.00    +0.000 A 
ATOM      7  N   UNL     1       2.976   6.868  18.017  0.00  0.00    +0.000 NA
ATOM      8  H   UNL     1       1.363   7.095  22.213  0.00  0.00    +0.000 HD
ATOM      9  H   UNL     1       0.255   8.119  21.492  0.00  0.00    +0.000 HD
ENDROOT
BRANCH   5  10
ATOM     10  N   UNL     1       1.180   9.757  19.547  0.00  0.00    +0.000 N 
ATOM     11  C   UNL     1       0.096  10.250  18.848  0.00  0.00    +0.000 C 
ATOM     12  O   UNL     1      -0.356   9.684  17.856  0.00  0.00    +0.000 OA
ATOM     13  H   UNL     1       1.314  10.145  20.478  0.00  0.00    +0.000 HD
BRANCH  11  14
ATOM     14  C   UNL     1      -0.462  11.458  19.414  0.00  0.00    +0.000 A 
ATOM     15  C   UNL     1       0.110  12.476  20.153  0.00  0.00    +0.000 A 
ATOM     16  C   UNL     1      -0.933  13.374  20.486  0.00  0.00    +0.000 A 
ATOM     17  C   UNL     1      -2.075  12.863  19.916  0.00  0.00    +0.000 A 
ATOM     18  O   UNL     1      -1.799  11.716  19.245  0.00  0.00    +0.000 OA
ENDBRANCH  11  14
ENDBRANCH   5  10
BRANCH   6  19
ATOM     19  O   UNL     1       2.508   8.860  17.052  0.00  0.00    +0.000 OA
ATOM     20  H   UNL     1       1.825   9.550  17.110  0.00  0.00    +0.000 HD
ENDBRANCH   6  19
BRANCH   1  21
ATOM     21  S   UNL     1       3.921   4.578  18.985  0.00  0.00    +0.000 S 
BRANCH  21  22
ATOM     22  C   UNL     1       5.586   5.249  19.283  0.00  0.00    +0.000 C 
BRANCH  22  28
ATOM     23  C   UNL     1       6.983   4.005  12.083  0.00  0.00    +0.000 C 
ATOM     24  C   UNL     1       6.883   4.385  13.503  0.00  0.00    +0.000 A 
ATOM     25  C   UNL     1       6.089   4.000  14.558  0.00  0.00    +0.000 A 
ATOM     26  C   UNL     1       6.530   4.781  15.655  0.00  0.00    +0.000 A 
ATOM     27  N   UNL     1       5.980   4.722  16.922  0.00  0.00    +0.000 N 
ATOM     28  C   UNL     1       6.360   5.506  17.988  0.00  0.00    +0.000 C 
ATOM     29  O   UNL     1       7.288   6.313  17.999  0.00  0.00    +0.000 OA
ATOM     30  N   UNL     1       7.531   5.588  15.274  0.00  0.00    +0.000 NA
ATOM     31  O   UNL     1       7.746   5.339  13.928  0.00  0.00    +0.000 OA
ATOM     32  H   UNL     1       5.193   4.097  17.043  0.00  0.00    +0.000 HD
ENDBRANCH  22  28
ENDBRANCH  21  22
ENDBRANCH   1  21
TORSDOF 6
ENDMDL
MODEL 3
REMARK VINA RESULT:      -7.6      1.557      1.790
REMARK  Name = 
REMARK  7 active torsions:
REMARK  status: ('A' for Active; 'I' for Inactive)
REMARK    1  A    between atoms: C_1  and  C_2
REMARK    2  A    between atoms: C_6  and  C_8
REMARK    3  A    between atoms: C_8  and  S_9
REMARK    4  A    between atoms: S_9  and  C_10
REMARK    5  A    between atoms: C_14  and  N_15
REMARK    6  A    between atoms: C_16  and  C_18
REMARK    7  A    between atoms: C_23  and  O_24
REMARK                            x       y       z     vdW  Elec       q    Type
REMARK                         _______ _______ _______ _____ _____    ______ ____
ROOT
ATOM      1  C   UNL     1       2.600   5.201  18.885  0.00  0.00    +0.000 A 
ATOM      2  N   UNL     1       2.111   5.625  20.061  0.00  0.00    +0.000 NA
ATOM      3  C   UNL     1       1.903   6.944  20.176  0.00  0.00    +0.000 A 
ATOM      4  N   UNL     1       1.387   7.392  21.409  0.00  0.00    +0.000 N 
ATOM      5  C   UNL     1       2.147   7.855  19.154  0.00  0.00    +0.000 A 
ATOM      6  C   UNL     1       2.631   7.294  17.985  0.00  0.00    +0.000 A 
ATOM      7  N   UNL     1       2.871   5.983  17.832  0.00  0.00    +0.000 NA
ATOM      8  H   UNL     1       1.241   6.569  21.986  0.00  0.00    +0.000 HD
ATOM      9  H   UNL     1       0.510   7.892  21.271  0.00  0.00    +0.000 HD
ENDROOT
BRANCH   5  10
ATOM     10  N   UNL     1       1.946   9.233  19.411  0.00  0.00    +0.000 N 
ATOM     11  C   UNL     1       1.001  10.015  18.776  0.00  0.00    +0.000 C 
ATOM     12  O   UNL     1       0.351   9.607  17.817  0.00  0.00    +0.000 OA
ATOM     13  H   UNL     1       2.238   9.559  20.329  0.00  0.00    +0.000 HD
BRANCH  11  14
ATOM     14  C   UNL     1       0.835  11.325  19.367  0.00  0.00    +0.000 A 
ATOM     15  C   UNL     1       0.839  11.745  20.684  0.00  0.00    +0.000 A 
ATOM     16  C   UNL     1       0.570  13.135  20.668  0.00  0.00    +0.000 A 
ATOM     17  C   UNL     1       0.437  13.485  19.345  0.00  0.00    +0.000 A 
ATOM     18  O   UNL     1       0.619  12.402  18.547  0.00  0.00    +0.000 OA
ENDBRANCH  11  14
ENDBRANCH   5  10
BRANCH   6  19
ATOM     19  O   UNL     1       3.043   8.048  16.924  0.00  0.00    +0.000 OA
ATOM     20  H   UNL     1       2.250   8.451  16.531  0.00  0.00    +0.000 HD
ENDBRANCH   6  19
BRANCH   1  21
ATOM     21  S   UNL     1       3.065   3.493  18.745  0.00  0.00    +0.000 S 
BRANCH  21  22
ATOM     22  C   UNL     1       4.752   3.587  19.420  0.00  0.00    +0.000 C 
BRANCH  22  28
ATOM     23  C   UNL     1       7.356   4.856  12.568  0.00  0.00    +0.000 C 
ATOM     24  C   UNL     1       7.017   4.715  13.996  0.00  0.00    +0.000 A 
ATOM     25  C   UNL     1       6.043   4.051  14.702  0.00  0.00    +0.000 A 
ATOM     26  C   UNL     1       6.304   4.353  16.062  0.00  0.00    +0.000 A 
ATOM     27  N   UNL     1       5.540   3.897  17.120  0.00  0.00    +0.000 N 
ATOM     28  C   UNL     1       5.746   4.218  18.443  0.00  0.00    +0.000 C 
ATOM     29  O   UNL     1       6.676   4.887  18.890  0.00  0.00    +0.000 OA
ATOM     30  N   UNL     1       7.374   5.155  16.160  0.00  0.00    +0.000 NA
ATOM     31  O   UNL     1       7.815   5.381  14.866  0.00  0.00    +0.000 OA
ATOM     32  H   UNL     1       4.729   3.339  16.883  0.00  0.00    +0.000 HD
ENDBRANCH  22  28
ENDBRANCH  21  22
ENDBRANCH   1  21
TORSDOF 6
ENDMDL
MODEL 4
REMARK VINA RESULT:      -7.5      1.046      1.703
REMARK  Name = 
REMARK  7 active torsions:
REMARK  status: ('A' for Active; 'I' for Inactive)
REMARK    1  A    between atoms: C_1  and  C_2
REMARK    2  A    between atoms: C_6  and  C_8
REMARK    3  A    between atoms: C_8  and  S_9
REMARK    4  A    between atoms: S_9  and  C_10
REMARK    5  A    between atoms: C_14  and  N_15
REMARK    6  A    between atoms: C_16  and  C_18
REMARK    7  A    between atoms: C_23  and  O_24
REMARK                            x       y       z     vdW  Elec       q    Type
REMARK                         _______ _______ _______ _____ _____    ______ ____
ROOT
ATOM      1  C   UNL     1       2.395   6.915  19.123  0.00  0.00    +0.000 A 
ATOM      2  N   UNL     1       2.420   7.864  18.173  0.00  0.00    +0.000 NA
ATOM      3  C   UNL     1       1.852   9.036  18.490  0.00  0.00    +0.000 A 
ATOM      4  N   UNL     1       1.879  10.035  17.496  0.00  0.00    +0.000 N 
ATOM      5  C   UNL     1       1.275   9.304  19.726  0.00  0.00    +0.000 A 
ATOM      6  C   UNL     1       1.328   8.254  20.627  0.00  0.00    +0.000 A 
ATOM      7  N   UNL     1       1.871   7.059  20.347  0.00  0.00    +0.000 NA
ATOM      8  H   UNL     1       2.382   9.649  16.701  0.00  0.00    +0.000 HD
ATOM      9  H   UNL     1       2.345  10.873  17.841  0.00  0.00    +0.000 HD
ENDROOT
BRANCH   5  10
ATOM     10  N   UNL     1       0.651  10.559  19.927  0.00  0.00    +0.000 N 
ATOM     11  C   UNL     1      -0.667  10.833  19.619  0.00  0.00    +0.000 C 
ATOM     12  O   UNL     1      -1.372  10.042  18.998  0.00  0.00    +0.000 OA
ATOM     13  H   UNL     1       1.064  11.148  20.647  0.00  0.00    +0.000 HD
BRANCH  11  14
ATOM     14  C   UNL     1      -1.131  12.107  20.123  0.00  0.00    +0.000 A 
ATOM     15  C   UNL     1      -2.404  12.615  20.303  0.00  0.00    +0.000 A 
ATOM     16  C   UNL     1      -2.250  13.940  20.777  0.00  0.00    +0.000 A 
ATOM     17  C   UNL     1      -0.896  14.157  20.876  0.00  0.00    +0.000 A 
ATOM     18  O   UNL     1      -0.209  13.047  20.506  0.00  0.00    +0.000 OA
ENDBRANCH  11  14
ENDBRANCH   5  10
BRANCH   6  19
ATOM     19  O   UNL     1       0.704   8.295  21.840  0.00  0.00    +0.000 OA
ATOM     20  H   UNL     1       0.679   9.225  22.122  0.00  0.00    +0.000 HD
ENDBRANCH   6  19
BRANCH   1  21
ATOM     21  S   UNL     1       2.969   5.291  18.691  0.00  0.00    +0.000 S 
BRANCH  21  22
ATOM     22  C   UNL     1       4.690   5.420  19.267  0.00  0.00    +0.000 C 
BRANCH  22  28
ATOM     23  C   UNL     1       7.020   4.123  12.322  0.00  0.00    +0.000 C 
ATOM     24  C   UNL     1       6.750   4.486  13.725  0.00  0.00    +0.000 A 
ATOM     25  C   UNL     1       5.754   4.200  14.628  0.00  0.00    +0.000 A 
ATOM     26  C   UNL     1       6.121   4.889  15.811  0.00  0.00    +0.000 A 
ATOM     27  N   UNL     1       5.375   4.886  16.975  0.00  0.00    +0.000 N 
ATOM     28  C   UNL     1       5.687   5.588  18.118  0.00  0.00    +0.000 C 
ATOM     29  O   UNL     1       6.704   6.252  18.305  0.00  0.00    +0.000 OA
ATOM     30  N   UNL     1       7.271   5.551  15.622  0.00  0.00    +0.000 NA
ATOM     31  O   UNL     1       7.659   5.299  14.316  0.00  0.00    +0.000 OA
ATOM     32  H   UNL     1       4.499   4.379  16.948  0.00  0.00    +0.000 HD
ENDBRANCH  22  28
ENDBRANCH  21  22
ENDBRANCH   1  21
TORSDOF 6
ENDMDL
MODEL 5
REMARK VINA RESULT:      -7.5      3.406      8.912
REMARK  Name = 
REMARK  7 active torsions:
REMARK  status: ('A' for Active; 'I' for Inactive)
REMARK    1  A    between atoms: C_1  and  C_2
REMARK    2  A    between atoms: C_6  and  C_8
REMARK    3  A    between atoms: C_8  and  S_9
REMARK    4  A    between atoms: S_9  and  C_10
REMARK    5  A    between atoms: C_14  and  N_15
REMARK    6  A    between atoms: C_16  and  C_18
REMARK    7  A    between atoms: C_23  and  O_24
REMARK                            x       y       z     vdW  Elec       q    Type
REMARK                         _______ _______ _______ _____ _____    ______ ____
ROOT
ATOM      1  C   UNL     1       0.370   9.397  20.688  0.00  0.00    +0.000 A 
ATOM      2  N   UNL     1       0.808   9.894  19.521  0.00  0.00    +0.000 NA
ATOM      3  C   UNL     1       1.699   9.146  18.854  0.00  0.00    +0.000 A 
ATOM      4  N   UNL     1       2.159   9.665  17.626  0.00  0.00    +0.000 N 
ATOM      5  C   UNL     1       2.156   7.911  19.299  0.00  0.00    +0.000 A 
ATOM      6  C   UNL     1       1.617   7.499  20.505  0.00  0.00    +0.000 A 
ATOM      7  N   UNL     1       0.737   8.221  21.215  0.00  0.00    +0.000 NA
ATOM      8  H   UNL     1       1.668  10.542  17.472  0.00  0.00    +0.000 HD
ATOM      9  H   UNL     1       1.970   9.012  16.867  0.00  0.00    +0.000 HD
ENDROOT
BRANCH   5  10
ATOM     10  N   UNL     1       3.144   7.238  18.540  0.00  0.00    +0.000 N 
ATOM     11  C   UNL     1       2.971   5.996  17.963  0.00  0.00    +0.000 C 
ATOM     12  O   UNL     1       1.987   5.299  18.191  0.00  0.00    +0.000 OA
ATOM     13  H   UNL     1       3.844   7.832  18.101  0.00  0.00    +0.000 HD
BRANCH  11  14
ATOM     14  C   UNL     1       4.033   5.623  17.054  0.00  0.00    +0.000 A 
ATOM     15  C   UNL     1       4.884   6.383  16.274  0.00  0.00    +0.000 A 
ATOM     16  C   UNL     1       5.684   5.475  15.539  0.00  0.00    +0.000 A 
ATOM     17  C   UNL     1       5.288   4.217  15.926  0.00  0.00    +0.000 A 
ATOM     18  O   UNL     1       4.306   4.293  16.860  0.00  0.00    +0.000 OA
ENDBRANCH  11  14
ENDBRANCH   5  10
BRANCH   6  19
ATOM     19  O   UNL     1       2.043   6.375  21.154  0.00  0.00    +0.000 OA
ATOM     20  H   UNL     1       1.653   5.611  20.695  0.00  0.00    +0.000 HD
ENDBRANCH   6  19
BRANCH   1  21
ATOM     21  S   UNL     1      -0.667  10.428  21.695  0.00  0.00    +0.000 S 
BRANCH  21  22
ATOM     22  C   UNL     1      -0.737  11.906  20.635  0.00  0.00    +0.000 C 
BRANCH  22  28
ATOM     23  C   UNL     1      -3.883  10.090  14.143  0.00  0.00    +0.000 C 
ATOM     24  C   UNL     1      -3.449  10.556  15.472  0.00  0.00    +0.000 A 
ATOM     25  C   UNL     1      -2.277  10.492  16.189  0.00  0.00    +0.000 A 
ATOM     26  C   UNL     1      -2.559  11.146  17.414  0.00  0.00    +0.000 A 
ATOM     27  N   UNL     1      -1.650  11.291  18.445  0.00  0.00    +0.000 N 
ATOM     28  C   UNL     1      -1.917  11.879  19.661  0.00  0.00    +0.000 C 
ATOM     29  O   UNL     1      -2.968  12.429  19.984  0.00  0.00    +0.000 OA
ATOM     30  N   UNL     1      -3.829  11.575  17.426  0.00  0.00    +0.000 NA
ATOM     31  O   UNL     1      -4.382  11.202  16.212  0.00  0.00    +0.000 OA
ATOM     32  H   UNL     1      -0.741  10.867  18.307  0.00  0.00    +0.000 HD
ENDBRANCH  22  28
ENDBRANCH  21  22
ENDBRANCH   1  21
TORSDOF 6
ENDMDL
MODEL 6
REMARK VINA RESULT:      -7.4      2.711      3.919
REMARK  Name = 
REMARK  7 active torsions:
REMARK  status: ('A' for Active; 'I' for Inactive)
REMARK    1  A    between atoms: C_1  and  C_2
REMARK    2  A    between atoms: C_6  and  C_8
REMARK    3  A    between atoms: C_8  and  S_9
REMARK    4  A    between atoms: S_9  and  C_10
REMARK    5  A    between atoms: C_14  and  N_15
REMARK    6  A    between atoms: C_16  and  C_18
REMARK    7  A    between atoms: C_23  and  O_24
REMARK                            x       y       z     vdW  Elec       q    Type
REMARK                         _______ _______ _______ _____ _____    ______ ____
ROOT
ATOM      1  C   UNL     1       3.650   5.307  17.922  0.00  0.00    +0.000 A 
ATOM      2  N   UNL     1       3.163   4.879  19.098  0.00  0.00    +0.000 NA
ATOM      3  C   UNL     1       2.575   5.805  19.869  0.00  0.00    +0.000 A 
ATOM      4  N   UNL     1       2.061   5.358  21.103  0.00  0.00    +0.000 N 
ATOM      5  C   UNL     1       2.438   7.139  19.504  0.00  0.00    +0.000 A 
ATOM      6  C   UNL     1       2.963   7.453  18.262  0.00  0.00    +0.000 A 
ATOM      7  N   UNL     1       3.575   6.564  17.465  0.00  0.00    +0.000 NA
ATOM      8  H   UNL     1       2.223   4.355  21.147  0.00  0.00    +0.000 HD
ATOM      9  H   UNL     1       1.064   5.560  21.171  0.00  0.00    +0.000 HD
ENDROOT
BRANCH   5  10
ATOM     10  N   UNL     1       1.853   8.040  20.426  0.00  0.00    +0.000 N 
ATOM     11  C   UNL     1       0.916   8.998  20.093  0.00  0.00    +0.000 C 
ATOM     12  O   UNL     1       0.622   9.249  18.928  0.00  0.00    +0.000 OA
ATOM     13  H   UNL     1       1.839   7.732  21.396  0.00  0.00    +0.000 HD
BRANCH  11  14
ATOM     14  C   UNL     1       0.303   9.637  21.237  0.00  0.00    +0.000 A 
ATOM     15  C   UNL     1      -0.243   9.118  22.396  0.00  0.00    +0.000 A 
ATOM     16  C   UNL     1      -0.748  10.215  23.135  0.00  0.00    +0.000 A 
ATOM     17  C   UNL     1      -0.465  11.338  22.395  0.00  0.00    +0.000 A 
ATOM     18  O   UNL     1       0.192  11.003  21.255  0.00  0.00    +0.000 OA
ENDBRANCH  11  14
ENDBRANCH   5  10
BRANCH   6  19
ATOM     19  O   UNL     1       3.030   8.735  17.796  0.00  0.00    +0.000 OA
ATOM     20  H   UNL     1       2.510   8.771  16.975  0.00  0.00    +0.000 HD
ENDBRANCH   6  19
BRANCH   1  21
ATOM     21  S   UNL     1       4.597   4.163  16.948  0.00  0.00    +0.000 S 
BRANCH  21  22
ATOM     22  C   UNL     1       5.727   5.332  16.130  0.00  0.00    +0.000 C 
BRANCH  22  28
ATOM     23  C   UNL     1       9.345  11.223  18.879  0.00  0.00    +0.000 C 
ATOM     24  C   UNL     1       8.750   9.936  18.475  0.00  0.00    +0.000 A 
ATOM     25  C   UNL     1       7.855   9.541  17.508  0.00  0.00    +0.000 A 
ATOM     26  C   UNL     1       7.720   8.141  17.683  0.00  0.00    +0.000 A 
ATOM     27  N   UNL     1       6.891   7.339  16.921  0.00  0.00    +0.000 N 
ATOM     28  C   UNL     1       6.707   5.987  17.106  0.00  0.00    +0.000 C 
ATOM     29  O   UNL     1       7.304   5.279  17.914  0.00  0.00    +0.000 OA
ATOM     30  N   UNL     1       8.490   7.726  18.699  0.00  0.00    +0.000 NA
ATOM     31  O   UNL     1       9.130   8.852  19.192  0.00  0.00    +0.000 OA
ATOM     32  H   UNL     1       6.330   7.807  16.220  0.00  0.00    +0.000 HD
ENDBRANCH  22  28
ENDBRANCH  21  22
ENDBRANCH   1  21
TORSDOF 6
ENDMDL
MODEL 7
REMARK VINA RESULT:      -7.4      2.529      8.685
REMARK  Name = 
REMARK  7 active torsions:
REMARK  status: ('A' for Active; 'I' for Inactive)
REMARK    1  A    between atoms: C_1  and  C_2
REMARK    2  A    between atoms: C_6  and  C_8
REMARK    3  A    between atoms: C_8  and  S_9
REMARK    4  A    between atoms: S_9  and  C_10
REMARK    5  A    between atoms: C_14  and  N_15
REMARK    6  A    between atoms: C_16  and  C_18
REMARK    7  A    between atoms: C_23  and  O_24
REMARK                            x       y       z     vdW  Elec       q    Type
REMARK                         _______ _______ _______ _____ _____    ______ ____
ROOT
ATOM      1  C   UNL     1       1.488   7.975  20.427  0.00  0.00    +0.000 A 
ATOM      2  N   UNL     1       1.953   6.730  20.617  0.00  0.00    +0.000 NA
ATOM      3  C   UNL     1       2.646   6.194  19.602  0.00  0.00    +0.000 A 
ATOM      4  N   UNL     1       3.137   4.887  19.800  0.00  0.00    +0.000 N 
ATOM      5  C   UNL     1       2.908   6.860  18.411  0.00  0.00    +0.000 A 
ATOM      6  C   UNL     1       2.392   8.142  18.342  0.00  0.00    +0.000 A 
ATOM      7  N   UNL     1       1.679   8.712  19.325  0.00  0.00    +0.000 NA
ATOM      8  H   UNL     1       2.876   4.612  20.743  0.00  0.00    +0.000 HD
ATOM      9  H   UNL     1       4.150   4.864  19.689  0.00  0.00    +0.000 HD
ENDROOT
BRANCH   5  10
ATOM     10  N   UNL     1       3.599   6.170  17.385  0.00  0.00    +0.000 N 
ATOM     11  C   UNL     1       4.883   6.467  16.973  0.00  0.00    +0.000 C 
ATOM     12  O   UNL     1       5.482   7.463  17.368  0.00  0.00    +0.000 OA
ATOM     13  H   UNL     1       3.293   5.216  17.210  0.00  0.00    +0.000 HD
BRANCH  11  14
ATOM     14  C   UNL     1       5.450   5.484  16.077  0.00  0.00    +0.000 A 
ATOM     15  C   UNL     1       5.254   4.120  15.966  0.00  0.00    +0.000 A 
ATOM     16  C   UNL     1       6.122   3.666  14.944  0.00  0.00    +0.000 A 
ATOM     17  C   UNL     1       6.782   4.779  14.479  0.00  0.00    +0.000 A 
ATOM     18  O   UNL     1       6.366   5.889  15.140  0.00  0.00    +0.000 OA
ENDBRANCH  11  14
ENDBRANCH   5  10
BRANCH   6  19
ATOM     19  O   UNL     1       2.445   8.895  17.204  0.00  0.00    +0.000 OA
ATOM     20  H   UNL     1       1.555   9.258  17.056  0.00  0.00    +0.000 HD
ENDBRANCH   6  19
BRANCH   1  21
ATOM     21  S   UNL     1       0.413   8.659  21.663  0.00  0.00    +0.000 S 
BRANCH  21  22
ATOM     22  C   UNL     1      -0.384   9.964  20.676  0.00  0.00    +0.000 C 
BRANCH  22  28
ATOM     23  C   UNL     1       3.697  15.370  17.599  0.00  0.00    +0.000 C 
ATOM     24  C   UNL     1       2.917  14.408  18.399  0.00  0.00    +0.000 A 
ATOM     25  C   UNL     1       2.313  13.199  18.146  0.00  0.00    +0.000 A 
ATOM     26  C   UNL     1       1.724  12.818  19.377  0.00  0.00    +0.000 A 
ATOM     27  N   UNL     1       0.993  11.659  19.563  0.00  0.00    +0.000 N 
ATOM     28  C   UNL     1       0.371  11.294  20.736  0.00  0.00    +0.000 C 
ATOM     29  O   UNL     1       0.436  11.894  21.807  0.00  0.00    +0.000 OA
ATOM     30  N   UNL     1       1.963  13.749  20.312  0.00  0.00    +0.000 NA
ATOM     31  O   UNL     1       2.706  14.742  19.695  0.00  0.00    +0.000 OA
ATOM     32  H   UNL     1       0.855  11.078  18.746  0.00  0.00    +0.000 HD
ENDBRANCH  22  28
ENDBRANCH  21  22
ENDBRANCH   1  21
TORSDOF 6
ENDMDL
MODEL 8
REMARK VINA RESULT:      -7.4      1.235      1.963
REMARK  Name = 
REMARK  7 active torsions:
REMARK  status: ('A' for Active; 'I' for Inactive)
REMARK    1  A    between atoms: C_1  and  C_2
REMARK    2  A    between atoms: C_6  and  C_8
REMARK    3  A    between atoms: C_8  and  S_9
REMARK    4  A    between atoms: S_9  and  C_10
REMARK    5  A    between atoms: C_14  and  N_15
REMARK    6  A    between atoms: C_16  and  C_18
REMARK    7  A    between atoms: C_23  and  O_24
REMARK                            x       y       z     vdW  Elec       q    Type
REMARK                         _______ _______ _______ _____ _____    ______ ____
ROOT
ATOM      1  C   UNL     1       2.541   6.750  19.207  0.00  0.00    +0.000 A 
ATOM      2  N   UNL     1       2.608   7.662  18.223  0.00  0.00    +0.000 NA
ATOM      3  C   UNL     1       1.958   8.815  18.439  0.00  0.00    +0.000 A 
ATOM      4  N   UNL     1       2.028   9.775  17.409  0.00  0.00    +0.000 N 
ATOM      5  C   UNL     1       1.260   9.100  19.606  0.00  0.00    +0.000 A 
ATOM      6  C   UNL     1       1.281   8.090  20.552  0.00  0.00    +0.000 A 
ATOM      7  N   UNL     1       1.902   6.914  20.373  0.00  0.00    +0.000 NA
ATOM      8  H   UNL     1       2.618   9.385  16.679  0.00  0.00    +0.000 HD
ATOM      9  H   UNL     1       2.421  10.647  17.757  0.00  0.00    +0.000 HD
ENDROOT
BRANCH   5  10
ATOM     10  N   UNL     1       0.562  10.329  19.697  0.00  0.00    +0.000 N 
ATOM     11  C   UNL     1       0.741  11.255  20.705  0.00  0.00    +0.000 C 
ATOM     12  O   UNL     1       1.421  11.017  21.699  0.00  0.00    +0.000 OA
ATOM     13  H   UNL     1       0.205  10.700  18.819  0.00  0.00    +0.000 HD
BRANCH  11  14
ATOM     14  C   UNL     1       0.086  12.521  20.457  0.00  0.00    +0.000 A 
ATOM     15  C   UNL     1      -0.698  13.323  21.264  0.00  0.00    +0.000 A 
ATOM     16  C   UNL     1      -1.114  14.418  20.468  0.00  0.00    +0.000 A 
ATOM     17  C   UNL     1      -0.546  14.231  19.231  0.00  0.00    +0.000 A 
ATOM     18  O   UNL     1       0.203  13.098  19.218  0.00  0.00    +0.000 OA
ENDBRANCH  11  14
ENDBRANCH   5  10
BRANCH   6  19
ATOM     19  O   UNL     1       0.548   8.145  21.702  0.00  0.00    +0.000 OA
ATOM     20  H   UNL     1      -0.319   8.524  21.476  0.00  0.00    +0.000 HD
ENDBRANCH   6  19
BRANCH   1  21
ATOM     21  S   UNL     1       3.227   5.142  18.898  0.00  0.00    +0.000 S 
BRANCH  21  22
ATOM     22  C   UNL     1       4.953   5.455  19.383  0.00  0.00    +0.000 C 
BRANCH  22  28
ATOM     23  C   UNL     1       6.953   4.099  12.347  0.00  0.00    +0.000 C 
ATOM     24  C   UNL     1       6.746   4.480  13.756  0.00  0.00    +0.000 A 
ATOM     25  C   UNL     1       5.808   4.181  14.716  0.00  0.00    +0.000 A 
ATOM     26  C   UNL     1       6.216   4.902  15.866  0.00  0.00    +0.000 A 
ATOM     27  N   UNL     1       5.532   4.899  17.068  0.00  0.00    +0.000 N 
ATOM     28  C   UNL     1       5.883   5.630  18.180  0.00  0.00    +0.000 C 
ATOM     29  O   UNL     1       6.888   6.327  18.302  0.00  0.00    +0.000 OA
ATOM     30  N   UNL     1       7.334   5.593  15.605  0.00  0.00    +0.000 NA
ATOM     31  O   UNL     1       7.661   5.328  14.285  0.00  0.00    +0.000 OA
ATOM     32  H   UNL     1       4.671   4.367  17.095  0.00  0.00    +0.000 HD
ENDBRANCH  22  28
ENDBRANCH  21  22
ENDBRANCH   1  21
TORSDOF 6
ENDMDL
MODEL 9
REMARK VINA RESULT:      -7.4      2.907      8.953
REMARK  Name = 
REMARK  7 active torsions:
REMARK  status: ('A' for Active; 'I' for Inactive)
REMARK    1  A    between atoms: C_1  and  C_2
REMARK    2  A    between atoms: C_6  and  C_8
REMARK    3  A    between atoms: C_8  and  S_9
REMARK    4  A    between atoms: S_9  and  C_10
REMARK    5  A    between atoms: C_14  and  N_15
REMARK    6  A    between atoms: C_16  and  C_18
REMARK    7  A    between atoms: C_23  and  O_24
REMARK                            x       y       z     vdW  Elec       q    Type
REMARK                         _______ _______ _______ _____ _____    ______ ____
ROOT
ATOM      1  C   UNL     1       1.190   7.833  20.522  0.00  0.00    +0.000 A 
ATOM      2  N   UNL     1       1.598   8.488  19.423  0.00  0.00    +0.000 NA
ATOM      3  C   UNL     1       2.532   7.877  18.681  0.00  0.00    +0.000 A 
ATOM      4  N   UNL     1       2.961   8.560  17.525  0.00  0.00    +0.000 N 
ATOM      5  C   UNL     1       3.062   6.627  18.984  0.00  0.00    +0.000 A 
ATOM      6  C   UNL     1       2.548   6.046  20.130  0.00  0.00    +0.000 A 
ATOM      7  N   UNL     1       1.626   6.628  20.912  0.00  0.00    +0.000 NA
ATOM      8  H   UNL     1       2.419   9.419  17.470  0.00  0.00    +0.000 HD
ATOM      9  H   UNL     1       2.811   7.990  16.694  0.00  0.00    +0.000 HD
ENDROOT
BRANCH   5  10
ATOM     10  N   UNL     1       4.088   6.107  18.159  0.00  0.00    +0.000 N 
ATOM     11  C   UNL     1       3.958   4.983  17.367  0.00  0.00    +0.000 C 
ATOM     12  O   UNL     1       2.976   4.248  17.431  0.00  0.00    +0.000 OA
ATOM     13  H   UNL     1       4.795   6.774  17.859  0.00  0.00    +0.000 HD
BRANCH  11  14
ATOM     14  C   UNL     1       5.058   4.784  16.450  0.00  0.00    +0.000 A 
ATOM     15  C   UNL     1       6.372   5.213  16.485  0.00  0.00    +0.000 A 
ATOM     16  C   UNL     1       6.978   4.766  15.286  0.00  0.00    +0.000 A 
ATOM     17  C   UNL     1       6.007   4.078  14.599  0.00  0.00    +0.000 A 
ATOM     18  O   UNL     1       4.847   4.061  15.304  0.00  0.00    +0.000 OA
ENDBRANCH  11  14
ENDBRANCH   5  10
BRANCH   6  19
ATOM     19  O   UNL     1       3.039   4.882  20.647  0.00  0.00    +0.000 OA
ATOM     20  H   UNL     1       3.395   4.363  19.905  0.00  0.00    +0.000 HD
ENDBRANCH   6  19
BRANCH   1  21
ATOM     21  S   UNL     1       0.093   8.678  21.634  0.00  0.00    +0.000 S 
BRANCH  21  22
ATOM     22  C   UNL     1       0.389  10.392  21.100  0.00  0.00    +0.000 C 
BRANCH  22  28
ATOM     23  C   UNL     1      -3.652  10.260  14.856  0.00  0.00    +0.000 C 
ATOM     24  C   UNL     1      -2.962  10.471  16.141  0.00  0.00    +0.000 A 
ATOM     25  C   UNL     1      -1.922   9.857  16.798  0.00  0.00    +0.000 A 
ATOM     26  C   UNL     1      -1.776  10.577  18.010  0.00  0.00    +0.000 A 
ATOM     27  N   UNL     1      -0.845  10.274  18.986  0.00  0.00    +0.000 N 
ATOM     28  C   UNL     1      -0.719  10.928  20.191  0.00  0.00    +0.000 C 
ATOM     29  O   UNL     1      -1.353  11.919  20.547  0.00  0.00    +0.000 OA
ATOM     30  N   UNL     1      -2.681  11.564  18.072  0.00  0.00    +0.000 NA
ATOM     31  O   UNL     1      -3.421  11.493  16.904  0.00  0.00    +0.000 OA
ATOM     32  H   UNL     1      -0.262   9.464  18.817  0.00  0.00    +0.000 HD
ENDBRANCH  22  28
ENDBRANCH  21  22
ENDBRANCH   1  21
TORSDOF 6
ENDMDL
