MODEL 1
REMARK VINA RESULT:      -7.4      0.000      0.000
REMARK  Name = 
REMARK  10 active torsions:
REMARK  status: ('A' for Active; 'I' for Inactive)
REMARK    1  A    between atoms: C_1  and  O_2
REMARK    2  A    between atoms: O_2  and  C_3
REMARK    3  A    between atoms: C_5  and  N_6
REMARK    4  A    between atoms: N_6  and  C_7
REMARK    5  A    between atoms: C_8  and  C_9
REMARK    6  A    between atoms: C_14  and  C_15
REMARK    7  A    between atoms: N_17  and  C_18
REMARK    8  A    between atoms: C_18  and  C_19
REMARK    9  A    between atoms: N_22  and  C_23
REMARK   10  A    between atoms: C_23  and  C_24
REMARK                            x       y       z     vdW  Elec       q    Type
REMARK                         _______ _______ _______ _____ _____    ______ ____
ROOT
ATOM      1  C   UNL     1       1.702   6.980  20.610  0.00  0.00    +0.000 C 
ATOM      2  O   UNL     1       0.987   6.080  21.037  0.00  0.00    +0.000 OA
ATOM      3  N   UNL     1       1.693   8.248  21.135  0.00  0.00    +0.000 N 
ATOM      4  H   UNL     1       2.380   8.903  20.780  0.00  0.00    +0.000 HD
ENDROOT
BRANCH   1  11
ATOM      5  C   UNL     1       2.662   7.402  18.248  0.00  0.00    +0.000 A 
ATOM      6  C   UNL     1       3.669   7.108  17.302  0.00  0.00    +0.000 A 
ATOM      7  C   UNL     1       4.560   6.025  17.418  0.00  0.00    +0.000 A 
ATOM      8  C   UNL     1       4.435   5.271  18.610  0.00  0.00    +0.000 A 
ATOM      9 CL   UNL     1       5.218   3.748  18.903  0.00  0.00    +0.000 Cl
ATOM     10  C   UNL     1       3.538   5.651  19.629  0.00  0.00    +0.000 A 
ATOM     11  C   UNL     1       2.638   6.711  19.464  0.00  0.00    +0.000 A 
BRANCH   7  12
ATOM     12  N   UNL     1       5.552   5.792  16.382  0.00  0.00    +0.000 N 
ATOM     13  C   UNL     1       5.184   5.018  15.197  0.00  0.00    +0.000 C 
ATOM     14  C   UNL     1       6.913   6.139  16.386  0.00  0.00    +0.000 C 
ATOM     15  C   UNL     1       7.502   7.055  17.429  0.00  0.00    +0.000 C 
ATOM     16  O   UNL     1       7.688   5.730  15.510  0.00  0.00    +0.000 OA
ENDBRANCH   7  12
BRANCH   5  18
ATOM     17  C   UNL     1       2.300   9.704  17.839  0.00  0.00    +0.000 C 
ATOM     18  O   UNL     1       1.742   8.396  18.014  0.00  0.00    +0.000 OA
ENDBRANCH   5  18
ENDBRANCH   1  11
BRANCH   3  19
ATOM     19  C   UNL     1       0.849   8.659  22.246  0.00  0.00    +0.000 C 
BRANCH  19  20
ATOM     20  C   UNL     1      -0.322   9.534  21.770  0.00  0.00    +0.000 C 
ATOM     21  C   UNL     1       0.025  10.339  20.522  0.00  0.00    +0.000 C 
ATOM     22  C   UNL     1       0.649  11.593  21.102  0.00  0.00    +0.000 C 
ATOM     23  N   UNL     1      -0.205  11.927  22.252  0.00  0.00    +0.000 NA
ATOM     24  C   UNL     1      -0.677  10.628  22.795  0.00  0.00    +0.000 C 
BRANCH  23  25
ATOM     25  C   UNL     1      -1.316  12.795  21.813  0.00  0.00    +0.000 C 
BRANCH  25  26
ATOM     26  C   UNL     1      -1.988  13.560  22.926  0.00  0.00    +0.000 A 
ATOM     27  C   UNL     1      -3.360  13.408  23.173  0.00  0.00    +0.000 A 
ATOM     28  C   UNL     1      -3.974  14.091  24.222  0.00  0.00    +0.000 A 
ATOM     29  C   UNL     1      -3.222  14.937  25.037  0.00  0.00    +0.000 A 
ATOM     30  C   UNL     1      -1.856  15.099  24.807  0.00  0.00    +0.000 A 
ATOM     31  C   UNL     1      -1.244  14.410  23.757  0.00  0.00    +0.000 A 
ENDBRANCH  25  26
ENDBRANCH  23  25
ENDBRANCH  19  20
ENDBRANCH   3  19
TORSDOF 7
ENDMDL
MODEL 2
REMARK VINA RESULT:      -7.2      3.573      9.591
REMARK  Name = 
REMARK  10 active torsions:
REMARK  status: ('A' for Active; 'I' for Inactive)
REMARK    1  A    between atoms: C_1  and  O_2
REMARK    2  A    between atoms: O_2  and  C_3
REMARK    3  A    between atoms: C_5  and  N_6
REMARK    4  A    between atoms: N_6  and  C_7
REMARK    5  A    between atoms: C_8  and  C_9
REMARK    6  A    between atoms: C_14  and  C_15
REMARK    7  A    between atoms: N_17  and  C_18
REMARK    8  A    between atoms: C_18  and  C_19
REMARK    9  A    between atoms: N_22  and  C_23
REMARK   10  A    between atoms: C_23  and  C_24
REMARK                            x       y       z     vdW  Elec       q    Type
REMARK                         _______ _______ _______ _____ _____    ______ ____
ROOT
ATOM      1  C   UNL     1       1.671   5.352  20.759  0.00  0.00    +0.000 C 
ATOM      2  O   UNL     1       2.555   4.988  21.527  0.00  0.00    +0.000 OA
ATOM      3  N   UNL     1       0.868   4.470  20.080  0.00  0.00    +0.000 N 
ATOM      4  H   UNL     1       0.105   4.859  19.537  0.00  0.00    +0.000 HD
ENDROOT
BRANCH   1  11
ATOM      5  C   UNL     1       2.022   7.596  19.527  0.00  0.00    +0.000 A 
ATOM      6  C   UNL     1       1.624   8.943  19.369  0.00  0.00    +0.000 A 
ATOM      7  C   UNL     1       0.798   9.627  20.280  0.00  0.00    +0.000 A 
ATOM      8  C   UNL     1       0.311   8.843  21.354  0.00  0.00    +0.000 A 
ATOM      9 CL   UNL     1      -0.509   9.476  22.749  0.00  0.00    +0.000 Cl
ATOM     10  C   UNL     1       0.576   7.461  21.434  0.00  0.00    +0.000 A 
ATOM     11  C   UNL     1       1.436   6.820  20.532  0.00  0.00    +0.000 A 
BRANCH   7  12
ATOM     12  N   UNL     1       0.458  11.020  20.042  0.00  0.00    +0.000 N 
ATOM     13  C   UNL     1       1.289  12.071  20.627  0.00  0.00    +0.000 C 
ATOM     14  C   UNL     1      -0.661  11.541  19.371  0.00  0.00    +0.000 C 
ATOM     15  C   UNL     1      -1.589  10.667  18.567  0.00  0.00    +0.000 C 
ATOM     16  O   UNL     1      -0.918  12.752  19.387  0.00  0.00    +0.000 OA
ENDBRANCH   7  12
BRANCH   5  18
ATOM     17  C   UNL     1       3.277   7.826  17.534  0.00  0.00    +0.000 C 
ATOM     18  O   UNL     1       2.932   7.024  18.671  0.00  0.00    +0.000 OA
ENDBRANCH   5  18
ENDBRANCH   1  11
BRANCH   3  19
ATOM     19  C   UNL     1       0.970   3.024  20.199  0.00  0.00    +0.000 C 
BRANCH  19  20
ATOM     20  C   UNL     1       1.662   2.405  18.973  0.00  0.00    +0.000 C 
ATOM     21  C   UNL     1       3.014   1.790  19.319  0.00  0.00    +0.000 C 
ATOM     22  C   UNL     1       3.957   2.968  19.182  0.00  0.00    +0.000 C 
ATOM     23  N   UNL     1       3.500   3.661  17.967  0.00  0.00    +0.000 NA
ATOM     24  C   UNL     1       2.029   3.469  17.922  0.00  0.00    +0.000 C 
BRANCH  23  25
ATOM     25  C   UNL     1       4.183   3.097  16.785  0.00  0.00    +0.000 C 
BRANCH  25  26
ATOM     26  C   UNL     1       5.299   3.954  16.241  0.00  0.00    +0.000 A 
ATOM     27  C   UNL     1       5.793   3.747  14.944  0.00  0.00    +0.000 A 
ATOM     28  C   UNL     1       6.803   4.560  14.431  0.00  0.00    +0.000 A 
ATOM     29  C   UNL     1       7.332   5.590  15.209  0.00  0.00    +0.000 A 
ATOM     30  C   UNL     1       6.851   5.810  16.499  0.00  0.00    +0.000 A 
ATOM     31  C   UNL     1       5.837   4.996  17.009  0.00  0.00    +0.000 A 
ENDBRANCH  25  26
ENDBRANCH  23  25
ENDBRANCH  19  20
ENDBRANCH   3  19
TORSDOF 7
ENDMDL
MODEL 3
REMARK VINA RESULT:      -7.1      4.052      5.154
REMARK  Name = 
REMARK  10 active torsions:
REMARK  status: ('A' for Active; 'I' for Inactive)
REMARK    1  A    between atoms: C_1  and  O_2
REMARK    2  A    between atoms: O_2  and  C_3
REMARK    3  A    between atoms: C_5  and  N_6
REMARK    4  A    between atoms: N_6  and  C_7
REMARK    5  A    between atoms: C_8  and  C_9
REMARK    6  A    between atoms: C_14  and  C_15
REMARK    7  A    between atoms: N_17  and  C_18
REMARK    8  A    between atoms: C_18  and  C_19
REMARK    9  A    between atoms: N_22  and  C_23
REMARK   10  A    between atoms: C_23  and  C_24
REMARK                            x       y       z     vdW  Elec       q    Type
REMARK                         _______ _______ _______ _____ _____    ______ ____
ROOT
ATOM      1  C   UNL     1       0.660  10.019  18.952  0.00  0.00    +0.000 C 
ATOM      2  O   UNL     1       1.092  11.077  19.397  0.00  0.00    +0.000 OA
ATOM      3  N   UNL     1      -0.573   9.912  18.357  0.00  0.00    +0.000 N 
ATOM      4  H   UNL     1      -0.811   9.020  17.937  0.00  0.00    +0.000 HD
ENDROOT
BRANCH   1  11
ATOM      5  C   UNL     1       1.550   7.908  20.148  0.00  0.00    +0.000 A 
ATOM      6  C   UNL     1       2.298   6.713  20.056  0.00  0.00    +0.000 A 
ATOM      7  C   UNL     1       3.155   6.408  18.982  0.00  0.00    +0.000 A 
ATOM      8  C   UNL     1       3.165   7.359  17.933  0.00  0.00    +0.000 A 
ATOM      9 CL   UNL     1       4.302   7.370  16.620  0.00  0.00    +0.000 Cl
ATOM     10  C   UNL     1       2.305   8.475  17.946  0.00  0.00    +0.000 A 
ATOM     11  C   UNL     1       1.494   8.771  19.049  0.00  0.00    +0.000 A 
BRANCH   7  12
ATOM     12  N   UNL     1       3.900   5.160  18.985  0.00  0.00    +0.000 N 
ATOM     13  C   UNL     1       5.296   5.158  19.422  0.00  0.00    +0.000 C 
ATOM     14  C   UNL     1       3.489   3.899  18.523  0.00  0.00    +0.000 C 
ATOM     15  C   UNL     1       2.056   3.612  18.152  0.00  0.00    +0.000 C 
ATOM     16  O   UNL     1       4.284   2.954  18.427  0.00  0.00    +0.000 OA
ENDBRANCH   7  12
BRANCH   5  18
ATOM     17  C   UNL     1       1.523   9.016  22.239  0.00  0.00    +0.000 C 
ATOM     18  O   UNL     1       0.830   8.205  21.282  0.00  0.00    +0.000 OA
ENDBRANCH   5  18
ENDBRANCH   1  11
BRANCH   3  19
ATOM     19  C   UNL     1      -1.489  11.029  18.185  0.00  0.00    +0.000 C 
BRANCH  19  20
ATOM     20  C   UNL     1      -2.954  10.563  18.205  0.00  0.00    +0.000 C 
ATOM     21  C   UNL     1      -3.410  10.022  16.854  0.00  0.00    +0.000 C 
ATOM     22  C   UNL     1      -3.878  11.273  16.139  0.00  0.00    +0.000 C 
ATOM     23  N   UNL     1      -4.612  12.027  17.167  0.00  0.00    +0.000 NA
ATOM     24  C   UNL     1      -3.926  11.733  18.450  0.00  0.00    +0.000 C 
BRANCH  23  25
ATOM     25  C   UNL     1      -6.030  11.612  17.173  0.00  0.00    +0.000 C 
BRANCH  25  26
ATOM     26  C   UNL     1      -6.638  11.489  18.548  0.00  0.00    +0.000 A 
ATOM     27  C   UNL     1      -6.859  10.229  19.123  0.00  0.00    +0.000 A 
ATOM     28  C   UNL     1      -7.392  10.117  20.406  0.00  0.00    +0.000 A 
ATOM     29  C   UNL     1      -7.711  11.265  21.131  0.00  0.00    +0.000 A 
ATOM     30  C   UNL     1      -7.496  12.526  20.575  0.00  0.00    +0.000 A 
ATOM     31  C   UNL     1      -6.959  12.635  19.291  0.00  0.00    +0.000 A 
ENDBRANCH  25  26
ENDBRANCH  23  25
ENDBRANCH  19  20
ENDBRANCH   3  19
TORSDOF 7
ENDMDL
MODEL 4
REMARK VINA RESULT:      -7.0      2.584      3.354
REMARK  Name = 
REMARK  10 active torsions:
REMARK  status: ('A' for Active; 'I' for Inactive)
REMARK    1  A    between atoms: C_1  and  O_2
REMARK    2  A    between atoms: O_2  and  C_3
REMARK    3  A    between atoms: C_5  and  N_6
REMARK    4  A    between atoms: N_6  and  C_7
REMARK    5  A    between atoms: C_8  and  C_9
REMARK    6  A    between atoms: C_14  and  C_15
REMARK    7  A    between atoms: N_17  and  C_18
REMARK    8  A    between atoms: C_18  and  C_19
REMARK    9  A    between atoms: N_22  and  C_23
REMARK   10  A    between atoms: C_23  and  C_24
REMARK                            x       y       z     vdW  Elec       q    Type
REMARK                         _______ _______ _______ _____ _____    ______ ____
ROOT
ATOM      1  C   UNL     1       1.708   8.152  20.122  0.00  0.00    +0.000 C 
ATOM      2  O   UNL     1       1.478   8.517  21.270  0.00  0.00    +0.000 OA
ATOM      3  N   UNL     1       1.511   8.962  19.032  0.00  0.00    +0.000 N 
ATOM      4  H   UNL     1       1.812   8.610  18.130  0.00  0.00    +0.000 HD
ENDROOT
BRANCH   1  11
ATOM      5  C   UNL     1       3.109   6.394  18.847  0.00  0.00    +0.000 A 
ATOM      6  C   UNL     1       3.598   5.069  18.796  0.00  0.00    +0.000 A 
ATOM      7  C   UNL     1       3.114   4.026  19.607  0.00  0.00    +0.000 A 
ATOM      8  C   UNL     1       2.136   4.408  20.558  0.00  0.00    +0.000 A 
ATOM      9 CL   UNL     1       1.191   3.299  21.503  0.00  0.00    +0.000 Cl
ATOM     10  C   UNL     1       1.758   5.756  20.720  0.00  0.00    +0.000 A 
ATOM     11  C   UNL     1       2.229   6.764  19.869  0.00  0.00    +0.000 A 
BRANCH   7  12
ATOM     12  N   UNL     1       3.666   2.689  19.469  0.00  0.00    +0.000 N 
ATOM     13  C   UNL     1       4.652   2.215  20.439  0.00  0.00    +0.000 C 
ATOM     14  C   UNL     1       3.452   1.761  18.436  0.00  0.00    +0.000 C 
ATOM     15  C   UNL     1       2.381   1.957  17.395  0.00  0.00    +0.000 C 
ATOM     16  O   UNL     1       4.118   0.720  18.354  0.00  0.00    +0.000 OA
ENDBRANCH   7  12
BRANCH   5  18
ATOM     17  C   UNL     1       4.596   6.912  17.081  0.00  0.00    +0.000 C 
ATOM     18  O   UNL     1       3.533   7.338  17.941  0.00  0.00    +0.000 OA
ENDBRANCH   5  18
ENDBRANCH   1  11
BRANCH   3  19
ATOM     19  C   UNL     1       1.019  10.328  19.116  0.00  0.00    +0.000 C 
BRANCH  19  20
ATOM     20  C   UNL     1      -0.455  10.370  19.553  0.00  0.00    +0.000 C 
ATOM     21  C   UNL     1      -1.366  10.934  18.467  0.00  0.00    +0.000 C 
ATOM     22  C   UNL     1      -1.307  12.426  18.729  0.00  0.00    +0.000 C 
ATOM     23  N   UNL     1      -1.376  12.540  20.194  0.00  0.00    +0.000 NA
ATOM     24  C   UNL     1      -0.681  11.342  20.726  0.00  0.00    +0.000 C 
BRANCH  23  25
ATOM     25  C   UNL     1      -2.788  12.615  20.623  0.00  0.00    +0.000 C 
BRANCH  25  26
ATOM     26  C   UNL     1      -2.990  13.168  22.012  0.00  0.00    +0.000 A 
ATOM     27  C   UNL     1      -3.933  12.597  22.879  0.00  0.00    +0.000 A 
ATOM     28  C   UNL     1      -4.097  13.089  24.173  0.00  0.00    +0.000 A 
ATOM     29  C   UNL     1      -3.319  14.158  24.617  0.00  0.00    +0.000 A 
ATOM     30  C   UNL     1      -2.375  14.735  23.768  0.00  0.00    +0.000 A 
ATOM     31  C   UNL     1      -2.211  14.239  22.474  0.00  0.00    +0.000 A 
ENDBRANCH  25  26
ENDBRANCH  23  25
ENDBRANCH  19  20
ENDBRANCH   3  19
TORSDOF 7
ENDMDL
MODEL 5
REMARK VINA RESULT:      -7.0      3.844      5.025
REMARK  Name = 
REMARK  10 active torsions:
REMARK  status: ('A' for Active; 'I' for Inactive)
REMARK    1  A    between atoms: C_1  and  O_2
REMARK    2  A    between atoms: O_2  and  C_3
REMARK    3  A    between atoms: C_5  and  N_6
REMARK    4  A    between atoms: N_6  and  C_7
REMARK    5  A    between atoms: C_8  and  C_9
REMARK    6  A    between atoms: C_14  and  C_15
REMARK    7  A    between atoms: N_17  and  C_18
REMARK    8  A    between atoms: C_18  and  C_19
REMARK    9  A    between atoms: N_22  and  C_23
REMARK   10  A    between atoms: C_23  and  C_24
REMARK                            x       y       z     vdW  Elec       q    Type
REMARK                         _______ _______ _______ _____ _____    ______ ____
ROOT
ATOM      1  C   UNL     1       1.403   9.473  18.110  0.00  0.00    +0.000 C 
ATOM      2  O   UNL     1       1.950  10.349  17.450  0.00  0.00    +0.000 OA
ATOM      3  N   UNL     1       0.105   9.572  18.545  0.00  0.00    +0.000 N 
ATOM      4  H   UNL     1      -0.294   8.762  19.007  0.00  0.00    +0.000 HD
ENDROOT
BRANCH   1  11
ATOM      5  C   UNL     1       2.213   7.640  19.742  0.00  0.00    +0.000 A 
ATOM      6  C   UNL     1       2.882   6.408  19.912  0.00  0.00    +0.000 A 
ATOM      7  C   UNL     1       3.672   5.803  18.916  0.00  0.00    +0.000 A 
ATOM      8  C   UNL     1       3.695   6.482  17.673  0.00  0.00    +0.000 A 
ATOM      9 CL   UNL     1       4.772   6.109  16.363  0.00  0.00    +0.000 Cl
ATOM     10  C   UNL     1       2.905   7.628  17.448  0.00  0.00    +0.000 A 
ATOM     11  C   UNL     1       2.162   8.226  18.473  0.00  0.00    +0.000 A 
BRANCH   7  12
ATOM     12  N   UNL     1       4.339   4.541  19.191  0.00  0.00    +0.000 N 
ATOM     13  C   UNL     1       5.797   4.509  19.301  0.00  0.00    +0.000 C 
ATOM     14  C   UNL     1       3.772   3.259  19.284  0.00  0.00    +0.000 C 
ATOM     15  C   UNL     1       2.282   3.046  19.340  0.00  0.00    +0.000 C 
ATOM     16  O   UNL     1       4.478   2.244  19.354  0.00  0.00    +0.000 OA
ENDBRANCH   7  12
BRANCH   5  18
ATOM     17  C   UNL     1       0.520   7.456  21.385  0.00  0.00    +0.000 C 
ATOM     18  O   UNL     1       1.563   8.241  20.794  0.00  0.00    +0.000 OA
ENDBRANCH   5  18
ENDBRANCH   1  11
BRANCH   3  19
ATOM     19  C   UNL     1      -0.757  10.711  18.269  0.00  0.00    +0.000 C 
BRANCH  19  20
ATOM     20  C   UNL     1      -2.235  10.294  18.195  0.00  0.00    +0.000 C 
ATOM     21  C   UNL     1      -2.609   9.721  16.832  0.00  0.00    +0.000 C 
ATOM     22  C   UNL     1      -2.981  10.961  16.044  0.00  0.00    +0.000 C 
ATOM     23  N   UNL     1      -3.761  11.773  16.990  0.00  0.00    +0.000 NA
ATOM     24  C   UNL     1      -3.181  11.502  18.329  0.00  0.00    +0.000 C 
BRANCH  23  25
ATOM     25  C   UNL     1      -5.189  11.404  16.905  0.00  0.00    +0.000 C 
BRANCH  25  26
ATOM     26  C   UNL     1      -5.950  11.549  18.200  0.00  0.00    +0.000 A 
ATOM     27  C   UNL     1      -6.168  12.814  18.764  0.00  0.00    +0.000 A 
ATOM     28  C   UNL     1      -6.898  12.949  19.944  0.00  0.00    +0.000 A 
ATOM     29  C   UNL     1      -7.418  11.820  20.575  0.00  0.00    +0.000 A 
ATOM     30  C   UNL     1      -7.212  10.555  20.026  0.00  0.00    +0.000 A 
ATOM     31  C   UNL     1      -6.483  10.423  18.843  0.00  0.00    +0.000 A 
ENDBRANCH  25  26
ENDBRANCH  23  25
ENDBRANCH  19  20
ENDBRANCH   3  19
TORSDOF 7
ENDMDL
MODEL 6
REMARK VINA RESULT:      -6.9      1.611      2.369
REMARK  Name = 
REMARK  10 active torsions:
REMARK  status: ('A' for Active; 'I' for Inactive)
REMARK    1  A    between atoms: C_1  and  O_2
REMARK    2  A    between atoms: O_2  and  C_3
REMARK    3  A    between atoms: C_5  and  N_6
REMARK    4  A    between atoms: N_6  and  C_7
REMARK    5  A    between atoms: C_8  and  C_9
REMARK    6  A    between atoms: C_14  and  C_15
REMARK    7  A    between atoms: N_17  and  C_18
REMARK    8  A    between atoms: C_18  and  C_19
REMARK    9  A    between atoms: N_22  and  C_23
REMARK   10  A    between atoms: C_23  and  C_24
REMARK                            x       y       z     vdW  Elec       q    Type
REMARK                         _______ _______ _______ _____ _____    ______ ____
ROOT
ATOM      1  C   UNL     1       1.702   6.967  20.584  0.00  0.00    +0.000 C 
ATOM      2  O   UNL     1       1.036   6.066  21.085  0.00  0.00    +0.000 OA
ATOM      3  N   UNL     1       1.635   8.268  21.017  0.00  0.00    +0.000 N 
ATOM      4  H   UNL     1       2.285   8.928  20.607  0.00  0.00    +0.000 HD
ENDROOT
BRANCH   1  11
ATOM      5  C   UNL     1       2.677   7.327  18.219  0.00  0.00    +0.000 A 
ATOM      6  C   UNL     1       3.684   7.000  17.283  0.00  0.00    +0.000 A 
ATOM      7  C   UNL     1       4.559   5.907  17.426  0.00  0.00    +0.000 A 
ATOM      8  C   UNL     1       4.419   5.179  18.632  0.00  0.00    +0.000 A 
ATOM      9 CL   UNL     1       5.179   3.651  18.959  0.00  0.00    +0.000 Cl
ATOM     10  C   UNL     1       3.523   5.592  19.639  0.00  0.00    +0.000 A 
ATOM     11  C   UNL     1       2.638   6.661  19.448  0.00  0.00    +0.000 A 
BRANCH   7  12
ATOM     12  N   UNL     1       5.552   5.639  16.399  0.00  0.00    +0.000 N 
ATOM     13  C   UNL     1       5.203   4.779  15.269  0.00  0.00    +0.000 C 
ATOM     14  C   UNL     1       6.901   6.029  16.370  0.00  0.00    +0.000 C 
ATOM     15  C   UNL     1       7.466   7.028  17.346  0.00  0.00    +0.000 C 
ATOM     16  O   UNL     1       7.683   5.588  15.516  0.00  0.00    +0.000 OA
ENDBRANCH   7  12
BRANCH   5  18
ATOM     17  C   UNL     1       2.352   9.619  17.728  0.00  0.00    +0.000 C 
ATOM     18  O   UNL     1       1.772   8.330  17.961  0.00  0.00    +0.000 OA
ENDBRANCH   5  18
ENDBRANCH   1  11
BRANCH   3  19
ATOM     19  C   UNL     1       0.782   8.716  22.107  0.00  0.00    +0.000 C 
BRANCH  19  20
ATOM     20  C   UNL     1      -0.307   9.682  21.610  0.00  0.00    +0.000 C 
ATOM     21  C   UNL     1       0.093  10.393  20.321  0.00  0.00    +0.000 C 
ATOM     22  C   UNL     1       0.848  11.603  20.834  0.00  0.00    +0.000 C 
ATOM     23  N   UNL     1       0.054  12.069  21.981  0.00  0.00    +0.000 NA
ATOM     24  C   UNL     1      -0.532  10.849  22.589  0.00  0.00    +0.000 C 
BRANCH  23  25
ATOM     25  C   UNL     1      -0.975  13.023  21.520  0.00  0.00    +0.000 C 
BRANCH  25  26
ATOM     26  C   UNL     1      -0.425  14.281  20.893  0.00  0.00    +0.000 A 
ATOM     27  C   UNL     1       0.418  15.133  21.621  0.00  0.00    +0.000 A 
ATOM     28  C   UNL     1       0.952  16.278  21.031  0.00  0.00    +0.000 A 
ATOM     29  C   UNL     1       0.648  16.585  19.705  0.00  0.00    +0.000 A 
ATOM     30  C   UNL     1      -0.187  15.747  18.966  0.00  0.00    +0.000 A 
ATOM     31  C   UNL     1      -0.717  14.600  19.559  0.00  0.00    +0.000 A 
ENDBRANCH  25  26
ENDBRANCH  23  25
ENDBRANCH  19  20
ENDBRANCH   3  19
TORSDOF 7
ENDMDL
MODEL 7
REMARK VINA RESULT:      -6.9      2.699      3.589
REMARK  Name = 
REMARK  10 active torsions:
REMARK  status: ('A' for Active; 'I' for Inactive)
REMARK    1  A    between atoms: C_1  and  O_2
REMARK    2  A    between atoms: O_2  and  C_3
REMARK    3  A    between atoms: C_5  and  N_6
REMARK    4  A    between atoms: N_6  and  C_7
REMARK    5  A    between atoms: C_8  and  C_9
REMARK    6  A    between atoms: C_14  and  C_15
REMARK    7  A    between atoms: N_17  and  C_18
REMARK    8  A    between atoms: C_18  and  C_19
REMARK    9  A    between atoms: N_22  and  C_23
REMARK   10  A    between atoms: C_23  and  C_24
REMARK                            x       y       z     vdW  Elec       q    Type
REMARK                         _______ _______ _______ _____ _____    ______ ____
ROOT
ATOM      1  C   UNL     1       1.674   8.102  20.242  0.00  0.00    +0.000 C 
ATOM      2  O   UNL     1       1.494   8.465  21.400  0.00  0.00    +0.000 OA
ATOM      3  N   UNL     1       1.418   8.911  19.162  0.00  0.00    +0.000 N 
ATOM      4  H   UNL     1       1.680   8.563  18.247  0.00  0.00    +0.000 HD
ENDROOT
BRANCH   1  11
ATOM      5  C   UNL     1       3.046   6.362  18.912  0.00  0.00    +0.000 A 
ATOM      6  C   UNL     1       3.540   5.041  18.837  0.00  0.00    +0.000 A 
ATOM      7  C   UNL     1       3.089   3.989  19.656  0.00  0.00    +0.000 A 
ATOM      8  C   UNL     1       2.138   4.358  20.639  0.00  0.00    +0.000 A 
ATOM      9 CL   UNL     1       1.229   3.238  21.605  0.00  0.00    +0.000 Cl
ATOM     10  C   UNL     1       1.757   5.703  20.822  0.00  0.00    +0.000 A 
ATOM     11  C   UNL     1       2.195   6.719  19.963  0.00  0.00    +0.000 A 
BRANCH   7  12
ATOM     12  N   UNL     1       3.644   2.656  19.491  0.00  0.00    +0.000 N 
ATOM     13  C   UNL     1       4.613   2.157  20.466  0.00  0.00    +0.000 C 
ATOM     14  C   UNL     1       3.450   1.756  18.430  0.00  0.00    +0.000 C 
ATOM     15  C   UNL     1       2.397   1.980  17.375  0.00  0.00    +0.000 C 
ATOM     16  O   UNL     1       4.119   0.718  18.332  0.00  0.00    +0.000 OA
ENDBRANCH   7  12
BRANCH   5  18
ATOM     17  C   UNL     1       4.599   6.976  17.237  0.00  0.00    +0.000 C 
ATOM     18  O   UNL     1       3.435   7.315  18.000  0.00  0.00    +0.000 OA
ENDBRANCH   5  18
ENDBRANCH   1  11
BRANCH   3  19
ATOM     19  C   UNL     1       0.918  10.273  19.271  0.00  0.00    +0.000 C 
BRANCH  19  20
ATOM     20  C   UNL     1      -0.610  10.300  19.441  0.00  0.00    +0.000 C 
ATOM     21  C   UNL     1      -1.324  10.815  18.196  0.00  0.00    +0.000 C 
ATOM     22  C   UNL     1      -1.332  12.315  18.417  0.00  0.00    +0.000 C 
ATOM     23  N   UNL     1      -1.658  12.470  19.844  0.00  0.00    +0.000 NA
ATOM     24  C   UNL     1      -1.051  11.300  20.526  0.00  0.00    +0.000 C 
BRANCH  23  25
ATOM     25  C   UNL     1      -3.124  12.530  20.016  0.00  0.00    +0.000 C 
BRANCH  25  26
ATOM     26  C   UNL     1      -3.576  13.220  21.279  0.00  0.00    +0.000 A 
ATOM     27  C   UNL     1      -2.906  14.357  21.753  0.00  0.00    +0.000 A 
ATOM     28  C   UNL     1      -3.343  15.012  22.903  0.00  0.00    +0.000 A 
ATOM     29  C   UNL     1      -4.457  14.538  23.594  0.00  0.00    +0.000 A 
ATOM     30  C   UNL     1      -5.136  13.409  23.136  0.00  0.00    +0.000 A 
ATOM     31  C   UNL     1      -4.698  12.757  21.982  0.00  0.00    +0.000 A 
ENDBRANCH  25  26
ENDBRANCH  23  25
ENDBRANCH  19  20
ENDBRANCH   3  19
TORSDOF 7
ENDMDL
MODEL 8
REMARK VINA RESULT:      -6.8      2.973     10.476
REMARK  Name = 
REMARK  10 active torsions:
REMARK  status: ('A' for Active; 'I' for Inactive)
REMARK    1  A    between atoms: C_1  and  O_2
REMARK    2  A    between atoms: O_2  and  C_3
REMARK    3  A    between atoms: C_5  and  N_6
REMARK    4  A    between atoms: N_6  and  C_7
REMARK    5  A    between atoms: C_8  and  C_9
REMARK    6  A    between atoms: C_14  and  C_15
REMARK    7  A    between atoms: N_17  and  C_18
REMARK    8  A    between atoms: C_18  and  C_19
REMARK    9  A    between atoms: N_22  and  C_23
REMARK   10  A    between atoms: C_23  and  C_24
REMARK                            x       y       z     vdW  Elec       q    Type
REMARK                         _______ _______ _______ _____ _____    ______ ____
ROOT
ATOM      1  C   UNL     1       1.941   6.548  20.400  0.00  0.00    +0.000 C 
ATOM      2  O   UNL     1       1.311   5.599  20.854  0.00  0.00    +0.000 OA
ATOM      3  N   UNL     1       3.151   6.403  19.770  0.00  0.00    +0.000 N 
ATOM      4  H   UNL     1       3.557   7.229  19.346  0.00  0.00    +0.000 HD
ENDROOT
BRANCH   1  11
ATOM      5  C   UNL     1       1.483   8.949  19.562  0.00  0.00    +0.000 A 
ATOM      6  C   UNL     1       0.822  10.179  19.774  0.00  0.00    +0.000 A 
ATOM      7  C   UNL     1       0.210  10.538  20.990  0.00  0.00    +0.000 A 
ATOM      8  C   UNL     1       0.230   9.537  21.991  0.00  0.00    +0.000 A 
ATOM      9 CL   UNL     1      -0.216   9.789  23.651  0.00  0.00    +0.000 Cl
ATOM     10  C   UNL     1       0.750   8.252  21.734  0.00  0.00    +0.000 A 
ATOM     11  C   UNL     1       1.388   7.941  20.526  0.00  0.00    +0.000 A 
BRANCH   7  12
ATOM     12  N   UNL     1      -0.430  11.837  21.120  0.00  0.00    +0.000 N 
ATOM     13  C   UNL     1      -1.877  11.906  21.321  0.00  0.00    +0.000 C 
ATOM     14  C   UNL     1       0.147  13.110  20.986  0.00  0.00    +0.000 C 
ATOM     15  C   UNL     1       1.639  13.307  20.911  0.00  0.00    +0.000 C 
ATOM     16  O   UNL     1      -0.548  14.135  20.953  0.00  0.00    +0.000 OA
ENDBRANCH   7  12
BRANCH   5  18
ATOM     17  C   UNL     1       2.312   9.847  17.535  0.00  0.00    +0.000 C 
ATOM     18  O   UNL     1       2.171   8.709  18.395  0.00  0.00    +0.000 OA
ENDBRANCH   5  18
ENDBRANCH   1  11
BRANCH   3  19
ATOM     19  C   UNL     1       3.810   5.121  19.567  0.00  0.00    +0.000 C 
BRANCH  19  20
ATOM     20  C   UNL     1       5.208   5.298  18.951  0.00  0.00    +0.000 C 
ATOM     21  C   UNL     1       5.299   6.536  18.064  0.00  0.00    +0.000 C 
ATOM     22  C   UNL     1       4.837   6.013  16.719  0.00  0.00    +0.000 C 
ATOM     23  N   UNL     1       5.483   4.696  16.599  0.00  0.00    +0.000 NA
ATOM     24  C   UNL     1       5.556   4.155  17.979  0.00  0.00    +0.000 C 
BRANCH  23  25
ATOM     25  C   UNL     1       6.814   4.850  15.977  0.00  0.00    +0.000 C 
BRANCH  25  26
ATOM     26  C   UNL     1       6.846   4.575  14.494  0.00  0.00    +0.000 A 
ATOM     27  C   UNL     1       5.996   3.615  13.926  0.00  0.00    +0.000 A 
ATOM     28  C   UNL     1       6.003   3.385  12.551  0.00  0.00    +0.000 A 
ATOM     29  C   UNL     1       6.862   4.112  11.727  0.00  0.00    +0.000 A 
ATOM     30  C   UNL     1       7.713   5.071  12.276  0.00  0.00    +0.000 A 
ATOM     31  C   UNL     1       7.701   5.301  13.652  0.00  0.00    +0.000 A 
ENDBRANCH  25  26
ENDBRANCH  23  25
ENDBRANCH  19  20
ENDBRANCH   3  19
TORSDOF 7
ENDMDL
MODEL 9
REMARK VINA RESULT:      -6.8      2.728      4.249
REMARK  Name = 
REMARK  10 active torsions:
REMARK  status: ('A' for Active; 'I' for Inactive)
REMARK    1  A    between atoms: C_1  and  O_2
REMARK    2  A    between atoms: O_2  and  C_3
REMARK    3  A    between atoms: C_5  and  N_6
REMARK    4  A    between atoms: N_6  and  C_7
REMARK    5  A    between atoms: C_8  and  C_9
REMARK    6  A    between atoms: C_14  and  C_15
REMARK    7  A    between atoms: N_17  and  C_18
REMARK    8  A    between atoms: C_18  and  C_19
REMARK    9  A    between atoms: N_22  and  C_23
REMARK   10  A    between atoms: C_23  and  C_24
REMARK                            x       y       z     vdW  Elec       q    Type
REMARK                         _______ _______ _______ _____ _____    ______ ____
ROOT
ATOM      1  C   UNL     1       0.323   8.426  21.396  0.00  0.00    +0.000 C 
ATOM      2  O   UNL     1      -0.784   7.992  21.696  0.00  0.00    +0.000 OA
ATOM      3  N   UNL     1       0.740   9.690  21.731  0.00  0.00    +0.000 N 
ATOM      4  H   UNL     1       1.702   9.933  21.521  0.00  0.00    +0.000 HD
ENDROOT
BRANCH   1  11
ATOM      5  C   UNL     1       2.002   7.944  19.492  0.00  0.00    +0.000 A 
ATOM      6  C   UNL     1       2.950   7.056  18.936  0.00  0.00    +0.000 A 
ATOM      7  C   UNL     1       3.099   5.717  19.342  0.00  0.00    +0.000 A 
ATOM      8  C   UNL     1       2.273   5.321  20.423  0.00  0.00    +0.000 A 
ATOM      9 CL   UNL     1       2.062   3.682  20.958  0.00  0.00    +0.000 Cl
ATOM     10  C   UNL     1       1.437   6.244  21.084  0.00  0.00    +0.000 A 
ATOM     11  C   UNL     1       1.282   7.560  20.628  0.00  0.00    +0.000 A 
BRANCH   7  12
ATOM     12  N   UNL     1       4.091   4.873  18.698  0.00  0.00    +0.000 N 
ATOM     13  C   UNL     1       5.504   5.036  19.039  0.00  0.00    +0.000 C 
ATOM     14  C   UNL     1       3.900   3.931  17.673  0.00  0.00    +0.000 C 
ATOM     15  C   UNL     1       2.526   3.485  17.244  0.00  0.00    +0.000 C 
ATOM     16  O   UNL     1       4.858   3.401  17.095  0.00  0.00    +0.000 OA
ENDBRANCH   7  12
BRANCH   5  18
ATOM     17  C   UNL     1       1.141   9.231  17.702  0.00  0.00    +0.000 C 
ATOM     18  O   UNL     1       1.818   9.201  18.965  0.00  0.00    +0.000 OA
ENDBRANCH   5  18
ENDBRANCH   1  11
BRANCH   3  19
ATOM     19  C   UNL     1      -0.072  10.641  22.476  0.00  0.00    +0.000 C 
BRANCH  19  20
ATOM     20  C   UNL     1      -0.134  12.004  21.768  0.00  0.00    +0.000 C 
ATOM     21  C   UNL     1      -1.513  12.291  21.183  0.00  0.00    +0.000 C 
ATOM     22  C   UNL     1      -1.430  11.649  19.812  0.00  0.00    +0.000 C 
ATOM     23  N   UNL     1      -0.088  12.004  19.325  0.00  0.00    +0.000 NA
ATOM     24  C   UNL     1       0.779  12.051  20.529  0.00  0.00    +0.000 C 
BRANCH  23  25
ATOM     25  C   UNL     1      -0.142  13.298  18.613  0.00  0.00    +0.000 C 
BRANCH  25  26
ATOM     26  C   UNL     1       1.121  14.118  18.713  0.00  0.00    +0.000 A 
ATOM     27  C   UNL     1       2.304  13.687  18.095  0.00  0.00    +0.000 A 
ATOM     28  C   UNL     1       3.462  14.460  18.161  0.00  0.00    +0.000 A 
ATOM     29  C   UNL     1       3.451  15.675  18.846  0.00  0.00    +0.000 A 
ATOM     30  C   UNL     1       2.282  16.119  19.464  0.00  0.00    +0.000 A 
ATOM     31  C   UNL     1       1.123  15.344  19.393  0.00  0.00    +0.000 A 
ENDBRANCH  25  26
ENDBRANCH  23  25
ENDBRANCH  19  20
ENDBRANCH   3  19
TORSDOF 7
ENDMDL
