MODEL 1
REMARK VINA RESULT:      -7.8      0.000      0.000
REMARK  Name = 
REMARK  7 active torsions:
REMARK  status: ('A' for Active; 'I' for Inactive)
REMARK    1  A    between atoms: C_2  and  C_4
REMARK    2  A    between atoms: C_14  and  C_16
REMARK    3  A    between atoms: C_16  and  C_17
REMARK    4  A    between atoms: C_17  and  C_18
REMARK    5  A    between atoms: C_18  and  C_19
REMARK    6  A    between atoms: C_19  and  N_20
REMARK    7  A    between atoms: N_23  and  C_24
REMARK                            x       y       z     vdW  Elec       q    Type
REMARK                         _______ _______ _______ _____ _____    ______ ____
ROOT
ATOM      1  C   UNL     1      10.537  13.794  18.703  0.00  0.00    +0.000 C 
ATOM      2  C   UNL     1      11.468  14.904  19.237  0.00  0.00    +0.000 C 
ATOM      3  C   UNL     1      10.912  15.479  20.508  0.00  0.00    +0.000 A 
ATOM      4  C   UNL     1      10.950  16.848  20.793  0.00  0.00    +0.000 A 
ATOM      5  C   UNL     1      10.417  17.321  21.992  0.00  0.00    +0.000 A 
ATOM      6  C   UNL     1       9.857  16.432  22.909  0.00  0.00    +0.000 A 
ATOM      7  C   UNL     1       9.842  15.062  22.639  0.00  0.00    +0.000 A 
ATOM      8  C   UNL     1      10.372  14.579  21.438  0.00  0.00    +0.000 A 
ATOM      9  C   UNL     1      10.454  13.103  21.141  0.00  0.00    +0.000 C 
ATOM     10  N   UNL     1      10.168  12.777  19.738  0.00  0.00    +0.000 N 
ATOM     11  C   UNL     1       9.251  11.747  19.525  0.00  0.00    +0.000 C 
ATOM     12  O   UNL     1       8.819  11.054  20.448  0.00  0.00    +0.000 OA
ENDROOT
BRANCH   1  14
ATOM     13  N   UNL     1      12.252  12.305  17.723  0.00  0.00    +0.000 N 
ATOM     14  C   UNL     1      11.251  13.199  17.479  0.00  0.00    +0.000 C 
ATOM     15  O   UNL     1      11.026  13.572  16.330  0.00  0.00    +0.000 OA
ATOM     16  H   UNL     1      12.666  11.844  16.921  0.00  0.00    +0.000 HD
ATOM     17  H   UNL     1      12.388  11.909  18.645  0.00  0.00    +0.000 HD
ENDBRANCH   1  14
BRANCH  11  18
ATOM     18  C   UNL     1       8.911  11.377  18.096  0.00  0.00    +0.000 C 
BRANCH  18  19
ATOM     19  C   UNL     1       9.203   9.908  17.784  0.00  0.00    +0.000 C 
BRANCH  19  20
ATOM     20  C   UNL     1       7.920   9.071  17.777  0.00  0.00    +0.000 C 
BRANCH  20  21
ATOM     21  C   UNL     1       8.141   7.683  18.395  0.00  0.00    +0.000 C 
BRANCH  21  22
ATOM     22  N   UNL     1       7.764   6.557  17.532  0.00  0.00    +0.000 NA
ATOM     23  C   UNL     1       7.586   5.282  18.269  0.00  0.00    +0.000 C 
ATOM     24  C   UNL     1       6.407   5.265  19.263  0.00  0.00    +0.000 C 
ATOM     25  N   UNL     1       5.157   5.645  18.585  0.00  0.00    +0.000 N 
ATOM     26  C   UNL     1       5.213   6.861  17.759  0.00  0.00    +0.000 C 
ATOM     27  C   UNL     1       6.474   6.860  16.851  0.00  0.00    +0.000 C 
BRANCH  25  28
ATOM     28  C   UNL     1       4.070   4.796  18.554  0.00  0.00    +0.000 A 
ATOM     29  C   UNL     1       2.927   5.103  17.791  0.00  0.00    +0.000 A 
ATOM     30  C   UNL     1       1.801   4.270  17.804  0.00  0.00    +0.000 A 
ATOM     31  C   UNL     1       1.803   3.117  18.577  0.00  0.00    +0.000 A 
ATOM     32 CL   UNL     1       0.411   2.108  18.623  0.00  0.00    +0.000 Cl
ATOM     33  C   UNL     1       2.924   2.773  19.317  0.00  0.00    +0.000 A 
ATOM     34  C   UNL     1       4.040   3.607  19.296  0.00  0.00    +0.000 A 
ENDBRANCH  25  28
ENDBRANCH  21  22
ENDBRANCH  20  21
ENDBRANCH  19  20
ENDBRANCH  18  19
ENDBRANCH  11  18
TORSDOF 7
ENDMDL
MODEL 2
REMARK VINA RESULT:      -7.6      3.942     10.841
REMARK  Name = 
REMARK  7 active torsions:
REMARK  status: ('A' for Active; 'I' for Inactive)
REMARK    1  A    between atoms: C_2  and  C_4
REMARK    2  A    between atoms: C_14  and  C_16
REMARK    3  A    between atoms: C_16  and  C_17
REMARK    4  A    between atoms: C_17  and  C_18
REMARK    5  A    between atoms: C_18  and  C_19
REMARK    6  A    between atoms: C_19  and  N_20
REMARK    7  A    between atoms: N_23  and  C_24
REMARK                            x       y       z     vdW  Elec       q    Type
REMARK                         _______ _______ _______ _____ _____    ______ ____
ROOT
ATOM      1  C   UNL     1       6.337   5.166  18.887  0.00  0.00    +0.000 C 
ATOM      2  C   UNL     1       5.560   3.872  19.211  0.00  0.00    +0.000 C 
ATOM      3  C   UNL     1       4.081   4.117  19.106  0.00  0.00    +0.000 A 
ATOM      4  C   UNL     1       3.164   3.576  20.012  0.00  0.00    +0.000 A 
ATOM      5  C   UNL     1       1.803   3.839  19.860  0.00  0.00    +0.000 A 
ATOM      6  C   UNL     1       1.355   4.630  18.802  0.00  0.00    +0.000 A 
ATOM      7  C   UNL     1       2.267   5.148  17.880  0.00  0.00    +0.000 A 
ATOM      8  C   UNL     1       3.634   4.892  18.026  0.00  0.00    +0.000 A 
ATOM      9  C   UNL     1       4.645   5.360  17.009  0.00  0.00    +0.000 C 
ATOM     10  N   UNL     1       5.903   5.819  17.611  0.00  0.00    +0.000 N 
ATOM     11  C   UNL     1       6.378   7.053  17.167  0.00  0.00    +0.000 C 
ATOM     12  O   UNL     1       5.858   7.654  16.226  0.00  0.00    +0.000 OA
ENDROOT
BRANCH   1  14
ATOM     13  N   UNL     1       8.565   5.238  19.958  0.00  0.00    +0.000 N 
ATOM     14  C   UNL     1       7.824   4.779  18.908  0.00  0.00    +0.000 C 
ATOM     15  O   UNL     1       8.370   4.178  17.987  0.00  0.00    +0.000 OA
ATOM     16  H   UNL     1       9.523   4.914  20.025  0.00  0.00    +0.000 HD
ATOM     17  H   UNL     1       8.124   5.645  20.773  0.00  0.00    +0.000 HD
ENDBRANCH   1  14
BRANCH  11  18
ATOM     18  C   UNL     1       7.668   7.580  17.764  0.00  0.00    +0.000 C 
BRANCH  18  19
ATOM     19  C   UNL     1       7.868   9.074  17.505  0.00  0.00    +0.000 C 
BRANCH  19  20
ATOM     20  C   UNL     1       8.751   9.716  18.580  0.00  0.00    +0.000 C 
BRANCH  20  21
ATOM     21  C   UNL     1       9.097  11.171  18.238  0.00  0.00    +0.000 C 
BRANCH  21  22
ATOM     22  N   UNL     1      10.169  11.757  19.054  0.00  0.00    +0.000 NA
ATOM     23  C   UNL     1      10.053  13.227  19.213  0.00  0.00    +0.000 C 
ATOM     24  C   UNL     1       8.820  13.700  20.009  0.00  0.00    +0.000 C 
ATOM     25  N   UNL     1       8.770  13.036  21.322  0.00  0.00    +0.000 N 
ATOM     26  C   UNL     1       8.942  11.575  21.315  0.00  0.00    +0.000 C 
ATOM     27  C   UNL     1      10.141  11.159  20.418  0.00  0.00    +0.000 C 
BRANCH  25  28
ATOM     28  C   UNL     1       8.779  13.763  22.495  0.00  0.00    +0.000 A 
ATOM     29  C   UNL     1       9.127  15.127  22.506  0.00  0.00    +0.000 A 
ATOM     30  C   UNL     1       9.192  15.850  23.703  0.00  0.00    +0.000 A 
ATOM     31  C   UNL     1       8.907  15.220  24.908  0.00  0.00    +0.000 A 
ATOM     32 CL   UNL     1       9.019  16.093  26.384  0.00  0.00    +0.000 Cl
ATOM     33  C   UNL     1       8.535  13.885  24.927  0.00  0.00    +0.000 A 
ATOM     34  C   UNL     1       8.470  13.174  23.730  0.00  0.00    +0.000 A 
ENDBRANCH  25  28
ENDBRANCH  21  22
ENDBRANCH  20  21
ENDBRANCH  19  20
ENDBRANCH  18  19
ENDBRANCH  11  18
TORSDOF 7
ENDMDL
MODEL 3
REMARK VINA RESULT:      -7.5      1.540      2.387
REMARK  Name = 
REMARK  7 active torsions:
REMARK  status: ('A' for Active; 'I' for Inactive)
REMARK    1  A    between atoms: C_2  and  C_4
REMARK    2  A    between atoms: C_14  and  C_16
REMARK    3  A    between atoms: C_16  and  C_17
REMARK    4  A    between atoms: C_17  and  C_18
REMARK    5  A    between atoms: C_18  and  C_19
REMARK    6  A    between atoms: C_19  and  N_20
REMARK    7  A    between atoms: N_23  and  C_24
REMARK                            x       y       z     vdW  Elec       q    Type
REMARK                         _______ _______ _______ _____ _____    ______ ____
ROOT
ATOM      1  C   UNL     1      10.134  13.586  19.739  0.00  0.00    +0.000 C 
ATOM      2  C   UNL     1      10.231  14.809  20.677  0.00  0.00    +0.000 C 
ATOM      3  C   UNL     1       9.834  16.058  19.943  0.00  0.00    +0.000 A 
ATOM      4  C   UNL     1      10.506  17.273  20.110  0.00  0.00    +0.000 A 
ATOM      5  C   UNL     1      10.089  18.398  19.400  0.00  0.00    +0.000 A 
ATOM      6  C   UNL     1       8.999  18.317  18.534  0.00  0.00    +0.000 A 
ATOM      7  C   UNL     1       8.309  17.111  18.387  0.00  0.00    +0.000 A 
ATOM      8  C   UNL     1       8.723  15.977  19.093  0.00  0.00    +0.000 A 
ATOM      9  C   UNL     1       7.959  14.678  19.029  0.00  0.00    +0.000 C 
ATOM     10  N   UNL     1       8.828  13.494  19.013  0.00  0.00    +0.000 N 
ATOM     11  C   UNL     1       8.549  12.545  18.030  0.00  0.00    +0.000 C 
ATOM     12  O   UNL     1       7.549  12.619  17.314  0.00  0.00    +0.000 OA
ENDROOT
BRANCH   1  14
ATOM     13  N   UNL     1      11.642  11.742  20.402  0.00  0.00    +0.000 N 
ATOM     14  C   UNL     1      10.445  12.361  20.612  0.00  0.00    +0.000 C 
ATOM     15  O   UNL     1       9.630  11.876  21.393  0.00  0.00    +0.000 OA
ATOM     16  H   UNL     1      11.890  10.989  21.033  0.00  0.00    +0.000 HD
ATOM     17  H   UNL     1      12.365  12.175  19.843  0.00  0.00    +0.000 HD
ENDBRANCH   1  14
BRANCH  11  18
ATOM     18  C   UNL     1       9.422  11.308  17.962  0.00  0.00    +0.000 C 
BRANCH  18  19
ATOM     19  C   UNL     1       8.744  10.077  18.565  0.00  0.00    +0.000 C 
BRANCH  19  20
ATOM     20  C   UNL     1       8.481   9.005  17.501  0.00  0.00    +0.000 C 
BRANCH  20  21
ATOM     21  C   UNL     1       8.041   7.676  18.130  0.00  0.00    +0.000 C 
BRANCH  21  22
ATOM     22  N   UNL     1       7.463   6.710  17.186  0.00  0.00    +0.000 NA
ATOM     23  C   UNL     1       7.384   5.331  17.727  0.00  0.00    +0.000 C 
ATOM     24  C   UNL     1       6.418   5.155  18.917  0.00  0.00    +0.000 C 
ATOM     25  N   UNL     1       5.076   5.648  18.568  0.00  0.00    +0.000 N 
ATOM     26  C   UNL     1       5.017   6.984  17.955  0.00  0.00    +0.000 C 
ATOM     27  C   UNL     1       6.079   7.128  16.829  0.00  0.00    +0.000 C 
BRANCH  25  28
ATOM     28  C   UNL     1       3.972   4.821  18.613  0.00  0.00    +0.000 A 
ATOM     29  C   UNL     1       3.971   3.648  19.391  0.00  0.00    +0.000 A 
ATOM     30  C   UNL     1       2.872   2.779  19.392  0.00  0.00    +0.000 A 
ATOM     31  C   UNL     1       1.757   3.074  18.619  0.00  0.00    +0.000 A 
ATOM     32 CL   UNL     1       0.419   1.994  18.591  0.00  0.00    +0.000 Cl
ATOM     33  C   UNL     1       1.717   4.236  17.865  0.00  0.00    +0.000 A 
ATOM     34  C   UNL     1       2.814   5.095  17.871  0.00  0.00    +0.000 A 
ENDBRANCH  25  28
ENDBRANCH  21  22
ENDBRANCH  20  21
ENDBRANCH  19  20
ENDBRANCH  18  19
ENDBRANCH  11  18
TORSDOF 7
ENDMDL
MODEL 4
REMARK VINA RESULT:      -7.4      7.693      9.410
REMARK  Name = 
REMARK  7 active torsions:
REMARK  status: ('A' for Active; 'I' for Inactive)
REMARK    1  A    between atoms: C_2  and  C_4
REMARK    2  A    between atoms: C_14  and  C_16
REMARK    3  A    between atoms: C_16  and  C_17
REMARK    4  A    between atoms: C_17  and  C_18
REMARK    5  A    between atoms: C_18  and  C_19
REMARK    6  A    between atoms: C_19  and  N_20
REMARK    7  A    between atoms: N_23  and  C_24
REMARK                            x       y       z     vdW  Elec       q    Type
REMARK                         _______ _______ _______ _____ _____    ______ ____
ROOT
ATOM      1  C   UNL     1      -0.405  10.609  19.786  0.00  0.00    +0.000 C 
ATOM      2  C   UNL     1      -1.227  11.882  19.490  0.00  0.00    +0.000 C 
ATOM      3  C   UNL     1      -2.166  12.168  20.628  0.00  0.00    +0.000 A 
ATOM      4  C   UNL     1      -3.475  12.617  20.427  0.00  0.00    +0.000 A 
ATOM      5  C   UNL     1      -4.299  12.865  21.525  0.00  0.00    +0.000 A 
ATOM      6  C   UNL     1      -3.816  12.677  22.819  0.00  0.00    +0.000 A 
ATOM      7  C   UNL     1      -2.500  12.256  23.023  0.00  0.00    +0.000 A 
ATOM      8  C   UNL     1      -1.668  12.002  21.928  0.00  0.00    +0.000 A 
ATOM      9  C   UNL     1      -0.218  11.627  22.100  0.00  0.00    +0.000 C 
ATOM     10  N   UNL     1       0.238  10.616  21.138  0.00  0.00    +0.000 N 
ATOM     11  C   UNL     1       0.935   9.532  21.674  0.00  0.00    +0.000 C 
ATOM     12  O   UNL     1       1.276   9.495  22.857  0.00  0.00    +0.000 OA
ENDROOT
BRANCH   1  14
ATOM     13  N   UNL     1       1.490  11.492  18.465  0.00  0.00    +0.000 N 
ATOM     14  C   UNL     1       0.594  10.476  18.626  0.00  0.00    +0.000 C 
ATOM     15  O   UNL     1       0.544   9.564  17.804  0.00  0.00    +0.000 OA
ATOM     16  H   UNL     1       2.207  11.369  17.758  0.00  0.00    +0.000 HD
ATOM     17  H   UNL     1       1.618  12.197  19.179  0.00  0.00    +0.000 HD
ENDBRANCH   1  14
BRANCH  11  18
ATOM     18  C   UNL     1       1.419   8.454  20.726  0.00  0.00    +0.000 C 
BRANCH  18  19
ATOM     19  C   UNL     1       0.776   7.095  21.005  0.00  0.00    +0.000 C 
BRANCH  19  20
ATOM     20  C   UNL     1       1.787   5.953  20.847  0.00  0.00    +0.000 C 
BRANCH  20  21
ATOM     21  C   UNL     1       1.092   4.608  20.594  0.00  0.00    +0.000 C 
BRANCH  21  22
ATOM     22  N   UNL     1       1.952   3.573  20.007  0.00  0.00    +0.000 NA
ATOM     23  C   UNL     1       1.708   3.355  18.560  0.00  0.00    +0.000 C 
ATOM     24  C   UNL     1       2.069   4.549  17.653  0.00  0.00    +0.000 C 
ATOM     25  N   UNL     1       3.461   4.967  17.883  0.00  0.00    +0.000 N 
ATOM     26  C   UNL     1       3.858   5.153  19.287  0.00  0.00    +0.000 C 
ATOM     27  C   UNL     1       3.381   3.962  20.163  0.00  0.00    +0.000 C 
BRANCH  25  28
ATOM     28  C   UNL     1       4.388   4.971  16.860  0.00  0.00    +0.000 A 
ATOM     29  C   UNL     1       4.986   3.778  16.413  0.00  0.00    +0.000 A 
ATOM     30  C   UNL     1       5.969   3.787  15.415  0.00  0.00    +0.000 A 
ATOM     31  C   UNL     1       6.365   4.991  14.847  0.00  0.00    +0.000 A 
ATOM     32 CL   UNL     1       7.594   5.012  13.645  0.00  0.00    +0.000 Cl
ATOM     33  C   UNL     1       5.775   6.180  15.246  0.00  0.00    +0.000 A 
ATOM     34  C   UNL     1       4.796   6.160  16.238  0.00  0.00    +0.000 A 
ENDBRANCH  25  28
ENDBRANCH  21  22
ENDBRANCH  20  21
ENDBRANCH  19  20
ENDBRANCH  18  19
ENDBRANCH  11  18
TORSDOF 7
ENDMDL
MODEL 5
REMARK VINA RESULT:      -7.3      6.790      8.704
REMARK  Name = 
REMARK  7 active torsions:
REMARK  status: ('A' for Active; 'I' for Inactive)
REMARK    1  A    between atoms: C_2  and  C_4
REMARK    2  A    between atoms: C_14  and  C_16
REMARK    3  A    between atoms: C_16  and  C_17
REMARK    4  A    between atoms: C_17  and  C_18
REMARK    5  A    between atoms: C_18  and  C_19
REMARK    6  A    between atoms: C_19  and  N_20
REMARK    7  A    between atoms: N_23  and  C_24
REMARK                            x       y       z     vdW  Elec       q    Type
REMARK                         _______ _______ _______ _____ _____    ______ ____
ROOT
ATOM      1  C   UNL     1       0.697   9.903  21.332  0.00  0.00    +0.000 C 
ATOM      2  C   UNL     1       0.065  11.303  21.178  0.00  0.00    +0.000 C 
ATOM      3  C   UNL     1       0.921  12.164  20.294  0.00  0.00    +0.000 A 
ATOM      4  C   UNL     1       1.153  13.518  20.559  0.00  0.00    +0.000 A 
ATOM      5  C   UNL     1       1.958  14.264  19.700  0.00  0.00    +0.000 A 
ATOM      6  C   UNL     1       2.522  13.668  18.573  0.00  0.00    +0.000 A 
ATOM      7  C   UNL     1       2.269  12.324  18.290  0.00  0.00    +0.000 A 
ATOM      8  C   UNL     1       1.466  11.566  19.149  0.00  0.00    +0.000 A 
ATOM      9  C   UNL     1       1.098  10.136  18.840  0.00  0.00    +0.000 C 
ATOM     10  N   UNL     1       1.076   9.273  20.028  0.00  0.00    +0.000 N 
ATOM     11  C   UNL     1       1.765   8.065  19.918  0.00  0.00    +0.000 C 
ATOM     12  O   UNL     1       2.236   7.676  18.848  0.00  0.00    +0.000 OA
ENDROOT
BRANCH   1  14
ATOM     13  N   UNL     1      -0.309   9.269  23.500  0.00  0.00    +0.000 N 
ATOM     14  C   UNL     1      -0.307   9.076  22.150  0.00  0.00    +0.000 C 
ATOM     15  O   UNL     1      -1.010   8.201  21.652  0.00  0.00    +0.000 OA
ATOM     16  H   UNL     1      -1.027   8.793  24.034  0.00  0.00    +0.000 HD
ATOM     17  H   UNL     1       0.183  10.047  23.920  0.00  0.00    +0.000 HD
ENDBRANCH   1  14
BRANCH  11  18
ATOM     18  C   UNL     1       1.784   7.141  21.119  0.00  0.00    +0.000 C 
BRANCH  18  19
ATOM     19  C   UNL     1       2.318   5.749  20.780  0.00  0.00    +0.000 C 
BRANCH  19  20
ATOM     20  C   UNL     1       1.199   4.822  20.292  0.00  0.00    +0.000 C 
BRANCH  20  21
ATOM     21  C   UNL     1       1.751   3.484  19.780  0.00  0.00    +0.000 C 
BRANCH  21  22
ATOM     22  N   UNL     1       1.662   3.298  18.326  0.00  0.00    +0.000 NA
ATOM     23  C   UNL     1       1.886   4.547  17.557  0.00  0.00    +0.000 C 
ATOM     24  C   UNL     1       3.309   5.131  17.667  0.00  0.00    +0.000 C 
ATOM     25  N   UNL     1       4.312   4.117  17.303  0.00  0.00    +0.000 N 
ATOM     26  C   UNL     1       4.164   2.802  17.945  0.00  0.00    +0.000 C 
ATOM     27  C   UNL     1       2.690   2.314  17.885  0.00  0.00    +0.000 C 
BRANCH  25  28
ATOM     28  C   UNL     1       5.197   4.322  16.264  0.00  0.00    +0.000 A 
ATOM     29  C   UNL     1       6.270   5.225  16.388  0.00  0.00    +0.000 A 
ATOM     30  C   UNL     1       7.135   5.475  15.315  0.00  0.00    +0.000 A 
ATOM     31  C   UNL     1       6.942   4.823  14.104  0.00  0.00    +0.000 A 
ATOM     32 CL   UNL     1       7.980   5.152  12.774  0.00  0.00    +0.000 Cl
ATOM     33  C   UNL     1       5.911   3.908  13.960  0.00  0.00    +0.000 A 
ATOM     34  C   UNL     1       5.057   3.663  15.034  0.00  0.00    +0.000 A 
ENDBRANCH  25  28
ENDBRANCH  21  22
ENDBRANCH  20  21
ENDBRANCH  19  20
ENDBRANCH  18  19
ENDBRANCH  11  18
TORSDOF 7
ENDMDL
MODEL 6
REMARK VINA RESULT:      -7.3      4.152     11.407
REMARK  Name = 
REMARK  7 active torsions:
REMARK  status: ('A' for Active; 'I' for Inactive)
REMARK    1  A    between atoms: C_2  and  C_4
REMARK    2  A    between atoms: C_14  and  C_16
REMARK    3  A    between atoms: C_16  and  C_17
REMARK    4  A    between atoms: C_17  and  C_18
REMARK    5  A    between atoms: C_18  and  C_19
REMARK    6  A    between atoms: C_19  and  N_20
REMARK    7  A    between atoms: N_23  and  C_24
REMARK                            x       y       z     vdW  Elec       q    Type
REMARK                         _______ _______ _______ _____ _____    ______ ____
ROOT
ATOM      1  C   UNL     1       6.144   4.816  18.213  0.00  0.00    +0.000 C 
ATOM      2  C   UNL     1       5.362   3.492  18.354  0.00  0.00    +0.000 C 
ATOM      3  C   UNL     1       4.056   3.735  19.056  0.00  0.00    +0.000 A 
ATOM      4  C   UNL     1       3.541   2.851  20.010  0.00  0.00    +0.000 A 
ATOM      5  C   UNL     1       2.322   3.132  20.627  0.00  0.00    +0.000 A 
ATOM      6  C   UNL     1       1.613   4.284  20.287  0.00  0.00    +0.000 A 
ATOM      7  C   UNL     1       2.113   5.154  19.315  0.00  0.00    +0.000 A 
ATOM      8  C   UNL     1       3.336   4.881  18.693  0.00  0.00    +0.000 A 
ATOM      9  C   UNL     1       3.872   5.746  17.580  0.00  0.00    +0.000 C 
ATOM     10  N   UNL     1       5.328   5.933  17.641  0.00  0.00    +0.000 N 
ATOM     11  C   UNL     1       5.780   7.248  17.525  0.00  0.00    +0.000 C 
ATOM     12  O   UNL     1       5.023   8.177  17.242  0.00  0.00    +0.000 OA
ENDROOT
BRANCH   1  14
ATOM     13  N   UNL     1       7.251   4.455  16.031  0.00  0.00    +0.000 N 
ATOM     14  C   UNL     1       7.395   4.479  17.387  0.00  0.00    +0.000 C 
ATOM     15  O   UNL     1       8.459   4.138  17.898  0.00  0.00    +0.000 OA
ATOM     16  H   UNL     1       8.089   4.321  15.478  0.00  0.00    +0.000 HD
ATOM     17  H   UNL     1       6.421   4.826  15.586  0.00  0.00    +0.000 HD
ENDBRANCH   1  14
BRANCH  11  18
ATOM     18  C   UNL     1       7.273   7.499  17.593  0.00  0.00    +0.000 C 
BRANCH  18  19
ATOM     19  C   UNL     1       7.622   8.987  17.535  0.00  0.00    +0.000 C 
BRANCH  19  20
ATOM     20  C   UNL     1       8.676   9.357  18.583  0.00  0.00    +0.000 C 
BRANCH  20  21
ATOM     21  C   UNL     1       9.376  10.680  18.245  0.00  0.00    +0.000 C 
BRANCH  21  22
ATOM     22  N   UNL     1      10.540  10.993  19.084  0.00  0.00    +0.000 NA
ATOM     23  C   UNL     1      11.254  12.224  18.666  0.00  0.00    +0.000 C 
ATOM     24  C   UNL     1      10.449  13.529  18.827  0.00  0.00    +0.000 C 
ATOM     25  N   UNL     1       9.958  13.664  20.208  0.00  0.00    +0.000 N 
ATOM     26  C   UNL     1       9.286  12.484  20.774  0.00  0.00    +0.000 C 
ATOM     27  C   UNL     1      10.101  11.191  20.494  0.00  0.00    +0.000 C 
BRANCH  25  28
ATOM     28  C   UNL     1      10.300  14.748  20.990  0.00  0.00    +0.000 A 
ATOM     29  C   UNL     1      11.262  15.682  20.561  0.00  0.00    +0.000 A 
ATOM     30  C   UNL     1      11.651  16.751  21.379  0.00  0.00    +0.000 A 
ATOM     31  C   UNL     1      11.081  16.903  22.636  0.00  0.00    +0.000 A 
ATOM     32 CL   UNL     1      11.579  18.193  23.657  0.00  0.00    +0.000 Cl
ATOM     33  C   UNL     1      10.111  16.015  23.075  0.00  0.00    +0.000 A 
ATOM     34  C   UNL     1       9.728  14.957  22.254  0.00  0.00    +0.000 A 
ENDBRANCH  25  28
ENDBRANCH  21  22
ENDBRANCH  20  21
ENDBRANCH  19  20
ENDBRANCH  18  19
ENDBRANCH  11  18
TORSDOF 7
ENDMDL
MODEL 7
REMARK VINA RESULT:      -7.3      7.969     12.132
REMARK  Name = 
REMARK  7 active torsions:
REMARK  status: ('A' for Active; 'I' for Inactive)
REMARK    1  A    between atoms: C_2  and  C_4
REMARK    2  A    between atoms: C_14  and  C_16
REMARK    3  A    between atoms: C_16  and  C_17
REMARK    4  A    between atoms: C_17  and  C_18
REMARK    5  A    between atoms: C_18  and  C_19
REMARK    6  A    between atoms: C_19  and  N_20
REMARK    7  A    between atoms: N_23  and  C_24
REMARK                            x       y       z     vdW  Elec       q    Type
REMARK                         _______ _______ _______ _____ _____    ______ ____
ROOT
ATOM      1  C   UNL     1       1.174   6.998  20.185  0.00  0.00    +0.000 C 
ATOM      2  C   UNL     1       1.383   5.646  20.902  0.00  0.00    +0.000 C 
ATOM      3  C   UNL     1       1.577   4.550  19.894  0.00  0.00    +0.000 A 
ATOM      4  C   UNL     1       1.012   3.280  20.046  0.00  0.00    +0.000 A 
ATOM      5  C   UNL     1       1.230   2.303  19.075  0.00  0.00    +0.000 A 
ATOM      6  C   UNL     1       2.018   2.587  17.960  0.00  0.00    +0.000 A 
ATOM      7  C   UNL     1       2.607   3.845  17.820  0.00  0.00    +0.000 A 
ATOM      8  C   UNL     1       2.391   4.832  18.787  0.00  0.00    +0.000 A 
ATOM      9  C   UNL     1       3.073   6.175  18.720  0.00  0.00    +0.000 C 
ATOM     10  N   UNL     1       2.210   7.286  19.143  0.00  0.00    +0.000 N 
ATOM     11  C   UNL     1       2.169   8.387  18.287  0.00  0.00    +0.000 C 
ATOM     12  O   UNL     1       2.918   8.489  17.315  0.00  0.00    +0.000 OA
ENDROOT
BRANCH   1  14
ATOM     13  N   UNL     1      -0.134   8.532  21.616  0.00  0.00    +0.000 N 
ATOM     14  C   UNL     1       1.103   8.057  21.296  0.00  0.00    +0.000 C 
ATOM     15  O   UNL     1       2.104   8.547  21.814  0.00  0.00    +0.000 OA
ATOM     16  H   UNL     1      -0.197   9.164  22.406  0.00  0.00    +0.000 HD
ATOM     17  H   UNL     1      -0.974   8.078  21.280  0.00  0.00    +0.000 HD
ENDBRANCH   1  14
BRANCH  11  18
ATOM     18  C   UNL     1       1.285   9.557  18.670  0.00  0.00    +0.000 C 
BRANCH  18  19
ATOM     19  C   UNL     1       1.742  10.871  18.035  0.00  0.00    +0.000 C 
BRANCH  19  20
ATOM     20  C   UNL     1       0.884  12.050  18.506  0.00  0.00    +0.000 C 
BRANCH  20  21
ATOM     21  C   UNL     1       0.838  12.144  20.037  0.00  0.00    +0.000 C 
BRANCH  21  22
ATOM     22  N   UNL     1       0.187  13.353  20.560  0.00  0.00    +0.000 NA
ATOM     23  C   UNL     1      -1.129  13.631  19.936  0.00  0.00    +0.000 C 
ATOM     24  C   UNL     1      -2.224  12.586  20.235  0.00  0.00    +0.000 C 
ATOM     25  N   UNL     1      -2.373  12.399  21.687  0.00  0.00    +0.000 N 
ATOM     26  C   UNL     1      -1.130  12.182  22.443  0.00  0.00    +0.000 C 
ATOM     27  C   UNL     1      -0.038  13.205  22.025  0.00  0.00    +0.000 C 
BRANCH  25  28
ATOM     28  C   UNL     1      -3.576  12.630  22.322  0.00  0.00    +0.000 A 
ATOM     29  C   UNL     1      -3.694  12.528  23.721  0.00  0.00    +0.000 A 
ATOM     30  C   UNL     1      -4.928  12.706  24.360  0.00  0.00    +0.000 A 
ATOM     31  C   UNL     1      -6.060  12.993  23.610  0.00  0.00    +0.000 A 
ATOM     32 CL   UNL     1      -7.583  13.179  24.386  0.00  0.00    +0.000 Cl
ATOM     33  C   UNL     1      -5.971  13.127  22.233  0.00  0.00    +0.000 A 
ATOM     34  C   UNL     1      -4.739  12.950  21.606  0.00  0.00    +0.000 A 
ENDBRANCH  25  28
ENDBRANCH  21  22
ENDBRANCH  20  21
ENDBRANCH  19  20
ENDBRANCH  18  19
ENDBRANCH  11  18
TORSDOF 7
ENDMDL
MODEL 8
REMARK VINA RESULT:      -7.3      7.410     11.164
REMARK  Name = 
REMARK  7 active torsions:
REMARK  status: ('A' for Active; 'I' for Inactive)
REMARK    1  A    between atoms: C_2  and  C_4
REMARK    2  A    between atoms: C_14  and  C_16
REMARK    3  A    between atoms: C_16  and  C_17
REMARK    4  A    between atoms: C_17  and  C_18
REMARK    5  A    between atoms: C_18  and  C_19
REMARK    6  A    between atoms: C_19  and  N_20
REMARK    7  A    between atoms: N_23  and  C_24
REMARK                            x       y       z     vdW  Elec       q    Type
REMARK                         _______ _______ _______ _____ _____    ______ ____
ROOT
ATOM      1  C   UNL     1       4.547   4.410  16.028  0.00  0.00    +0.000 C 
ATOM      2  C   UNL     1       5.219   3.273  15.228  0.00  0.00    +0.000 C 
ATOM      3  C   UNL     1       6.092   3.846  14.148  0.00  0.00    +0.000 A 
ATOM      4  C   UNL     1       6.166   3.288  12.868  0.00  0.00    +0.000 A 
ATOM      5  C   UNL     1       6.996   3.866  11.907  0.00  0.00    +0.000 A 
ATOM      6  C   UNL     1       7.759   4.990  12.225  0.00  0.00    +0.000 A 
ATOM      7  C   UNL     1       7.708   5.532  13.511  0.00  0.00    +0.000 A 
ATOM      8  C   UNL     1       6.875   4.960  14.479  0.00  0.00    +0.000 A 
ATOM      9  C   UNL     1       6.851   5.460  15.902  0.00  0.00    +0.000 C 
ATOM     10  N   UNL     1       5.507   5.460  16.494  0.00  0.00    +0.000 N 
ATOM     11  C   UNL     1       5.122   6.639  17.134  0.00  0.00    +0.000 C 
ATOM     12  O   UNL     1       5.908   7.568  17.323  0.00  0.00    +0.000 OA
ENDROOT
BRANCH   1  14
ATOM     13  N   UNL     1       4.523   3.181  18.173  0.00  0.00    +0.000 N 
ATOM     14  C   UNL     1       3.778   3.725  17.168  0.00  0.00    +0.000 C 
ATOM     15  O   UNL     1       2.560   3.565  17.150  0.00  0.00    +0.000 OA
ATOM     16  H   UNL     1       4.022   2.806  18.970  0.00  0.00    +0.000 HD
ATOM     17  H   UNL     1       5.510   3.383  18.263  0.00  0.00    +0.000 HD
ENDBRANCH   1  14
BRANCH  11  18
ATOM     18  C   UNL     1       3.740   6.697  17.753  0.00  0.00    +0.000 C 
BRANCH  18  19
ATOM     19  C   UNL     1       3.319   8.122  18.117  0.00  0.00    +0.000 C 
BRANCH  19  20
ATOM     20  C   UNL     1       1.836   8.362  17.816  0.00  0.00    +0.000 C 
BRANCH  20  21
ATOM     21  C   UNL     1       1.315   9.632  18.503  0.00  0.00    +0.000 C 
BRANCH  21  22
ATOM     22  N   UNL     1       0.010   9.484  19.161  0.00  0.00    +0.000 NA
ATOM     23  C   UNL     1       0.107   9.345  20.635  0.00  0.00    +0.000 C 
ATOM     24  C   UNL     1       0.640  10.590  21.372  0.00  0.00    +0.000 C 
ATOM     25  N   UNL     1      -0.155  11.777  21.020  0.00  0.00    +0.000 N 
ATOM     26  C   UNL     1      -0.387  11.997  19.584  0.00  0.00    +0.000 C 
ATOM     27  C   UNL     1      -0.829  10.683  18.882  0.00  0.00    +0.000 C 
BRANCH  25  28
ATOM     28  C   UNL     1      -0.821  12.509  21.982  0.00  0.00    +0.000 A 
ATOM     29  C   UNL     1      -2.022  12.044  22.550  0.00  0.00    +0.000 A 
ATOM     30  C   UNL     1      -2.727  12.813  23.485  0.00  0.00    +0.000 A 
ATOM     31  C   UNL     1      -2.239  14.055  23.869  0.00  0.00    +0.000 A 
ATOM     32 CL   UNL     1      -3.118  15.017  24.990  0.00  0.00    +0.000 Cl
ATOM     33  C   UNL     1      -1.044  14.527  23.348  0.00  0.00    +0.000 A 
ATOM     34  C   UNL     1      -0.348  13.754  22.420  0.00  0.00    +0.000 A 
ENDBRANCH  25  28
ENDBRANCH  21  22
ENDBRANCH  20  21
ENDBRANCH  19  20
ENDBRANCH  18  19
ENDBRANCH  11  18
TORSDOF 7
ENDMDL
MODEL 9
REMARK VINA RESULT:      -7.3      7.211     11.039
REMARK  Name = 
REMARK  7 active torsions:
REMARK  status: ('A' for Active; 'I' for Inactive)
REMARK    1  A    between atoms: C_2  and  C_4
REMARK    2  A    between atoms: C_14  and  C_16
REMARK    3  A    between atoms: C_16  and  C_17
REMARK    4  A    between atoms: C_17  and  C_18
REMARK    5  A    between atoms: C_18  and  C_19
REMARK    6  A    between atoms: C_19  and  N_20
REMARK    7  A    between atoms: N_23  and  C_24
REMARK                            x       y       z     vdW  Elec       q    Type
REMARK                         _______ _______ _______ _____ _____    ______ ____
ROOT
ATOM      1  C   UNL     1       4.618   4.525  16.272  0.00  0.00    +0.000 C 
ATOM      2  C   UNL     1       5.215   3.356  15.459  0.00  0.00    +0.000 C 
ATOM      3  C   UNL     1       6.052   3.885  14.329  0.00  0.00    +0.000 A 
ATOM      4  C   UNL     1       6.046   3.307  13.055  0.00  0.00    +0.000 A 
ATOM      5  C   UNL     1       6.846   3.844  12.047  0.00  0.00    +0.000 A 
ATOM      6  C   UNL     1       7.658   4.947  12.310  0.00  0.00    +0.000 A 
ATOM      7  C   UNL     1       7.687   5.508  13.588  0.00  0.00    +0.000 A 
ATOM      8  C   UNL     1       6.885   4.978  14.604  0.00  0.00    +0.000 A 
ATOM      9  C   UNL     1       6.946   5.497  16.019  0.00  0.00    +0.000 C 
ATOM     10  N   UNL     1       5.633   5.550  16.675  0.00  0.00    +0.000 N 
ATOM     11  C   UNL     1       5.317   6.749  17.315  0.00  0.00    +0.000 C 
ATOM     12  O   UNL     1       6.141   7.654  17.451  0.00  0.00    +0.000 OA
ENDROOT
BRANCH   1  14
ATOM     13  N   UNL     1       2.525   3.821  17.384  0.00  0.00    +0.000 N 
ATOM     14  C   UNL     1       3.885   3.881  17.458  0.00  0.00    +0.000 C 
ATOM     15  O   UNL     1       4.461   3.525  18.484  0.00  0.00    +0.000 OA
ATOM     16  H   UNL     1       2.042   3.320  18.120  0.00  0.00    +0.000 HD
ATOM     17  H   UNL     1       2.038   4.013  16.517  0.00  0.00    +0.000 HD
ENDBRANCH   1  14
BRANCH  11  18
ATOM     18  C   UNL     1       3.970   6.861  17.998  0.00  0.00    +0.000 C 
BRANCH  18  19
ATOM     19  C   UNL     1       3.076   7.927  17.364  0.00  0.00    +0.000 C 
BRANCH  19  20
ATOM     20  C   UNL     1       2.015   8.429  18.350  0.00  0.00    +0.000 C 
BRANCH  20  21
ATOM     21  C   UNL     1       1.741   9.929  18.177  0.00  0.00    +0.000 C 
BRANCH  21  22
ATOM     22  N   UNL     1       1.275  10.612  19.390  0.00  0.00    +0.000 NA
ATOM     23  C   UNL     1       0.824  12.005  19.146  0.00  0.00    +0.000 C 
ATOM     24  C   UNL     1      -0.434  12.136  18.264  0.00  0.00    +0.000 C 
ATOM     25  N   UNL     1      -1.534  11.329  18.814  0.00  0.00    +0.000 N 
ATOM     26  C   UNL     1      -1.205   9.939  19.166  0.00  0.00    +0.000 C 
ATOM     27  C   UNL     1       0.122   9.868  19.971  0.00  0.00    +0.000 C 
BRANCH  25  28
ATOM     28  C   UNL     1      -2.735  11.904  19.176  0.00  0.00    +0.000 A 
ATOM     29  C   UNL     1      -2.839  12.716  20.321  0.00  0.00    +0.000 A 
ATOM     30  C   UNL     1      -4.069  13.253  20.722  0.00  0.00    +0.000 A 
ATOM     31  C   UNL     1      -5.213  12.989  19.980  0.00  0.00    +0.000 A 
ATOM     32 CL   UNL     1      -6.731  13.617  20.486  0.00  0.00    +0.000 Cl
ATOM     33  C   UNL     1      -5.138  12.215  18.832  0.00  0.00    +0.000 A 
ATOM     34  C   UNL     1      -3.910  11.687  18.440  0.00  0.00    +0.000 A 
ENDBRANCH  25  28
ENDBRANCH  21  22
ENDBRANCH  20  21
ENDBRANCH  19  20
ENDBRANCH  18  19
ENDBRANCH  11  18
TORSDOF 7
ENDMDL
