MODEL 1
REMARK VINA RESULT:      -7.7      0.000      0.000
REMARK  Name = 
REMARK  5 active torsions:
REMARK  status: ('A' for Active; 'I' for Inactive)
REMARK    1  A    between atoms: C_5  and  C_6
REMARK    2  A    between atoms: C_6  and  N_7
REMARK    3  A    between atoms: N_7  and  C_8
REMARK    4  A    between atoms: N_11  and  C_12
REMARK    5  A    between atoms: C_12  and  C_13
REMARK                            x       y       z     vdW  Elec       q    Type
REMARK                         _______ _______ _______ _____ _____    ______ ____
ROOT
ATOM      1  C   UNL     1       7.251   6.013  18.038  0.00  0.00    +0.000 C 
ATOM      2  C   UNL     1       6.496   5.338  19.191  0.00  0.00    +0.000 C 
ATOM      3  C   UNL     1       5.076   4.932  18.791  0.00  0.00    +0.000 C 
ATOM      4  N   UNL     1       4.299   6.100  18.343  0.00  0.00    +0.000 NA
ATOM      5  C   UNL     1       4.958   6.743  17.192  0.00  0.00    +0.000 C 
ATOM      6  C   UNL     1       6.384   7.178  17.532  0.00  0.00    +0.000 C 
ENDROOT
BRANCH   1   7
ATOM      7  N   UNL     1       7.615   5.013  16.999  0.00  0.00    +0.000 NA
ATOM      8  H   UNL     1       8.574   4.713  17.182  0.00  0.00    +0.000 HD
BRANCH   7   9
ATOM      9  C   UNL     1       7.579   5.618  15.658  0.00  0.00    +0.000 C 
BRANCH   9  14
ATOM     10 CL   UNL     1       4.946   2.546  11.156  0.00  0.00    +0.000 Cl
ATOM     11  C   UNL     1       5.680   3.414  12.446  0.00  0.00    +0.000 A 
ATOM     12  C   UNL     1       5.139   3.350  13.727  0.00  0.00    +0.000 A 
ATOM     13  C   UNL     1       5.734   4.056  14.778  0.00  0.00    +0.000 A 
ATOM     14  C   UNL     1       6.886   4.830  14.564  0.00  0.00    +0.000 A 
ATOM     15  C   UNL     1       7.408   4.882  13.250  0.00  0.00    +0.000 A 
ATOM     16 CL   UNL     1       8.813   5.824  12.867  0.00  0.00    +0.000 Cl
ATOM     17  C   UNL     1       6.812   4.181  12.202  0.00  0.00    +0.000 A 
ENDBRANCH   9  14
ENDBRANCH   7   9
ENDBRANCH   1   7
BRANCH   4  18
ATOM     18  C   UNL     1       2.923   5.717  17.967  0.00  0.00    +0.000 C 
BRANCH  18  19
ATOM     19  C   UNL     1       2.263   4.759  18.938  0.00  0.00    +0.000 A 
ATOM     20  C   UNL     1       2.348   4.971  20.322  0.00  0.00    +0.000 A 
ATOM     21  C   UNL     1       1.732   4.089  21.213  0.00  0.00    +0.000 A 
ATOM     22  C   UNL     1       1.024   2.990  20.730  0.00  0.00    +0.000 A 
ATOM     23  C   UNL     1       0.932   2.770  19.357  0.00  0.00    +0.000 A 
ATOM     24  C   UNL     1       1.548   3.650  18.465  0.00  0.00    +0.000 A 
ENDBRANCH  18  19
ENDBRANCH   4  18
TORSDOF 5
ENDMDL
MODEL 2
REMARK VINA RESULT:      -7.5      0.658      1.225
REMARK  Name = 
REMARK  5 active torsions:
REMARK  status: ('A' for Active; 'I' for Inactive)
REMARK    1  A    between atoms: C_5  and  C_6
REMARK    2  A    between atoms: C_6  and  N_7
REMARK    3  A    between atoms: N_7  and  C_8
REMARK    4  A    between atoms: N_11  and  C_12
REMARK    5  A    between atoms: C_12  and  C_13
REMARK                            x       y       z     vdW  Elec       q    Type
REMARK                         _______ _______ _______ _____ _____    ______ ____
ROOT
ATOM      1  C   UNL     1       7.123   5.935  18.009  0.00  0.00    +0.000 C 
ATOM      2  C   UNL     1       6.346   5.498  19.258  0.00  0.00    +0.000 C 
ATOM      3  C   UNL     1       4.884   5.178  18.946  0.00  0.00    +0.000 C 
ATOM      4  N   UNL     1       4.202   6.343  18.355  0.00  0.00    +0.000 NA
ATOM      5  C   UNL     1       4.881   6.758  17.114  0.00  0.00    +0.000 C 
ATOM      6  C   UNL     1       6.351   7.098  17.363  0.00  0.00    +0.000 C 
ENDROOT
BRANCH   1   7
ATOM      7  N   UNL     1       7.361   4.774  17.111  0.00  0.00    +0.000 NA
ATOM      8  H   UNL     1       8.183   4.277  17.460  0.00  0.00    +0.000 HD
BRANCH   7   9
ATOM      9  C   UNL     1       7.652   5.224  15.742  0.00  0.00    +0.000 C 
BRANCH   9  14
ATOM     10 CL   UNL     1       4.542   2.819  11.140  0.00  0.00    +0.000 Cl
ATOM     11  C   UNL     1       5.412   3.498  12.459  0.00  0.00    +0.000 A 
ATOM     12  C   UNL     1       4.958   3.315  13.762  0.00  0.00    +0.000 A 
ATOM     13  C   UNL     1       5.663   3.867  14.836  0.00  0.00    +0.000 A 
ATOM     14  C   UNL     1       6.841   4.602  14.623  0.00  0.00    +0.000 A 
ATOM     15  C   UNL     1       7.273   4.776  13.287  0.00  0.00    +0.000 A 
ATOM     16 CL   UNL     1       8.701   5.684  12.905  0.00  0.00    +0.000 Cl
ATOM     17  C   UNL     1       6.567   4.230  12.216  0.00  0.00    +0.000 A 
ENDBRANCH   9  14
ENDBRANCH   7   9
ENDBRANCH   1   7
BRANCH   4  18
ATOM     18  C   UNL     1       2.786   6.045  18.062  0.00  0.00    +0.000 C 
BRANCH  18  19
ATOM     19  C   UNL     1       2.386   4.612  18.348  0.00  0.00    +0.000 A 
ATOM     20  C   UNL     1       2.741   3.580  17.466  0.00  0.00    +0.000 A 
ATOM     21  C   UNL     1       2.376   2.260  17.738  0.00  0.00    +0.000 A 
ATOM     22  C   UNL     1       1.657   1.957  18.893  0.00  0.00    +0.000 A 
ATOM     23  C   UNL     1       1.300   2.974  19.776  0.00  0.00    +0.000 A 
ATOM     24  C   UNL     1       1.663   4.294  19.506  0.00  0.00    +0.000 A 
ENDBRANCH  18  19
ENDBRANCH   4  18
TORSDOF 5
ENDMDL
MODEL 3
REMARK VINA RESULT:      -7.5      4.944      8.363
REMARK  Name = 
REMARK  5 active torsions:
REMARK  status: ('A' for Active; 'I' for Inactive)
REMARK    1  A    between atoms: C_5  and  C_6
REMARK    2  A    between atoms: C_6  and  N_7
REMARK    3  A    between atoms: N_7  and  C_8
REMARK    4  A    between atoms: N_11  and  C_12
REMARK    5  A    between atoms: C_12  and  C_13
REMARK                            x       y       z     vdW  Elec       q    Type
REMARK                         _______ _______ _______ _____ _____    ______ ____
ROOT
ATOM      1  C   UNL     1       2.106   5.365  19.738  0.00  0.00    +0.000 C 
ATOM      2  C   UNL     1       3.000   4.181  20.132  0.00  0.00    +0.000 C 
ATOM      3  C   UNL     1       4.341   4.200  19.396  0.00  0.00    +0.000 C 
ATOM      4  N   UNL     1       4.143   4.170  17.937  0.00  0.00    +0.000 NA
ATOM      5  C   UNL     1       3.339   5.328  17.505  0.00  0.00    +0.000 C 
ATOM      6  C   UNL     1       1.981   5.362  18.204  0.00  0.00    +0.000 C 
ENDROOT
BRANCH   1   7
ATOM      7  N   UNL     1       2.633   6.630  20.315  0.00  0.00    +0.000 NA
ATOM      8  H   UNL     1       2.389   6.641  21.307  0.00  0.00    +0.000 HD
BRANCH   7   9
ATOM      9  C   UNL     1       2.001   7.796  19.679  0.00  0.00    +0.000 C 
BRANCH   9  14
ATOM     10 CL   UNL     1      -1.433  11.468  23.050  0.00  0.00    +0.000 Cl
ATOM     11  C   UNL     1      -0.450  10.418  22.108  0.00  0.00    +0.000 A 
ATOM     12  C   UNL     1       0.338   9.455  22.730  0.00  0.00    +0.000 A 
ATOM     13  C   UNL     1       1.139   8.600  21.966  0.00  0.00    +0.000 A 
ATOM     14  C   UNL     1       1.156   8.691  20.565  0.00  0.00    +0.000 A 
ATOM     15  C   UNL     1       0.351   9.685  19.961  0.00  0.00    +0.000 A 
ATOM     16 CL   UNL     1       0.310   9.902  18.241  0.00  0.00    +0.000 Cl
ATOM     17  C   UNL     1      -0.445  10.540  20.724  0.00  0.00    +0.000 A 
ENDBRANCH   9  14
ENDBRANCH   7   9
ENDBRANCH   1   7
BRANCH   4  18
ATOM     18  C   UNL     1       5.433   4.175  17.220  0.00  0.00    +0.000 C 
BRANCH  18  19
ATOM     19  C   UNL     1       6.368   5.290  17.642  0.00  0.00    +0.000 A 
ATOM     20  C   UNL     1       7.232   5.125  18.735  0.00  0.00    +0.000 A 
ATOM     21  C   UNL     1       8.097   6.152  19.116  0.00  0.00    +0.000 A 
ATOM     22  C   UNL     1       8.110   7.353  18.409  0.00  0.00    +0.000 A 
ATOM     23  C   UNL     1       7.257   7.528  17.320  0.00  0.00    +0.000 A 
ATOM     24  C   UNL     1       6.391   6.502  16.939  0.00  0.00    +0.000 A 
ENDBRANCH  18  19
ENDBRANCH   4  18
TORSDOF 5
ENDMDL
MODEL 4
REMARK VINA RESULT:      -7.4      4.050      5.494
REMARK  Name = 
REMARK  5 active torsions:
REMARK  status: ('A' for Active; 'I' for Inactive)
REMARK    1  A    between atoms: C_5  and  C_6
REMARK    2  A    between atoms: C_6  and  N_7
REMARK    3  A    between atoms: N_7  and  C_8
REMARK    4  A    between atoms: N_11  and  C_12
REMARK    5  A    between atoms: C_12  and  C_13
REMARK                            x       y       z     vdW  Elec       q    Type
REMARK                         _______ _______ _______ _____ _____    ______ ____
ROOT
ATOM      1  C   UNL     1       2.720   5.543  19.414  0.00  0.00    +0.000 C 
ATOM      2  C   UNL     1       2.340   6.208  18.084  0.00  0.00    +0.000 C 
ATOM      3  C   UNL     1       2.349   7.735  18.180  0.00  0.00    +0.000 C 
ATOM      4  N   UNL     1       1.418   8.204  19.220  0.00  0.00    +0.000 NA
ATOM      5  C   UNL     1       1.785   7.637  20.530  0.00  0.00    +0.000 C 
ATOM      6  C   UNL     1       1.789   6.109  20.500  0.00  0.00    +0.000 C 
ENDROOT
BRANCH   1   7
ATOM      7  N   UNL     1       4.171   5.717  19.688  0.00  0.00    +0.000 NA
ATOM      8  H   UNL     1       4.487   6.535  19.163  0.00  0.00    +0.000 HD
BRANCH   7   9
ATOM      9  C   UNL     1       4.935   4.553  19.215  0.00  0.00    +0.000 C 
BRANCH   9  14
ATOM     10 CL   UNL     1       7.301   4.912  13.655  0.00  0.00    +0.000 Cl
ATOM     11  C   UNL     1       6.613   4.803  15.228  0.00  0.00    +0.000 A 
ATOM     12  C   UNL     1       5.386   4.172  15.411  0.00  0.00    +0.000 A 
ATOM     13  C   UNL     1       4.824   4.083  16.688  0.00  0.00    +0.000 A 
ATOM     14  C   UNL     1       5.488   4.616  17.805  0.00  0.00    +0.000 A 
ATOM     15  C   UNL     1       6.730   5.258  17.587  0.00  0.00    +0.000 A 
ATOM     16 CL   UNL     1       7.627   5.970  18.889  0.00  0.00    +0.000 Cl
ATOM     17  C   UNL     1       7.287   5.350  16.312  0.00  0.00    +0.000 A 
ENDBRANCH   9  14
ENDBRANCH   7   9
ENDBRANCH   1   7
BRANCH   4  18
ATOM     18  C   UNL     1       1.412   9.678  19.310  0.00  0.00    +0.000 C 
BRANCH  18  19
ATOM     19  C   UNL     1       0.072  10.309  18.991  0.00  0.00    +0.000 A 
ATOM     20  C   UNL     1      -0.663   9.902  17.868  0.00  0.00    +0.000 A 
ATOM     21  C   UNL     1      -1.901  10.481  17.583  0.00  0.00    +0.000 A 
ATOM     22  C   UNL     1      -2.418  11.471  18.417  0.00  0.00    +0.000 A 
ATOM     23  C   UNL     1      -1.697  11.883  19.537  0.00  0.00    +0.000 A 
ATOM     24  C   UNL     1      -0.460  11.305  19.823  0.00  0.00    +0.000 A 
ENDBRANCH  18  19
ENDBRANCH   4  18
TORSDOF 5
ENDMDL
MODEL 5
REMARK VINA RESULT:      -7.4      4.246      7.587
REMARK  Name = 
REMARK  5 active torsions:
REMARK  status: ('A' for Active; 'I' for Inactive)
REMARK    1  A    between atoms: C_5  and  C_6
REMARK    2  A    between atoms: C_6  and  N_7
REMARK    3  A    between atoms: N_7  and  C_8
REMARK    4  A    between atoms: N_11  and  C_12
REMARK    5  A    between atoms: C_12  and  C_13
REMARK                            x       y       z     vdW  Elec       q    Type
REMARK                         _______ _______ _______ _____ _____    ______ ____
ROOT
ATOM      1  C   UNL     1       2.057   4.205  20.236  0.00  0.00    +0.000 C 
ATOM      2  C   UNL     1       3.143   3.120  20.270  0.00  0.00    +0.000 C 
ATOM      3  C   UNL     1       4.237   3.365  19.229  0.00  0.00    +0.000 C 
ATOM      4  N   UNL     1       3.670   3.417  17.870  0.00  0.00    +0.000 NA
ATOM      5  C   UNL     1       2.665   4.490  17.775  0.00  0.00    +0.000 C 
ATOM      6  C   UNL     1       1.539   4.298  18.790  0.00  0.00    +0.000 C 
ENDROOT
BRANCH   1   7
ATOM      7  N   UNL     1       2.579   5.481  20.791  0.00  0.00    +0.000 NA
ATOM      8  H   UNL     1       1.969   5.752  21.565  0.00  0.00    +0.000 HD
BRANCH   7   9
ATOM      9  C   UNL     1       2.530   6.548  19.780  0.00  0.00    +0.000 C 
BRANCH   9  14
ATOM     10 CL   UNL     1      -0.702  11.535  20.932  0.00  0.00    +0.000 Cl
ATOM     11  C   UNL     1       0.215  10.113  20.623  0.00  0.00    +0.000 A 
ATOM     12  C   UNL     1       0.340   9.136  21.606  0.00  0.00    +0.000 A 
ATOM     13  C   UNL     1       1.086   7.979  21.357  0.00  0.00    +0.000 A 
ATOM     14  C   UNL     1       1.709   7.778  20.115  0.00  0.00    +0.000 A 
ATOM     15  C   UNL     1       1.570   8.792  19.138  0.00  0.00    +0.000 A 
ATOM     16 CL   UNL     1       2.315   8.660  17.577  0.00  0.00    +0.000 Cl
ATOM     17  C   UNL     1       0.830   9.948  19.389  0.00  0.00    +0.000 A 
ENDBRANCH   9  14
ENDBRANCH   7   9
ENDBRANCH   1   7
BRANCH   4  18
ATOM     18  C   UNL     1       4.723   3.641  16.859  0.00  0.00    +0.000 C 
BRANCH  18  19
ATOM     19  C   UNL     1       5.649   4.796  17.179  0.00  0.00    +0.000 A 
ATOM     20  C   UNL     1       5.310   6.108  16.815  0.00  0.00    +0.000 A 
ATOM     21  C   UNL     1       6.164   7.170  17.118  0.00  0.00    +0.000 A 
ATOM     22  C   UNL     1       7.362   6.934  17.790  0.00  0.00    +0.000 A 
ATOM     23  C   UNL     1       7.708   5.635  18.158  0.00  0.00    +0.000 A 
ATOM     24  C   UNL     1       6.856   4.572  17.855  0.00  0.00    +0.000 A 
ENDBRANCH  18  19
ENDBRANCH   4  18
TORSDOF 5
ENDMDL
MODEL 6
REMARK VINA RESULT:      -7.4      4.251      7.597
REMARK  Name = 
REMARK  5 active torsions:
REMARK  status: ('A' for Active; 'I' for Inactive)
REMARK    1  A    between atoms: C_5  and  C_6
REMARK    2  A    between atoms: C_6  and  N_7
REMARK    3  A    between atoms: N_7  and  C_8
REMARK    4  A    between atoms: N_11  and  C_12
REMARK    5  A    between atoms: C_12  and  C_13
REMARK                            x       y       z     vdW  Elec       q    Type
REMARK                         _______ _______ _______ _____ _____    ______ ____
ROOT
ATOM      1  C   UNL     1       2.116   4.175  20.026  0.00  0.00    +0.000 C 
ATOM      2  C   UNL     1       3.199   3.089  20.088  0.00  0.00    +0.000 C 
ATOM      3  C   UNL     1       4.356   3.372  19.128  0.00  0.00    +0.000 C 
ATOM      4  N   UNL     1       3.876   3.475  17.739  0.00  0.00    +0.000 NA
ATOM      5  C   UNL     1       2.877   4.552  17.620  0.00  0.00    +0.000 C 
ATOM      6  C   UNL     1       1.689   4.322  18.555  0.00  0.00    +0.000 C 
ENDROOT
BRANCH   1   7
ATOM      7  N   UNL     1       2.599   5.430  20.660  0.00  0.00    +0.000 NA
ATOM      8  H   UNL     1       1.968   5.646  21.434  0.00  0.00    +0.000 HD
BRANCH   7   9
ATOM      9  C   UNL     1       2.547   6.549  19.707  0.00  0.00    +0.000 C 
BRANCH   9  14
ATOM     10 CL   UNL     1      -0.730  11.443  21.105  0.00  0.00    +0.000 Cl
ATOM     11  C   UNL     1       0.200  10.047  20.725  0.00  0.00    +0.000 A 
ATOM     12  C   UNL     1       0.348   9.030  21.664  0.00  0.00    +0.000 A 
ATOM     13  C   UNL     1       1.104   7.894  21.359  0.00  0.00    +0.000 A 
ATOM     14  C   UNL     1       1.716   7.754  20.102  0.00  0.00    +0.000 A 
ATOM     15  C   UNL     1       1.554   8.807  19.171  0.00  0.00    +0.000 A 
ATOM     16 CL   UNL     1       2.284   8.750  17.599  0.00  0.00    +0.000 Cl
ATOM     17  C   UNL     1       0.804   9.942  19.479  0.00  0.00    +0.000 A 
ENDBRANCH   9  14
ENDBRANCH   7   9
ENDBRANCH   1   7
BRANCH   4  18
ATOM     18  C   UNL     1       4.990   3.736  16.805  0.00  0.00    +0.000 C 
BRANCH  18  19
ATOM     19  C   UNL     1       5.885   4.886  17.219  0.00  0.00    +0.000 A 
ATOM     20  C   UNL     1       6.967   4.675  18.087  0.00  0.00    +0.000 A 
ATOM     21  C   UNL     1       7.793   5.737  18.459  0.00  0.00    +0.000 A 
ATOM     22  C   UNL     1       7.549   7.018  17.968  0.00  0.00    +0.000 A 
ATOM     23  C   UNL     1       6.477   7.240  17.105  0.00  0.00    +0.000 A 
ATOM     24  C   UNL     1       5.650   6.179  16.732  0.00  0.00    +0.000 A 
ENDBRANCH  18  19
ENDBRANCH   4  18
TORSDOF 5
ENDMDL
MODEL 7
REMARK VINA RESULT:      -7.4      4.026      5.367
REMARK  Name = 
REMARK  5 active torsions:
REMARK  status: ('A' for Active; 'I' for Inactive)
REMARK    1  A    between atoms: C_5  and  C_6
REMARK    2  A    between atoms: C_6  and  N_7
REMARK    3  A    between atoms: N_7  and  C_8
REMARK    4  A    between atoms: N_11  and  C_12
REMARK    5  A    between atoms: C_12  and  C_13
REMARK                            x       y       z     vdW  Elec       q    Type
REMARK                         _______ _______ _______ _____ _____    ______ ____
ROOT
ATOM      1  C   UNL     1       2.784   5.503  19.340  0.00  0.00    +0.000 C 
ATOM      2  C   UNL     1       2.436   6.287  18.067  0.00  0.00    +0.000 C 
ATOM      3  C   UNL     1       2.393   7.796  18.312  0.00  0.00    +0.000 C 
ATOM      4  N   UNL     1       1.407   8.134  19.353  0.00  0.00    +0.000 NA
ATOM      5  C   UNL     1       1.740   7.449  20.616  0.00  0.00    +0.000 C 
ATOM      6  C   UNL     1       1.793   5.932  20.436  0.00  0.00    +0.000 C 
ENDROOT
BRANCH   1   7
ATOM      7  N   UNL     1       4.216   5.689  19.691  0.00  0.00    +0.000 NA
ATOM      8  H   UNL     1       4.548   6.522  19.201  0.00  0.00    +0.000 HD
BRANCH   7   9
ATOM      9  C   UNL     1       5.018   4.544  19.233  0.00  0.00    +0.000 C 
BRANCH   9  14
ATOM     10 CL   UNL     1       7.265   4.861  13.621  0.00  0.00    +0.000 Cl
ATOM     11  C   UNL     1       6.611   4.763  15.209  0.00  0.00    +0.000 A 
ATOM     12  C   UNL     1       5.434   4.056  15.437  0.00  0.00    +0.000 A 
ATOM     13  C   UNL     1       4.900   3.975  16.727  0.00  0.00    +0.000 A 
ATOM     14  C   UNL     1       5.543   4.594  17.811  0.00  0.00    +0.000 A 
ATOM     15  C   UNL     1       6.734   5.311  17.548  0.00  0.00    +0.000 A 
ATOM     16 CL   UNL     1       7.599   6.132  18.807  0.00  0.00    +0.000 Cl
ATOM     17  C   UNL     1       7.263   5.395  16.260  0.00  0.00    +0.000 A 
ENDBRANCH   9  14
ENDBRANCH   7   9
ENDBRANCH   1   7
BRANCH   4  18
ATOM     18  C   UNL     1       1.352   9.591  19.587  0.00  0.00    +0.000 C 
BRANCH  18  19
ATOM     19  C   UNL     1       0.038  10.229  19.185  0.00  0.00    +0.000 A 
ATOM     20  C   UNL     1      -0.570  11.193  20.004  0.00  0.00    +0.000 A 
ATOM     21  C   UNL     1      -1.777  11.785  19.626  0.00  0.00    +0.000 A 
ATOM     22  C   UNL     1      -2.387  11.421  18.427  0.00  0.00    +0.000 A 
ATOM     23  C   UNL     1      -1.793  10.464  17.605  0.00  0.00    +0.000 A 
ATOM     24  C   UNL     1      -0.586   9.873  17.982  0.00  0.00    +0.000 A 
ENDBRANCH  18  19
ENDBRANCH   4  18
TORSDOF 5
ENDMDL
MODEL 8
REMARK VINA RESULT:      -7.3      4.434      7.666
REMARK  Name = 
REMARK  5 active torsions:
REMARK  status: ('A' for Active; 'I' for Inactive)
REMARK    1  A    between atoms: C_5  and  C_6
REMARK    2  A    between atoms: C_6  and  N_7
REMARK    3  A    between atoms: N_7  and  C_8
REMARK    4  A    between atoms: N_11  and  C_12
REMARK    5  A    between atoms: C_12  and  C_13
REMARK                            x       y       z     vdW  Elec       q    Type
REMARK                         _______ _______ _______ _____ _____    ______ ____
ROOT
ATOM      1  C   UNL     1       2.311   4.616  19.748  0.00  0.00    +0.000 C 
ATOM      2  C   UNL     1       3.375   3.523  19.926  0.00  0.00    +0.000 C 
ATOM      3  C   UNL     1       4.629   3.797  19.095  0.00  0.00    +0.000 C 
ATOM      4  N   UNL     1       4.301   3.901  17.662  0.00  0.00    +0.000 NA
ATOM      5  C   UNL     1       3.326   4.984  17.437  0.00  0.00    +0.000 C 
ATOM      6  C   UNL     1       2.044   4.763  18.240  0.00  0.00    +0.000 C 
ENDROOT
BRANCH   1   7
ATOM      7  N   UNL     1       2.732   5.868  20.429  0.00  0.00    +0.000 NA
ATOM      8  H   UNL     1       3.176   5.605  21.311  0.00  0.00    +0.000 HD
BRANCH   7   9
ATOM      9  C   UNL     1       1.567   6.709  20.742  0.00  0.00    +0.000 C 
BRANCH   9  14
ATOM     10 CL   UNL     1       1.194  12.215  18.257  0.00  0.00    +0.000 Cl
ATOM     11  C   UNL     1       1.307  10.644  18.947  0.00  0.00    +0.000 A 
ATOM     12  C   UNL     1       1.941   9.619  18.250  0.00  0.00    +0.000 A 
ATOM     13  C   UNL     1       2.033   8.341  18.809  0.00  0.00    +0.000 A 
ATOM     14  C   UNL     1       1.500   8.071  20.080  0.00  0.00    +0.000 A 
ATOM     15  C   UNL     1       0.855   9.130  20.761  0.00  0.00    +0.000 A 
ATOM     16 CL   UNL     1       0.141   8.905  22.326  0.00  0.00    +0.000 Cl
ATOM     17  C   UNL     1       0.759  10.404  20.201  0.00  0.00    +0.000 A 
ENDBRANCH   9  14
ENDBRANCH   7   9
ENDBRANCH   1   7
BRANCH   4  18
ATOM     18  C   UNL     1       5.509   4.154  16.852  0.00  0.00    +0.000 C 
BRANCH  18  19
ATOM     19  C   UNL     1       6.397   5.253  17.397  0.00  0.00    +0.000 A 
ATOM     20  C   UNL     1       7.246   5.013  18.488  0.00  0.00    +0.000 A 
ATOM     21  C   UNL     1       8.069   6.027  18.982  0.00  0.00    +0.000 A 
ATOM     22  C   UNL     1       8.054   7.289  18.390  0.00  0.00    +0.000 A 
ATOM     23  C   UNL     1       7.216   7.539  17.305  0.00  0.00    +0.000 A 
ATOM     24  C   UNL     1       6.392   6.526  16.810  0.00  0.00    +0.000 A 
ENDBRANCH  18  19
ENDBRANCH   4  18
TORSDOF 5
ENDMDL
MODEL 9
REMARK VINA RESULT:      -7.3      4.060      7.284
REMARK  Name = 
REMARK  5 active torsions:
REMARK  status: ('A' for Active; 'I' for Inactive)
REMARK    1  A    between atoms: C_5  and  C_6
REMARK    2  A    between atoms: C_6  and  N_7
REMARK    3  A    between atoms: N_7  and  C_8
REMARK    4  A    between atoms: N_11  and  C_12
REMARK    5  A    between atoms: C_12  and  C_13
REMARK                            x       y       z     vdW  Elec       q    Type
REMARK                         _______ _______ _______ _____ _____    ______ ____
ROOT
ATOM      1  C   UNL     1       1.599   4.124  20.811  0.00  0.00    +0.000 C 
ATOM      2  C   UNL     1       2.456   2.876  21.065  0.00  0.00    +0.000 C 
ATOM      3  C   UNL     1       3.625   2.770  20.085  0.00  0.00    +0.000 C 
ATOM      4  N   UNL     1       3.146   2.732  18.692  0.00  0.00    +0.000 NA
ATOM      5  C   UNL     1       2.368   3.946  18.386  0.00  0.00    +0.000 C 
ATOM      6  C   UNL     1       1.178   4.106  19.332  0.00  0.00    +0.000 C 
ENDROOT
BRANCH   1   7
ATOM      7  N   UNL     1       2.326   5.350  21.234  0.00  0.00    +0.000 NA
ATOM      8  H   UNL     1       1.726   5.853  21.891  0.00  0.00    +0.000 HD
BRANCH   7   9
ATOM      9  C   UNL     1       2.577   6.231  20.084  0.00  0.00    +0.000 C 
BRANCH   9  14
ATOM     10 CL   UNL     1      -0.228  11.588  19.825  0.00  0.00    +0.000 Cl
ATOM     11  C   UNL     1       0.564  10.065  19.916  0.00  0.00    +0.000 A 
ATOM     12  C   UNL     1       0.461   9.292  21.069  0.00  0.00    +0.000 A 
ATOM     13  C   UNL     1       1.105   8.053  21.147  0.00  0.00    +0.000 A 
ATOM     14  C   UNL     1       1.856   7.564  20.065  0.00  0.00    +0.000 A 
ATOM     15  C   UNL     1       1.948   8.375  18.909  0.00  0.00    +0.000 A 
ATOM     16 CL   UNL     1       2.866   7.880  17.523  0.00  0.00    +0.000 Cl
ATOM     17  C   UNL     1       1.309   9.612  18.835  0.00  0.00    +0.000 A 
ENDBRANCH   9  14
ENDBRANCH   7   9
ENDBRANCH   1   7
BRANCH   4  18
ATOM     18  C   UNL     1       4.269   2.617  17.741  0.00  0.00    +0.000 C 
BRANCH  18  19
ATOM     19  C   UNL     1       4.912   3.941  17.384  0.00  0.00    +0.000 A 
ATOM     20  C   UNL     1       5.650   4.659  18.337  0.00  0.00    +0.000 A 
ATOM     21  C   UNL     1       6.248   5.875  18.001  0.00  0.00    +0.000 A 
ATOM     22  C   UNL     1       6.116   6.385  16.711  0.00  0.00    +0.000 A 
ATOM     23  C   UNL     1       5.386   5.681  15.755  0.00  0.00    +0.000 A 
ATOM     24  C   UNL     1       4.788   4.465  16.090  0.00  0.00    +0.000 A 
ENDBRANCH  18  19
ENDBRANCH   4  18
TORSDOF 5
ENDMDL
