MODEL 1
REMARK VINA RESULT:      -8.1      0.000      0.000
REMARK  Name = 
REMARK  2 active torsions:
REMARK  status: ('A' for Active; 'I' for Inactive)
REMARK    1  A    between atoms: C_1  and  C_2
REMARK    2  A    between atoms: C_3  and  C_4
REMARK                            x       y       z     vdW  Elec       q    Type
REMARK                         _______ _______ _______ _____ _____    ______ ____
ROOT
ATOM      1  C   UNL     1       2.282   7.539  17.410  0.00  0.00    +0.000 C 
ATOM      2  C   UNL     1       2.433   6.626  18.574  0.00  0.00    +0.000 A 
ATOM      3  C   UNL     1       2.900   5.319  18.650  0.00  0.00    +0.000 A 
ATOM      4  C   UNL     1       2.745   4.977  20.005  0.00  0.00    +0.000 A 
ATOM      5  N   UNL     1       2.229   5.960  20.736  0.00  0.00    +0.000 NA
ATOM      6  N   UNL     1       2.079   6.996  19.863  0.00  0.00    +0.000 N 
ATOM      7  C   UNL     1       1.609   8.245  20.340  0.00  0.00    +0.000 A 
ATOM      8  N   UNL     1       1.636   9.347  19.655  0.00  0.00    +0.000 NA
ATOM      9  N   UNL     1       1.008  10.365  20.292  0.00  0.00    +0.000 N 
ATOM     10  C   UNL     1       1.057  11.695  19.974  0.00  0.00    +0.000 A 
ATOM     11  C   UNL     1       0.171  12.363  20.799  0.00  0.00    +0.000 A 
ATOM     12  C   UNL     1      -0.444  11.396  21.632  0.00  0.00    +0.000 A 
ATOM     13  C   UNL     1       0.174  10.197  21.359  0.00  0.00    +0.000 A 
ATOM     14  C   UNL     1       0.072   8.900  21.937  0.00  0.00    +0.000 A 
ATOM     15  O   UNL     1      -0.888   8.488  22.579  0.00  0.00    +0.000 OA
ATOM     16  N   UNL     1       1.164   8.130  21.639  0.00  0.00    +0.000 N 
ATOM     17  H   UNL     1       1.918   8.502  22.210  0.00  0.00    +0.000 HD
ENDROOT
BRANCH   3  18
ATOM     18  C   UNL     1       3.513   4.546  17.580  0.00  0.00    +0.000 C 
ATOM     19  O   UNL     1       2.985   3.529  17.150  0.00  0.00    +0.000 OA
ATOM     20  N   UNL     1       4.679   5.046  17.019  0.00  0.00    +0.000 N 
ATOM     21  C   UNL     1       5.213   4.427  15.819  0.00  0.00    +0.000 C 
ATOM     22  C   UNL     1       6.443   5.251  15.493  0.00  0.00    +0.000 C 
ATOM     23  C   UNL     1       6.995   5.536  16.876  0.00  0.00    +0.000 C 
ATOM     24  F   UNL     1       7.790   6.623  16.875  0.00  0.00    +0.000 F 
ATOM     25  F   UNL     1       7.731   4.485  17.304  0.00  0.00    +0.000 F 
ATOM     26  C   UNL     1       5.756   5.719  17.753  0.00  0.00    +0.000 C 
ENDBRANCH   3  18
TORSDOF 1
ENDMDL
MODEL 2
REMARK VINA RESULT:      -8.1      3.259      4.257
REMARK  Name = 
REMARK  2 active torsions:
REMARK  status: ('A' for Active; 'I' for Inactive)
REMARK    1  A    between atoms: C_1  and  C_2
REMARK    2  A    between atoms: C_3  and  C_4
REMARK                            x       y       z     vdW  Elec       q    Type
REMARK                         _______ _______ _______ _____ _____    ______ ____
ROOT
ATOM      1  C   UNL     1       1.789   7.377  20.856  0.00  0.00    +0.000 C 
ATOM      2  C   UNL     1       2.366   7.508  19.492  0.00  0.00    +0.000 A 
ATOM      3  C   UNL     1       3.254   6.694  18.799  0.00  0.00    +0.000 A 
ATOM      4  C   UNL     1       3.468   7.373  17.586  0.00  0.00    +0.000 A 
ATOM      5  N   UNL     1       2.791   8.514  17.500  0.00  0.00    +0.000 NA
ATOM      6  N   UNL     1       2.073   8.576  18.657  0.00  0.00    +0.000 N 
ATOM      7  C   UNL     1       1.174   9.652  18.860  0.00  0.00    +0.000 A 
ATOM      8  N   UNL     1       0.290   9.698  19.810  0.00  0.00    +0.000 NA
ATOM      9  N   UNL     1      -0.352  10.891  19.861  0.00  0.00    +0.000 N 
ATOM     10  C   UNL     1      -1.485  11.191  20.566  0.00  0.00    +0.000 A 
ATOM     11  C   UNL     1      -1.718  12.547  20.438  0.00  0.00    +0.000 A 
ATOM     12  C   UNL     1      -0.678  13.084  19.640  0.00  0.00    +0.000 A 
ATOM     13  C   UNL     1       0.081  12.016  19.221  0.00  0.00    +0.000 A 
ATOM     14  C   UNL     1       1.183  11.901  18.327  0.00  0.00    +0.000 A 
ATOM     15  O   UNL     1       1.937  12.816  18.017  0.00  0.00    +0.000 OA
ATOM     16  N   UNL     1       1.342  10.614  17.888  0.00  0.00    +0.000 N 
ATOM     17  H   UNL     1       0.583  10.459  17.230  0.00  0.00    +0.000 HD
ENDROOT
BRANCH   3  18
ATOM     18  C   UNL     1       3.741   5.384  19.206  0.00  0.00    +0.000 C 
ATOM     19  O   UNL     1       4.914   5.212  19.512  0.00  0.00    +0.000 OA
ATOM     20  N   UNL     1       2.811   4.360  19.305  0.00  0.00    +0.000 N 
ATOM     21  C   UNL     1       3.206   3.097  19.903  0.00  0.00    +0.000 C 
ATOM     22  C   UNL     1       1.942   2.260  19.868  0.00  0.00    +0.000 C 
ATOM     23  C   UNL     1       1.348   2.661  18.533  0.00  0.00    +0.000 C 
ATOM     24  F   UNL     1       0.022   2.424  18.493  0.00  0.00    +0.000 F 
ATOM     25  F   UNL     1       1.926   1.951  17.537  0.00  0.00    +0.000 F 
ATOM     26  C   UNL     1       1.679   4.148  18.397  0.00  0.00    +0.000 C 
ENDBRANCH   3  18
TORSDOF 1
ENDMDL
MODEL 3
REMARK VINA RESULT:      -7.8      5.168      6.382
REMARK  Name = 
REMARK  2 active torsions:
REMARK  status: ('A' for Active; 'I' for Inactive)
REMARK    1  A    between atoms: C_1  and  C_2
REMARK    2  A    between atoms: C_3  and  C_4
REMARK                            x       y       z     vdW  Elec       q    Type
REMARK                         _______ _______ _______ _____ _____    ______ ____
ROOT
ATOM      1  C   UNL     1       4.222   4.293  15.729  0.00  0.00    +0.000 C 
ATOM      2  C   UNL     1       5.530   4.359  16.433  0.00  0.00    +0.000 A 
ATOM      3  C   UNL     1       6.808   4.617  15.953  0.00  0.00    +0.000 A 
ATOM      4  C   UNL     1       7.634   4.481  17.083  0.00  0.00    +0.000 A 
ATOM      5  N   UNL     1       6.962   4.164  18.185  0.00  0.00    +0.000 NA
ATOM      6  N   UNL     1       5.656   4.134  17.796  0.00  0.00    +0.000 N 
ATOM      7  C   UNL     1       4.649   3.891  18.761  0.00  0.00    +0.000 A 
ATOM      8  N   UNL     1       3.378   4.055  18.550  0.00  0.00    +0.000 NA
ATOM      9  N   UNL     1       2.623   3.628  19.591  0.00  0.00    +0.000 N 
ATOM     10  C   UNL     1       1.293   3.868  19.802  0.00  0.00    +0.000 A 
ATOM     11  C   UNL     1       0.899   3.142  20.910  0.00  0.00    +0.000 A 
ATOM     12  C   UNL     1       2.031   2.427  21.373  0.00  0.00    +0.000 A 
ATOM     13  C   UNL     1       3.092   2.834  20.598  0.00  0.00    +0.000 A 
ATOM     14  C   UNL     1       4.489   2.559  20.644  0.00  0.00    +0.000 A 
ATOM     15  O   UNL     1       4.997   1.581  21.180  0.00  0.00    +0.000 OA
ATOM     16  N   UNL     1       5.209   3.500  19.958  0.00  0.00    +0.000 N 
ATOM     17  H   UNL     1       5.188   4.331  20.543  0.00  0.00    +0.000 HD
ENDROOT
BRANCH   3  18
ATOM     18  C   UNL     1       7.168   5.046  14.609  0.00  0.00    +0.000 C 
ATOM     19  O   UNL     1       7.716   6.124  14.414  0.00  0.00    +0.000 OA
ATOM     20  N   UNL     1       6.935   4.156  13.572  0.00  0.00    +0.000 N 
ATOM     21  C   UNL     1       7.463   4.449  12.251  0.00  0.00    +0.000 C 
ATOM     22  C   UNL     1       7.044   3.259  11.411  0.00  0.00    +0.000 C 
ATOM     23  C   UNL     1       5.661   2.970  11.961  0.00  0.00    +0.000 C 
ATOM     24  F   UNL     1       5.290   1.698  11.717  0.00  0.00    +0.000 F 
ATOM     25  F   UNL     1       4.753   3.785  11.378  0.00  0.00    +0.000 F 
ATOM     26  C   UNL     1       5.772   3.269  13.456  0.00  0.00    +0.000 C 
ENDBRANCH   3  18
TORSDOF 1
ENDMDL
MODEL 4
REMARK VINA RESULT:      -7.7      1.855      2.631
REMARK  Name = 
REMARK  2 active torsions:
REMARK  status: ('A' for Active; 'I' for Inactive)
REMARK    1  A    between atoms: C_1  and  C_2
REMARK    2  A    between atoms: C_3  and  C_4
REMARK                            x       y       z     vdW  Elec       q    Type
REMARK                         _______ _______ _______ _____ _____    ______ ____
ROOT
ATOM      1  C   UNL     1       1.695   7.066  20.830  0.00  0.00    +0.000 C 
ATOM      2  C   UNL     1       1.954   7.628  19.478  0.00  0.00    +0.000 A 
ATOM      3  C   UNL     1       2.557   7.065  18.360  0.00  0.00    +0.000 A 
ATOM      4  C   UNL     1       2.564   8.105  17.413  0.00  0.00    +0.000 A 
ATOM      5  N   UNL     1       2.022   9.230  17.869  0.00  0.00    +0.000 NA
ATOM      6  N   UNL     1       1.602   8.924  19.129  0.00  0.00    +0.000 N 
ATOM      7  C   UNL     1       0.905   9.898  19.885  0.00  0.00    +0.000 A 
ATOM      8  N   UNL     1       0.275   9.651  20.993  0.00  0.00    +0.000 NA
ATOM      9  N   UNL     1      -0.195  10.778  21.582  0.00  0.00    +0.000 N 
ATOM     10  C   UNL     1      -1.093  10.861  22.610  0.00  0.00    +0.000 A 
ATOM     11  C   UNL     1      -1.191  12.189  22.983  0.00  0.00    +0.000 A 
ATOM     12  C   UNL     1      -0.307  12.927  22.158  0.00  0.00    +0.000 A 
ATOM     13  C   UNL     1       0.206  12.038  21.243  0.00  0.00    +0.000 A 
ATOM     14  C   UNL     1       1.051  12.193  20.107  0.00  0.00    +0.000 A 
ATOM     15  O   UNL     1       1.815  13.135  19.922  0.00  0.00    +0.000 OA
ATOM     16  N   UNL     1       0.955  11.124  19.259  0.00  0.00    +0.000 N 
ATOM     17  H   UNL     1       0.052  11.224  18.803  0.00  0.00    +0.000 HD
ENDROOT
BRANCH   3  18
ATOM     18  C   UNL     1       2.970   5.679  18.192  0.00  0.00    +0.000 C 
ATOM     19  O   UNL     1       2.263   4.757  18.576  0.00  0.00    +0.000 OA
ATOM     20  N   UNL     1       4.159   5.446  17.517  0.00  0.00    +0.000 N 
ATOM     21  C   UNL     1       4.508   4.087  17.143  0.00  0.00    +0.000 C 
ATOM     22  C   UNL     1       5.826   4.232  16.408  0.00  0.00    +0.000 C 
ATOM     23  C   UNL     1       6.508   5.319  17.215  0.00  0.00    +0.000 C 
ATOM     24  F   UNL     1       7.459   5.944  16.495  0.00  0.00    +0.000 F 
ATOM     25  F   UNL     1       7.099   4.782  18.306  0.00  0.00    +0.000 F 
ATOM     26  C   UNL     1       5.374   6.260  17.625  0.00  0.00    +0.000 C 
ENDBRANCH   3  18
TORSDOF 1
ENDMDL
MODEL 5
REMARK VINA RESULT:      -7.6      3.833      7.628
REMARK  Name = 
REMARK  2 active torsions:
REMARK  status: ('A' for Active; 'I' for Inactive)
REMARK    1  A    between atoms: C_1  and  C_2
REMARK    2  A    between atoms: C_3  and  C_4
REMARK                            x       y       z     vdW  Elec       q    Type
REMARK                         _______ _______ _______ _____ _____    ______ ____
ROOT
ATOM      1  C   UNL     1       2.382   9.512  17.813  0.00  0.00    +0.000 C 
ATOM      2  C   UNL     1       1.963   8.686  18.977  0.00  0.00    +0.000 A 
ATOM      3  C   UNL     1       1.047   8.941  19.990  0.00  0.00    +0.000 A 
ATOM      4  C   UNL     1       1.135   7.813  20.825  0.00  0.00    +0.000 A 
ATOM      5  N   UNL     1       2.019   6.916  20.400  0.00  0.00    +0.000 NA
ATOM      6  N   UNL     1       2.498   7.432  19.233  0.00  0.00    +0.000 N 
ATOM      7  C   UNL     1       3.426   6.681  18.470  0.00  0.00    +0.000 A 
ATOM      8  N   UNL     1       3.776   6.969  17.253  0.00  0.00    +0.000 NA
ATOM      9  N   UNL     1       4.773   6.170  16.800  0.00  0.00    +0.000 N 
ATOM     10  C   UNL     1       5.207   6.040  15.510  0.00  0.00    +0.000 A 
ATOM     11  C   UNL     1       6.321   5.222  15.516  0.00  0.00    +0.000 A 
ATOM     12  C   UNL     1       6.574   4.859  16.862  0.00  0.00    +0.000 A 
ATOM     13  C   UNL     1       5.539   5.378  17.606  0.00  0.00    +0.000 A 
ATOM     14  C   UNL     1       5.180   5.265  18.979  0.00  0.00    +0.000 A 
ATOM     15  O   UNL     1       5.950   4.969  19.886  0.00  0.00    +0.000 OA
ATOM     16  N   UNL     1       3.866   5.587  19.182  0.00  0.00    +0.000 N 
ATOM     17  H   UNL     1       3.337   4.801  18.812  0.00  0.00    +0.000 HD
ENDROOT
BRANCH   3  18
ATOM     18  C   UNL     1       0.132  10.070  20.079  0.00  0.00    +0.000 C 
ATOM     19  O   UNL     1       0.042  10.733  21.104  0.00  0.00    +0.000 OA
ATOM     20  N   UNL     1      -0.576  10.408  18.935  0.00  0.00    +0.000 N 
ATOM     21  C   UNL     1      -1.339  11.644  18.911  0.00  0.00    +0.000 C 
ATOM     22  C   UNL     1      -1.932  11.686  17.517  0.00  0.00    +0.000 C 
ATOM     23  C   UNL     1      -2.269  10.227  17.284  0.00  0.00    +0.000 C 
ATOM     24  F   UNL     1      -2.359   9.945  15.970  0.00  0.00    +0.000 F 
ATOM     25  F   UNL     1      -3.459   9.931  17.854  0.00  0.00    +0.000 F 
ATOM     26  C   UNL     1      -1.138   9.458  17.969  0.00  0.00    +0.000 C 
ENDBRANCH   3  18
TORSDOF 1
ENDMDL
MODEL 6
REMARK VINA RESULT:      -7.5      4.577      8.151
REMARK  Name = 
REMARK  2 active torsions:
REMARK  status: ('A' for Active; 'I' for Inactive)
REMARK    1  A    between atoms: C_1  and  C_2
REMARK    2  A    between atoms: C_3  and  C_4
REMARK                            x       y       z     vdW  Elec       q    Type
REMARK                         _______ _______ _______ _____ _____    ______ ____
ROOT
ATOM      1  C   UNL     1       0.711   8.536  21.596  0.00  0.00    +0.000 C 
ATOM      2  C   UNL     1       1.231   8.898  20.250  0.00  0.00    +0.000 A 
ATOM      3  C   UNL     1       1.301  10.126  19.604  0.00  0.00    +0.000 A 
ATOM      4  C   UNL     1       1.831   9.818  18.339  0.00  0.00    +0.000 A 
ATOM      5  N   UNL     1       2.080   8.522  18.177  0.00  0.00    +0.000 NA
ATOM      6  N   UNL     1       1.753   7.958  19.375  0.00  0.00    +0.000 N 
ATOM      7  C   UNL     1       1.967   6.572  19.571  0.00  0.00    +0.000 A 
ATOM      8  N   UNL     1       1.901   5.977  20.724  0.00  0.00    +0.000 NA
ATOM      9  N   UNL     1       2.017   4.631  20.617  0.00  0.00    +0.000 N 
ATOM     10  C   UNL     1       2.229   3.736  21.630  0.00  0.00    +0.000 A 
ATOM     11  C   UNL     1       2.153   2.463  21.096  0.00  0.00    +0.000 A 
ATOM     12  C   UNL     1       1.869   2.599  19.715  0.00  0.00    +0.000 A 
ATOM     13  C   UNL     1       1.897   3.947  19.442  0.00  0.00    +0.000 A 
ATOM     14  C   UNL     1       1.793   4.694  18.235  0.00  0.00    +0.000 A 
ATOM     15  O   UNL     1       1.274   4.291  17.199  0.00  0.00    +0.000 OA
ATOM     16  N   UNL     1       2.295   5.959  18.381  0.00  0.00    +0.000 N 
ATOM     17  H   UNL     1       3.305   5.844  18.414  0.00  0.00    +0.000 HD
ENDROOT
BRANCH   3  18
ATOM     18  C   UNL     1       1.000  11.433  20.171  0.00  0.00    +0.000 C 
ATOM     19  O   UNL     1       1.813  12.023  20.868  0.00  0.00    +0.000 OA
ATOM     20  N   UNL     1      -0.213  12.012  19.828  0.00  0.00    +0.000 N 
ATOM     21  C   UNL     1      -0.470  13.394  20.195  0.00  0.00    +0.000 C 
ATOM     22  C   UNL     1      -1.849  13.677  19.633  0.00  0.00    +0.000 C 
ATOM     23  C   UNL     1      -2.558  12.362  19.888  0.00  0.00    +0.000 C 
ATOM     24  F   UNL     1      -3.615  12.205  19.068  0.00  0.00    +0.000 F 
ATOM     25  F   UNL     1      -3.013  12.322  21.161  0.00  0.00    +0.000 F 
ATOM     26  C   UNL     1      -1.483  11.297  19.666  0.00  0.00    +0.000 C 
ENDBRANCH   3  18
TORSDOF 1
ENDMDL
MODEL 7
REMARK VINA RESULT:      -7.4      3.646      7.325
REMARK  Name = 
REMARK  2 active torsions:
REMARK  status: ('A' for Active; 'I' for Inactive)
REMARK    1  A    between atoms: C_1  and  C_2
REMARK    2  A    between atoms: C_3  and  C_4
REMARK                            x       y       z     vdW  Elec       q    Type
REMARK                         _______ _______ _______ _____ _____    ______ ____
ROOT
ATOM      1  C   UNL     1       0.646   8.683  21.175  0.00  0.00    +0.000 C 
ATOM      2  C   UNL     1       1.189   8.947  19.816  0.00  0.00    +0.000 A 
ATOM      3  C   UNL     1       1.236  10.116  19.067  0.00  0.00    +0.000 A 
ATOM      4  C   UNL     1       1.810   9.719  17.846  0.00  0.00    +0.000 A 
ATOM      5  N   UNL     1       2.105   8.424  17.804  0.00  0.00    +0.000 NA
ATOM      6  N   UNL     1       1.765   7.954  19.037  0.00  0.00    +0.000 N 
ATOM      7  C   UNL     1       2.020   6.598  19.358  0.00  0.00    +0.000 A 
ATOM      8  N   UNL     1       1.943   6.102  20.556  0.00  0.00    +0.000 NA
ATOM      9  N   UNL     1       2.107   4.757  20.569  0.00  0.00    +0.000 N 
ATOM     10  C   UNL     1       2.321   3.961  21.661  0.00  0.00    +0.000 A 
ATOM     11  C   UNL     1       2.301   2.645  21.238  0.00  0.00    +0.000 A 
ATOM     12  C   UNL     1       2.049   2.651  19.843  0.00  0.00    +0.000 A 
ATOM     13  C   UNL     1       2.040   3.971  19.455  0.00  0.00    +0.000 A 
ATOM     14  C   UNL     1       1.943   4.608  18.186  0.00  0.00    +0.000 A 
ATOM     15  O   UNL     1       1.466   4.099  17.177  0.00  0.00    +0.000 OA
ATOM     16  N   UNL     1       2.400   5.897  18.234  0.00  0.00    +0.000 N 
ATOM     17  H   UNL     1       3.412   5.821  18.301  0.00  0.00    +0.000 HD
ENDROOT
BRANCH   3  18
ATOM     18  C   UNL     1       0.877  11.455  19.511  0.00  0.00    +0.000 C 
ATOM     19  O   UNL     1      -0.222  11.688  19.996  0.00  0.00    +0.000 OA
ATOM     20  N   UNL     1       1.854  12.436  19.431  0.00  0.00    +0.000 N 
ATOM     21  C   UNL     1       1.615  13.729  20.050  0.00  0.00    +0.000 C 
ATOM     22  C   UNL     1       2.891  14.505  19.790  0.00  0.00    +0.000 C 
ATOM     23  C   UNL     1       3.245  14.049  18.388  0.00  0.00    +0.000 C 
ATOM     24  F   UNL     1       4.556  14.223  18.130  0.00  0.00    +0.000 F 
ATOM     25  F   UNL     1       2.545  14.765  17.479  0.00  0.00    +0.000 F 
ATOM     26  C   UNL     1       2.833  12.577  18.348  0.00  0.00    +0.000 C 
ENDBRANCH   3  18
TORSDOF 1
ENDMDL
MODEL 8
REMARK VINA RESULT:      -7.4      3.230      4.808
REMARK  Name = 
REMARK  2 active torsions:
REMARK  status: ('A' for Active; 'I' for Inactive)
REMARK    1  A    between atoms: C_1  and  C_2
REMARK    2  A    between atoms: C_3  and  C_4
REMARK                            x       y       z     vdW  Elec       q    Type
REMARK                         _______ _______ _______ _____ _____    ______ ____
ROOT
ATOM      1  C   UNL     1       4.497   6.735  15.418  0.00  0.00    +0.000 C 
ATOM      2  C   UNL     1       5.291   5.722  16.163  0.00  0.00    +0.000 A 
ATOM      3  C   UNL     1       6.326   4.893  15.747  0.00  0.00    +0.000 A 
ATOM      4  C   UNL     1       6.625   4.121  16.884  0.00  0.00    +0.000 A 
ATOM      5  N   UNL     1       5.862   4.416  17.932  0.00  0.00    +0.000 NA
ATOM      6  N   UNL     1       5.069   5.438  17.502  0.00  0.00    +0.000 N 
ATOM      7  C   UNL     1       4.169   6.048  18.411  0.00  0.00    +0.000 A 
ATOM      8  N   UNL     1       3.533   7.155  18.178  0.00  0.00    +0.000 NA
ATOM      9  N   UNL     1       2.638   7.451  19.153  0.00  0.00    +0.000 N 
ATOM     10  C   UNL     1       1.986   8.638  19.345  0.00  0.00    +0.000 A 
ATOM     11  C   UNL     1       1.075   8.462  20.369  0.00  0.00    +0.000 A 
ATOM     12  C   UNL     1       1.171   7.115  20.796  0.00  0.00    +0.000 A 
ATOM     13  C   UNL     1       2.215   6.557  20.094  0.00  0.00    +0.000 A 
ATOM     14  C   UNL     1       2.857   5.288  20.156  0.00  0.00    +0.000 A 
ATOM     15  O   UNL     1       2.357   4.267  20.614  0.00  0.00    +0.000 OA
ATOM     16  N   UNL     1       4.099   5.325  19.582  0.00  0.00    +0.000 N 
ATOM     17  H   UNL     1       4.683   5.834  20.241  0.00  0.00    +0.000 HD
ENDROOT
BRANCH   3  18
ATOM     18  C   UNL     1       7.006   4.920  14.461  0.00  0.00    +0.000 C 
ATOM     19  O   UNL     1       7.982   5.634  14.276  0.00  0.00    +0.000 OA
ATOM     20  N   UNL     1       6.550   4.051  13.480  0.00  0.00    +0.000 N 
ATOM     21  C   UNL     1       7.319   3.891  12.259  0.00  0.00    +0.000 C 
ATOM     22  C   UNL     1       6.543   2.859  11.464  0.00  0.00    +0.000 C 
ATOM     23  C   UNL     1       5.112   3.250  11.773  0.00  0.00    +0.000 C 
ATOM     24  F   UNL     1       4.266   2.220  11.578  0.00  0.00    +0.000 F 
ATOM     25  F   UNL     1       4.725   4.263  10.963  0.00  0.00    +0.000 F 
ATOM     26  C   UNL     1       5.145   3.710  13.231  0.00  0.00    +0.000 C 
ENDBRANCH   3  18
TORSDOF 1
ENDMDL
MODEL 9
REMARK VINA RESULT:      -7.4      3.333      4.312
REMARK  Name = 
REMARK  2 active torsions:
REMARK  status: ('A' for Active; 'I' for Inactive)
REMARK    1  A    between atoms: C_1  and  C_2
REMARK    2  A    between atoms: C_3  and  C_4
REMARK                            x       y       z     vdW  Elec       q    Type
REMARK                         _______ _______ _______ _____ _____    ______ ____
ROOT
ATOM      1  C   UNL     1       1.770   9.199  17.906  0.00  0.00    +0.000 C 
ATOM      2  C   UNL     1       1.632   8.755  19.320  0.00  0.00    +0.000 A 
ATOM      3  C   UNL     1       1.921   7.537  19.922  0.00  0.00    +0.000 A 
ATOM      4  C   UNL     1       1.522   7.711  21.259  0.00  0.00    +0.000 A 
ATOM      5  N   UNL     1       1.022   8.919  21.502  0.00  0.00    +0.000 NA
ATOM      6  N   UNL     1       1.133   9.581  20.315  0.00  0.00    +0.000 N 
ATOM      7  C   UNL     1       0.749  10.943  20.242  0.00  0.00    +0.000 A 
ATOM      8  N   UNL     1       1.012  11.724  19.238  0.00  0.00    +0.000 NA
ATOM      9  N   UNL     1       0.421  12.938  19.361  0.00  0.00    +0.000 N 
ATOM     10  C   UNL     1       0.677  14.061  18.623  0.00  0.00    +0.000 A 
ATOM     11  C   UNL     1      -0.237  15.030  18.991  0.00  0.00    +0.000 A 
ATOM     12  C   UNL     1      -1.083  14.463  19.976  0.00  0.00    +0.000 A 
ATOM     13  C   UNL     1      -0.579  13.212  20.248  0.00  0.00    +0.000 A 
ATOM     14  C   UNL     1      -0.923  12.215  21.205  0.00  0.00    +0.000 A 
ATOM     15  O   UNL     1      -2.012  12.117  21.760  0.00  0.00    +0.000 OA
ATOM     16  N   UNL     1       0.100  11.327  21.395  0.00  0.00    +0.000 N 
ATOM     17  H   UNL     1       0.798  11.834  21.933  0.00  0.00    +0.000 HD
ENDROOT
BRANCH   3  18
ATOM     18  C   UNL     1       2.593   6.397  19.314  0.00  0.00    +0.000 C 
ATOM     19  O   UNL     1       3.307   6.534  18.330  0.00  0.00    +0.000 OA
ATOM     20  N   UNL     1       2.450   5.166  19.937  0.00  0.00    +0.000 N 
ATOM     21  C   UNL     1       3.263   4.047  19.494  0.00  0.00    +0.000 C 
ATOM     22  C   UNL     1       2.860   2.910  20.414  0.00  0.00    +0.000 C 
ATOM     23  C   UNL     1       1.371   3.148  20.559  0.00  0.00    +0.000 C 
ATOM     24  F   UNL     1       0.887   2.575  21.678  0.00  0.00    +0.000 F 
ATOM     25  F   UNL     1       0.713   2.616  19.504  0.00  0.00    +0.000 F 
ATOM     26  C   UNL     1       1.224   4.670  20.572  0.00  0.00    +0.000 C 
ENDBRANCH   3  18
TORSDOF 1
ENDMDL
