MODEL 1
REMARK VINA RESULT:      -8.7      0.000      0.000
REMARK  Name = 
REMARK  11 active torsions:
REMARK  status: ('A' for Active; 'I' for Inactive)
REMARK    1  A    between atoms: C_1  and  C_2
REMARK    2  A    between atoms: C_2  and  C_3
REMARK    3  A    between atoms: C_2  and  C_4
REMARK    4  A    between atoms: C_4  and  C_5
REMARK    5  A    between atoms: C_5  and  C_7
REMARK    6  A    between atoms: C_8  and  O_9
REMARK    7  A    between atoms: C_11  and  O_12
REMARK    8  A    between atoms: C_14  and  O_15
REMARK    9  A    between atoms: O_15  and  C_16
REMARK   10  A    between atoms: C_16  and  C_17
REMARK   11  A    between atoms: C_18  and  C_19
REMARK                            x       y       z     vdW  Elec       q    Type
REMARK                         _______ _______ _______ _____ _____    ______ ____
ROOT
ATOM      1  C   UNL     1       3.636   4.041  19.438  0.00  0.00    +0.000 A 
ATOM      2  C   UNL     1       3.999   2.832  20.074  0.00  0.00    +0.000 A 
ATOM      3  C   UNL     1       3.216   2.268  21.078  0.00  0.00    +0.000 A 
ATOM      4  C   UNL     1       2.064   2.925  21.466  0.00  0.00    +0.000 A 
ATOM      5  C   UNL     1       1.674   4.113  20.855  0.00  0.00    +0.000 A 
ATOM      6  C   UNL     1       2.458   4.700  19.847  0.00  0.00    +0.000 A 
ENDROOT
BRANCH   1   7
ATOM      7  C   UNL     1       4.576   4.561  18.407  0.00  0.00    +0.000 C 
ATOM      8  O   UNL     1       4.335   4.286  17.227  0.00  0.00    +0.000 OA
BRANCH   7   9
ATOM      9  C   UNL     1       5.743   5.454  18.800  0.00  0.00    +0.000 C 
BRANCH   9  11
ATOM     10  C   UNL     1       7.439   7.024  17.728  0.00  0.00    +0.000 C 
ATOM     11  C   UNL     1       6.725   5.673  17.628  0.00  0.00    +0.000 C 
ATOM     12  C   UNL     1       7.759   4.546  17.590  0.00  0.00    +0.000 C 
ENDBRANCH   9  11
ENDBRANCH   7   9
ENDBRANCH   1   7
BRANCH   2  13
ATOM     13  O   UNL     1       5.134   2.126  19.756  0.00  0.00    +0.000 OA
ATOM     14  H   UNL     1       5.696   2.699  19.187  0.00  0.00    +0.000 HD
ENDBRANCH   2  13
BRANCH   4  15
ATOM     15  O   UNL     1       1.267   2.442  22.462  0.00  0.00    +0.000 OA
ATOM     16  H   UNL     1       1.312   1.470  22.457  0.00  0.00    +0.000 HD
ENDBRANCH   4  15
BRANCH   6  17
ATOM     17  O   UNL     1       2.093   5.877  19.232  0.00  0.00    +0.000 OA
BRANCH  17  18
ATOM     18  C   UNL     1       2.252   7.078  20.006  0.00  0.00    +0.000 C 
BRANCH  18  19
ATOM     19  C   UNL     1       1.915   8.280  19.233  0.00  0.00    +0.000 A 
ATOM     20  C   UNL     1       1.176   9.457  19.515  0.00  0.00    +0.000 A 
ATOM     21  N   UNL     1       1.224  10.285  18.460  0.00  0.00    +0.000 NA
ATOM     22  O   UNL     1       2.030   9.689  17.504  0.00  0.00    +0.000 OA
ATOM     23  N   UNL     1       2.443   8.425  18.020  0.00  0.00    +0.000 N 
ATOM     24  O   UNL     1       3.245   7.765  17.324  0.00  0.00    +0.000 OA
BRANCH  20  25
ATOM     25  C   UNL     1       0.451   9.853  20.728  0.00  0.00    +0.000 A 
ATOM     26  C   UNL     1      -0.392  10.973  20.753  0.00  0.00    +0.000 A 
ATOM     27  C   UNL     1      -1.079  11.329  21.917  0.00  0.00    +0.000 A 
ATOM     28  C   UNL     1      -0.946  10.561  23.070  0.00  0.00    +0.000 A 
ATOM     29  C   UNL     1      -0.130   9.433  23.059  0.00  0.00    +0.000 A 
ATOM     30  C   UNL     1       0.564   9.083  21.897  0.00  0.00    +0.000 A 
ENDBRANCH  20  25
ENDBRANCH  18  19
ENDBRANCH  17  18
ENDBRANCH   6  17
TORSDOF 9
ENDMDL
MODEL 2
REMARK VINA RESULT:      -8.7      1.033      1.599
REMARK  Name = 
REMARK  11 active torsions:
REMARK  status: ('A' for Active; 'I' for Inactive)
REMARK    1  A    between atoms: C_1  and  C_2
REMARK    2  A    between atoms: C_2  and  C_3
REMARK    3  A    between atoms: C_2  and  C_4
REMARK    4  A    between atoms: C_4  and  C_5
REMARK    5  A    between atoms: C_5  and  C_7
REMARK    6  A    between atoms: C_8  and  O_9
REMARK    7  A    between atoms: C_11  and  O_12
REMARK    8  A    between atoms: C_14  and  O_15
REMARK    9  A    between atoms: O_15  and  C_16
REMARK   10  A    between atoms: C_16  and  C_17
REMARK   11  A    between atoms: C_18  and  C_19
REMARK                            x       y       z     vdW  Elec       q    Type
REMARK                         _______ _______ _______ _____ _____    ______ ____
ROOT
ATOM      1  C   UNL     1       3.647   4.111  19.408  0.00  0.00    +0.000 A 
ATOM      2  C   UNL     1       4.011   2.898  20.037  0.00  0.00    +0.000 A 
ATOM      3  C   UNL     1       3.216   2.315  21.021  0.00  0.00    +0.000 A 
ATOM      4  C   UNL     1       2.052   2.957  21.397  0.00  0.00    +0.000 A 
ATOM      5  C   UNL     1       1.661   4.148  20.793  0.00  0.00    +0.000 A 
ATOM      6  C   UNL     1       2.456   4.754  19.805  0.00  0.00    +0.000 A 
ENDROOT
BRANCH   1   7
ATOM      7  C   UNL     1       4.600   4.651  18.399  0.00  0.00    +0.000 C 
ATOM      8  O   UNL     1       5.553   5.317  18.816  0.00  0.00    +0.000 OA
BRANCH   7   9
ATOM      9  C   UNL     1       4.432   4.329  16.922  0.00  0.00    +0.000 C 
BRANCH   9  11
ATOM     10  C   UNL     1       6.045   3.765  15.032  0.00  0.00    +0.000 C 
ATOM     11  C   UNL     1       5.641   4.802  16.085  0.00  0.00    +0.000 C 
ATOM     12  C   UNL     1       5.320   6.132  15.402  0.00  0.00    +0.000 C 
ENDBRANCH   9  11
ENDBRANCH   7   9
ENDBRANCH   1   7
BRANCH   2  13
ATOM     13  O   UNL     1       5.157   2.206  19.730  0.00  0.00    +0.000 OA
ATOM     14  H   UNL     1       4.988   1.251  19.897  0.00  0.00    +0.000 HD
ENDBRANCH   2  13
BRANCH   4  15
ATOM     15  O   UNL     1       1.243   2.456  22.373  0.00  0.00    +0.000 OA
ATOM     16  H   UNL     1       1.770   1.876  22.951  0.00  0.00    +0.000 HD
ENDBRANCH   4  15
BRANCH   6  17
ATOM     17  O   UNL     1       2.091   5.934  19.198  0.00  0.00    +0.000 OA
BRANCH  17  18
ATOM     18  C   UNL     1       2.227   7.129  19.987  0.00  0.00    +0.000 C 
BRANCH  18  19
ATOM     19  C   UNL     1       1.874   8.334  19.228  0.00  0.00    +0.000 A 
ATOM     20  C   UNL     1       1.119   9.498  19.523  0.00  0.00    +0.000 A 
ATOM     21  N   UNL     1       1.156  10.339  18.477  0.00  0.00    +0.000 NA
ATOM     22  O   UNL     1       1.971   9.765  17.515  0.00  0.00    +0.000 OA
ATOM     23  N   UNL     1       2.400   8.501  18.017  0.00  0.00    +0.000 N 
ATOM     24  O   UNL     1       3.211   7.859  17.313  0.00  0.00    +0.000 OA
BRANCH  20  25
ATOM     25  C   UNL     1       0.388   9.870  20.740  0.00  0.00    +0.000 A 
ATOM     26  C   UNL     1       0.154   8.949  21.771  0.00  0.00    +0.000 A 
ATOM     27  C   UNL     1      -0.538   9.325  22.926  0.00  0.00    +0.000 A 
ATOM     28  C   UNL     1      -0.992  10.632  23.075  0.00  0.00    +0.000 A 
ATOM     29  C   UNL     1      -0.751  11.566  22.071  0.00  0.00    +0.000 A 
ATOM     30  C   UNL     1      -0.067  11.187  20.912  0.00  0.00    +0.000 A 
ENDBRANCH  20  25
ENDBRANCH  18  19
ENDBRANCH  17  18
ENDBRANCH   6  17
TORSDOF 9
ENDMDL
MODEL 3
REMARK VINA RESULT:      -8.5      3.226      7.595
REMARK  Name = 
REMARK  11 active torsions:
REMARK  status: ('A' for Active; 'I' for Inactive)
REMARK    1  A    between atoms: C_1  and  C_2
REMARK    2  A    between atoms: C_2  and  C_3
REMARK    3  A    between atoms: C_2  and  C_4
REMARK    4  A    between atoms: C_4  and  C_5
REMARK    5  A    between atoms: C_5  and  C_7
REMARK    6  A    between atoms: C_8  and  O_9
REMARK    7  A    between atoms: C_11  and  O_12
REMARK    8  A    between atoms: C_14  and  O_15
REMARK    9  A    between atoms: O_15  and  C_16
REMARK   10  A    between atoms: C_16  and  C_17
REMARK   11  A    between atoms: C_18  and  C_19
REMARK                            x       y       z     vdW  Elec       q    Type
REMARK                         _______ _______ _______ _____ _____    ______ ____
ROOT
ATOM      1  C   UNL     1       3.242   5.526  18.803  0.00  0.00    +0.000 A 
ATOM      2  C   UNL     1       2.443   5.738  19.950  0.00  0.00    +0.000 A 
ATOM      3  C   UNL     1       1.824   6.961  20.196  0.00  0.00    +0.000 A 
ATOM      4  C   UNL     1       2.017   7.993  19.299  0.00  0.00    +0.000 A 
ATOM      5  C   UNL     1       2.791   7.816  18.156  0.00  0.00    +0.000 A 
ATOM      6  C   UNL     1       3.429   6.590  17.896  0.00  0.00    +0.000 A 
ENDROOT
BRANCH   1   7
ATOM      7  C   UNL     1       3.880   4.187  18.672  0.00  0.00    +0.000 C 
ATOM      8  O   UNL     1       4.556   3.784  19.624  0.00  0.00    +0.000 OA
BRANCH   7   9
ATOM      9  C   UNL     1       3.640   3.330  17.439  0.00  0.00    +0.000 C 
BRANCH   9  11
ATOM     10  C   UNL     1       3.642   1.084  18.642  0.00  0.00    +0.000 C 
ATOM     11  C   UNL     1       2.838   2.052  17.768  0.00  0.00    +0.000 C 
ATOM     12  C   UNL     1       1.530   2.417  18.473  0.00  0.00    +0.000 C 
ENDBRANCH   9  11
ENDBRANCH   7   9
ENDBRANCH   1   7
BRANCH   2  13
ATOM     13  O   UNL     1       2.214   4.769  20.897  0.00  0.00    +0.000 OA
ATOM     14  H   UNL     1       2.440   5.147  21.776  0.00  0.00    +0.000 HD
ENDBRANCH   2  13
BRANCH   4  15
ATOM     15  O   UNL     1       1.464   9.224  19.495  0.00  0.00    +0.000 OA
ATOM     16  H   UNL     1       1.509   9.441  20.442  0.00  0.00    +0.000 HD
ENDBRANCH   4  15
BRANCH   6  17
ATOM     17  O   UNL     1       4.203   6.395  16.775  0.00  0.00    +0.000 OA
BRANCH  17  18
ATOM     18  C   UNL     1       5.557   6.875  16.840  0.00  0.00    +0.000 C 
BRANCH  18  19
ATOM     19  C   UNL     1       6.519   5.784  17.043  0.00  0.00    +0.000 A 
ATOM     20  C   UNL     1       7.150   4.854  16.179  0.00  0.00    +0.000 A 
ATOM     21  N   UNL     1       8.006   4.094  16.880  0.00  0.00    +0.000 NA
ATOM     22  O   UNL     1       7.984   4.547  18.189  0.00  0.00    +0.000 OA
ATOM     23  N   UNL     1       7.033   5.608  18.258  0.00  0.00    +0.000 N 
ATOM     24  O   UNL     1       6.926   6.200  19.355  0.00  0.00    +0.000 OA
BRANCH  20  25
ATOM     25  C   UNL     1       7.009   4.660  14.731  0.00  0.00    +0.000 A 
ATOM     26  C   UNL     1       7.824   5.335  13.812  0.00  0.00    +0.000 A 
ATOM     27  C   UNL     1       7.679   5.130  12.437  0.00  0.00    +0.000 A 
ATOM     28  C   UNL     1       6.726   4.235  11.960  0.00  0.00    +0.000 A 
ATOM     29  C   UNL     1       5.921   3.540  12.858  0.00  0.00    +0.000 A 
ATOM     30  C   UNL     1       6.060   3.751  14.233  0.00  0.00    +0.000 A 
ENDBRANCH  20  25
ENDBRANCH  18  19
ENDBRANCH  17  18
ENDBRANCH   6  17
TORSDOF 9
ENDMDL
MODEL 4
REMARK VINA RESULT:      -8.5      2.686      5.056
REMARK  Name = 
REMARK  11 active torsions:
REMARK  status: ('A' for Active; 'I' for Inactive)
REMARK    1  A    between atoms: C_1  and  C_2
REMARK    2  A    between atoms: C_2  and  C_3
REMARK    3  A    between atoms: C_2  and  C_4
REMARK    4  A    between atoms: C_4  and  C_5
REMARK    5  A    between atoms: C_5  and  C_7
REMARK    6  A    between atoms: C_8  and  O_9
REMARK    7  A    between atoms: C_11  and  O_12
REMARK    8  A    between atoms: C_14  and  O_15
REMARK    9  A    between atoms: O_15  and  C_16
REMARK   10  A    between atoms: C_16  and  C_17
REMARK   11  A    between atoms: C_18  and  C_19
REMARK                            x       y       z     vdW  Elec       q    Type
REMARK                         _______ _______ _______ _____ _____    ______ ____
ROOT
ATOM      1  C   UNL     1       6.112   5.559  16.994  0.00  0.00    +0.000 A 
ATOM      2  C   UNL     1       7.152   6.457  17.326  0.00  0.00    +0.000 A 
ATOM      3  C   UNL     1       7.790   6.414  18.563  0.00  0.00    +0.000 A 
ATOM      4  C   UNL     1       7.377   5.475  19.488  0.00  0.00    +0.000 A 
ATOM      5  C   UNL     1       6.362   4.572  19.190  0.00  0.00    +0.000 A 
ATOM      6  C   UNL     1       5.701   4.607  17.950  0.00  0.00    +0.000 A 
ENDROOT
BRANCH   1   7
ATOM      7  C   UNL     1       5.484   5.731  15.654  0.00  0.00    +0.000 C 
ATOM      8  O   UNL     1       5.238   6.884  15.286  0.00  0.00    +0.000 OA
BRANCH   7   9
ATOM      9  C   UNL     1       5.227   4.531  14.757  0.00  0.00    +0.000 C 
BRANCH   9  11
ATOM     10  C   UNL     1       6.184   3.385  12.693  0.00  0.00    +0.000 C 
ATOM     11  C   UNL     1       6.506   4.071  14.024  0.00  0.00    +0.000 C 
ATOM     12  C   UNL     1       7.430   5.265  13.778  0.00  0.00    +0.000 C 
ENDBRANCH   9  11
ENDBRANCH   7   9
ENDBRANCH   1   7
BRANCH   2  13
ATOM     13  O   UNL     1       7.611   7.428  16.468  0.00  0.00    +0.000 OA
ATOM     14  H   UNL     1       6.850   8.005  16.232  0.00  0.00    +0.000 HD
ENDBRANCH   2  13
BRANCH   4  15
ATOM     15  O   UNL     1       7.940   5.398  20.728  0.00  0.00    +0.000 OA
ATOM     16  H   UNL     1       8.883   5.628  20.660  0.00  0.00    +0.000 HD
ENDBRANCH   4  15
BRANCH   6  17
ATOM     17  O   UNL     1       4.692   3.725  17.636  0.00  0.00    +0.000 OA
BRANCH  17  18
ATOM     18  C   UNL     1       3.348   4.224  17.754  0.00  0.00    +0.000 C 
BRANCH  18  19
ATOM     19  C   UNL     1       2.953   4.415  19.154  0.00  0.00    +0.000 A 
ATOM     20  C   UNL     1       2.438   5.511  19.891  0.00  0.00    +0.000 A 
ATOM     21  N   UNL     1       2.184   5.130  21.153  0.00  0.00    +0.000 NA
ATOM     22  O   UNL     1       2.477   3.779  21.242  0.00  0.00    +0.000 OA
ATOM     23  N   UNL     1       2.964   3.362  19.968  0.00  0.00    +0.000 N 
ATOM     24  O   UNL     1       3.214   2.144  19.830  0.00  0.00    +0.000 OA
BRANCH  20  25
ATOM     25  C   UNL     1       2.151   6.887  19.467  0.00  0.00    +0.000 A 
ATOM     26  C   UNL     1       1.549   7.815  20.328  0.00  0.00    +0.000 A 
ATOM     27  C   UNL     1       1.290   9.123  19.906  0.00  0.00    +0.000 A 
ATOM     28  C   UNL     1       1.644   9.527  18.622  0.00  0.00    +0.000 A 
ATOM     29  C   UNL     1       2.261   8.625  17.760  0.00  0.00    +0.000 A 
ATOM     30  C   UNL     1       2.512   7.315  18.179  0.00  0.00    +0.000 A 
ENDBRANCH  20  25
ENDBRANCH  18  19
ENDBRANCH  17  18
ENDBRANCH   6  17
TORSDOF 9
ENDMDL
MODEL 5
REMARK VINA RESULT:      -8.3      3.370      7.965
REMARK  Name = 
REMARK  11 active torsions:
REMARK  status: ('A' for Active; 'I' for Inactive)
REMARK    1  A    between atoms: C_1  and  C_2
REMARK    2  A    between atoms: C_2  and  C_3
REMARK    3  A    between atoms: C_2  and  C_4
REMARK    4  A    between atoms: C_4  and  C_5
REMARK    5  A    between atoms: C_5  and  C_7
REMARK    6  A    between atoms: C_8  and  O_9
REMARK    7  A    between atoms: C_11  and  O_12
REMARK    8  A    between atoms: C_14  and  O_15
REMARK    9  A    between atoms: O_15  and  C_16
REMARK   10  A    between atoms: C_16  and  C_17
REMARK   11  A    between atoms: C_18  and  C_19
REMARK                            x       y       z     vdW  Elec       q    Type
REMARK                         _______ _______ _______ _____ _____    ______ ____
ROOT
ATOM      1  C   UNL     1       2.866   6.532  19.001  0.00  0.00    +0.000 A 
ATOM      2  C   UNL     1       2.110   7.410  19.810  0.00  0.00    +0.000 A 
ATOM      3  C   UNL     1       1.686   8.653  19.346  0.00  0.00    +0.000 A 
ATOM      4  C   UNL     1       2.033   9.033  18.064  0.00  0.00    +0.000 A 
ATOM      5  C   UNL     1       2.770   8.189  17.239  0.00  0.00    +0.000 A 
ATOM      6  C   UNL     1       3.213   6.936  17.695  0.00  0.00    +0.000 A 
ENDROOT
BRANCH   1   7
ATOM      7  C   UNL     1       3.292   5.249  19.626  0.00  0.00    +0.000 C 
ATOM      8  O   UNL     1       4.458   5.171  20.026  0.00  0.00    +0.000 OA
BRANCH   7   9
ATOM      9  C   UNL     1       2.300   4.113  19.822  0.00  0.00    +0.000 C 
BRANCH   9  11
ATOM     10  C   UNL     1       2.824   3.106  17.542  0.00  0.00    +0.000 C 
ATOM     11  C   UNL     1       1.724   3.609  18.481  0.00  0.00    +0.000 C 
ATOM     12  C   UNL     1       0.709   2.492  18.730  0.00  0.00    +0.000 C 
ENDBRANCH   9  11
ENDBRANCH   7   9
ENDBRANCH   1   7
BRANCH   2  13
ATOM     13  O   UNL     1       1.736   7.113  21.099  0.00  0.00    +0.000 OA
ATOM     14  H   UNL     1       1.467   6.167  21.123  0.00  0.00    +0.000 HD
ENDBRANCH   2  13
BRANCH   4  15
ATOM     15  O   UNL     1       1.674  10.247  17.557  0.00  0.00    +0.000 OA
ATOM     16  H   UNL     1       0.748  10.426  17.796  0.00  0.00    +0.000 HD
ENDBRANCH   4  15
BRANCH   6  17
ATOM     17  O   UNL     1       3.947   6.087  16.897  0.00  0.00    +0.000 OA
BRANCH  17  18
ATOM     18  C   UNL     1       5.190   6.602  16.389  0.00  0.00    +0.000 C 
BRANCH  18  19
ATOM     19  C   UNL     1       6.294   5.652  16.569  0.00  0.00    +0.000 A 
ATOM     20  C   UNL     1       6.940   4.720  15.718  0.00  0.00    +0.000 A 
ATOM     21  N   UNL     1       7.952   4.132  16.375  0.00  0.00    +0.000 NA
ATOM     22  O   UNL     1       8.013   4.704  17.635  0.00  0.00    +0.000 OA
ATOM     23  N   UNL     1       6.952   5.652  17.726  0.00  0.00    +0.000 N 
ATOM     24  O   UNL     1       6.890   6.331  18.775  0.00  0.00    +0.000 OA
BRANCH  20  25
ATOM     25  C   UNL     1       6.671   4.373  14.317  0.00  0.00    +0.000 A 
ATOM     26  C   UNL     1       5.539   3.635  13.943  0.00  0.00    +0.000 A 
ATOM     27  C   UNL     1       5.298   3.321  12.602  0.00  0.00    +0.000 A 
ATOM     28  C   UNL     1       6.177   3.753  11.613  0.00  0.00    +0.000 A 
ATOM     29  C   UNL     1       7.295   4.504  11.963  0.00  0.00    +0.000 A 
ATOM     30  C   UNL     1       7.541   4.811  13.305  0.00  0.00    +0.000 A 
ENDBRANCH  20  25
ENDBRANCH  18  19
ENDBRANCH  17  18
ENDBRANCH   6  17
TORSDOF 9
ENDMDL
MODEL 6
REMARK VINA RESULT:      -8.3      2.941      5.187
REMARK  Name = 
REMARK  11 active torsions:
REMARK  status: ('A' for Active; 'I' for Inactive)
REMARK    1  A    between atoms: C_1  and  C_2
REMARK    2  A    between atoms: C_2  and  C_3
REMARK    3  A    between atoms: C_2  and  C_4
REMARK    4  A    between atoms: C_4  and  C_5
REMARK    5  A    between atoms: C_5  and  C_7
REMARK    6  A    between atoms: C_8  and  O_9
REMARK    7  A    between atoms: C_11  and  O_12
REMARK    8  A    between atoms: C_14  and  O_15
REMARK    9  A    between atoms: O_15  and  C_16
REMARK   10  A    between atoms: C_16  and  C_17
REMARK   11  A    between atoms: C_18  and  C_19
REMARK                            x       y       z     vdW  Elec       q    Type
REMARK                         _______ _______ _______ _____ _____    ______ ____
ROOT
ATOM      1  C   UNL     1       6.215   5.116  16.721  0.00  0.00    +0.000 A 
ATOM      2  C   UNL     1       7.289   5.996  16.990  0.00  0.00    +0.000 A 
ATOM      3  C   UNL     1       7.798   6.160  18.275  0.00  0.00    +0.000 A 
ATOM      4  C   UNL     1       7.220   5.452  19.311  0.00  0.00    +0.000 A 
ATOM      5  C   UNL     1       6.167   4.572  19.080  0.00  0.00    +0.000 A 
ATOM      6  C   UNL     1       5.635   4.401  17.790  0.00  0.00    +0.000 A 
ENDROOT
BRANCH   1   7
ATOM      7  C   UNL     1       5.737   5.058  15.312  0.00  0.00    +0.000 C 
ATOM      8  O   UNL     1       5.128   6.041  14.877  0.00  0.00    +0.000 OA
BRANCH   7   9
ATOM      9  C   UNL     1       6.055   3.859  14.433  0.00  0.00    +0.000 C 
BRANCH   9  11
ATOM     10  C   UNL     1       7.235   3.994  12.179  0.00  0.00    +0.000 C 
ATOM     11  C   UNL     1       5.915   4.188  12.930  0.00  0.00    +0.000 C 
ATOM     12  C   UNL     1       4.829   3.314  12.298  0.00  0.00    +0.000 C 
ENDBRANCH   9  11
ENDBRANCH   7   9
ENDBRANCH   1   7
BRANCH   2  13
ATOM     13  O   UNL     1       7.908   6.745  16.019  0.00  0.00    +0.000 OA
ATOM     14  H   UNL     1       7.496   6.519  15.154  0.00  0.00    +0.000 HD
ENDBRANCH   2  13
BRANCH   4  15
ATOM     15  O   UNL     1       7.651   5.587  20.598  0.00  0.00    +0.000 OA
ATOM     16  H   UNL     1       8.513   6.039  20.594  0.00  0.00    +0.000 HD
ENDBRANCH   4  15
BRANCH   6  17
ATOM     17  O   UNL     1       4.591   3.540  17.540  0.00  0.00    +0.000 OA
BRANCH  17  18
ATOM     18  C   UNL     1       3.267   4.073  17.713  0.00  0.00    +0.000 C 
BRANCH  18  19
ATOM     19  C   UNL     1       2.930   4.261  19.130  0.00  0.00    +0.000 A 
ATOM     20  C   UNL     1       2.470   5.363  19.895  0.00  0.00    +0.000 A 
ATOM     21  N   UNL     1       2.257   4.976  21.163  0.00  0.00    +0.000 NA
ATOM     22  O   UNL     1       2.523   3.619  21.230  0.00  0.00    +0.000 OA
ATOM     23  N   UNL     1       2.951   3.202  19.935  0.00  0.00    +0.000 N 
ATOM     24  O   UNL     1       3.168   1.980  19.778  0.00  0.00    +0.000 OA
BRANCH  20  25
ATOM     25  C   UNL     1       2.197   6.748  19.492  0.00  0.00    +0.000 A 
ATOM     26  C   UNL     1       2.529   7.225  18.216  0.00  0.00    +0.000 A 
ATOM     27  C   UNL     1       2.254   8.546  17.850  0.00  0.00    +0.000 A 
ATOM     28  C   UNL     1       1.628   9.405  18.748  0.00  0.00    +0.000 A 
ATOM     29  C   UNL     1       1.273   8.944  20.012  0.00  0.00    +0.000 A 
ATOM     30  C   UNL     1       1.555   7.625  20.381  0.00  0.00    +0.000 A 
ENDBRANCH  20  25
ENDBRANCH  18  19
ENDBRANCH  17  18
ENDBRANCH   6  17
TORSDOF 9
ENDMDL
MODEL 7
REMARK VINA RESULT:      -8.3      0.973      1.188
REMARK  Name = 
REMARK  11 active torsions:
REMARK  status: ('A' for Active; 'I' for Inactive)
REMARK    1  A    between atoms: C_1  and  C_2
REMARK    2  A    between atoms: C_2  and  C_3
REMARK    3  A    between atoms: C_2  and  C_4
REMARK    4  A    between atoms: C_4  and  C_5
REMARK    5  A    between atoms: C_5  and  C_7
REMARK    6  A    between atoms: C_8  and  O_9
REMARK    7  A    between atoms: C_11  and  O_12
REMARK    8  A    between atoms: C_14  and  O_15
REMARK    9  A    between atoms: O_15  and  C_16
REMARK   10  A    between atoms: C_16  and  C_17
REMARK   11  A    between atoms: C_18  and  C_19
REMARK                            x       y       z     vdW  Elec       q    Type
REMARK                         _______ _______ _______ _____ _____    ______ ____
ROOT
ATOM      1  C   UNL     1       3.621   4.270  19.284  0.00  0.00    +0.000 A 
ATOM      2  C   UNL     1       4.047   3.060  19.878  0.00  0.00    +0.000 A 
ATOM      3  C   UNL     1       3.301   2.427  20.868  0.00  0.00    +0.000 A 
ATOM      4  C   UNL     1       2.122   3.014  21.286  0.00  0.00    +0.000 A 
ATOM      5  C   UNL     1       1.671   4.201  20.718  0.00  0.00    +0.000 A 
ATOM      6  C   UNL     1       2.416   4.858  19.723  0.00  0.00    +0.000 A 
ENDROOT
BRANCH   1   7
ATOM      7  C   UNL     1       4.526   4.868  18.264  0.00  0.00    +0.000 C 
ATOM      8  O   UNL     1       5.271   5.782  18.631  0.00  0.00    +0.000 OA
BRANCH   7   9
ATOM      9  C   UNL     1       4.570   4.317  16.847  0.00  0.00    +0.000 C 
BRANCH   9  11
ATOM     10  C   UNL     1       7.092   4.400  16.498  0.00  0.00    +0.000 C 
ATOM     11  C   UNL     1       5.731   4.920  16.027  0.00  0.00    +0.000 C 
ATOM     12  C   UNL     1       5.546   4.606  14.541  0.00  0.00    +0.000 C 
ENDBRANCH   9  11
ENDBRANCH   7   9
ENDBRANCH   1   7
BRANCH   2  13
ATOM     13  O   UNL     1       5.211   2.420  19.528  0.00  0.00    +0.000 OA
ATOM     14  H   UNL     1       5.816   2.449  20.304  0.00  0.00    +0.000 HD
ENDBRANCH   2  13
BRANCH   4  15
ATOM     15  O   UNL     1       1.359   2.462  22.271  0.00  0.00    +0.000 OA
ATOM     16  H   UNL     1       1.945   2.098  22.957  0.00  0.00    +0.000 HD
ENDBRANCH   4  15
BRANCH   6  17
ATOM     17  O   UNL     1       1.990   6.035  19.151  0.00  0.00    +0.000 OA
BRANCH  17  18
ATOM     18  C   UNL     1       2.243   7.238  19.897  0.00  0.00    +0.000 C 
BRANCH  18  19
ATOM     19  C   UNL     1       1.846   8.440  19.155  0.00  0.00    +0.000 A 
ATOM     20  C   UNL     1       1.081   9.589  19.478  0.00  0.00    +0.000 A 
ATOM     21  N   UNL     1       1.072  10.436  18.436  0.00  0.00    +0.000 NA
ATOM     22  O   UNL     1       1.867   9.880  17.447  0.00  0.00    +0.000 OA
ATOM     23  N   UNL     1       2.333   8.622  17.930  0.00  0.00    +0.000 N 
ATOM     24  O   UNL     1       3.134   7.998  17.199  0.00  0.00    +0.000 OA
BRANCH  20  25
ATOM     25  C   UNL     1       0.381   9.943  20.719  0.00  0.00    +0.000 A 
ATOM     26  C   UNL     1      -0.452  11.068  20.802  0.00  0.00    +0.000 A 
ATOM     27  C   UNL     1      -1.115  11.383  21.992  0.00  0.00    +0.000 A 
ATOM     28  C   UNL     1      -0.969  10.569  23.111  0.00  0.00    +0.000 A 
ATOM     29  C   UNL     1      -0.163   9.437  23.042  0.00  0.00    +0.000 A 
ATOM     30  C   UNL     1       0.507   9.126  21.855  0.00  0.00    +0.000 A 
ENDBRANCH  20  25
ENDBRANCH  18  19
ENDBRANCH  17  18
ENDBRANCH   6  17
TORSDOF 9
ENDMDL
MODEL 8
REMARK VINA RESULT:      -8.3      3.086      8.040
REMARK  Name = 
REMARK  11 active torsions:
REMARK  status: ('A' for Active; 'I' for Inactive)
REMARK    1  A    between atoms: C_1  and  C_2
REMARK    2  A    between atoms: C_2  and  C_3
REMARK    3  A    between atoms: C_2  and  C_4
REMARK    4  A    between atoms: C_4  and  C_5
REMARK    5  A    between atoms: C_5  and  C_7
REMARK    6  A    between atoms: C_8  and  O_9
REMARK    7  A    between atoms: C_11  and  O_12
REMARK    8  A    between atoms: C_14  and  O_15
REMARK    9  A    between atoms: O_15  and  C_16
REMARK   10  A    between atoms: C_16  and  C_17
REMARK   11  A    between atoms: C_18  and  C_19
REMARK                            x       y       z     vdW  Elec       q    Type
REMARK                         _______ _______ _______ _____ _____    ______ ____
ROOT
ATOM      1  C   UNL     1       2.187   6.736  19.417  0.00  0.00    +0.000 A 
ATOM      2  C   UNL     1       1.475   7.841  19.939  0.00  0.00    +0.000 A 
ATOM      3  C   UNL     1       1.454   9.072  19.289  0.00  0.00    +0.000 A 
ATOM      4  C   UNL     1       2.163   9.212  18.113  0.00  0.00    +0.000 A 
ATOM      5  C   UNL     1       2.868   8.143  17.568  0.00  0.00    +0.000 A 
ATOM      6  C   UNL     1       2.908   6.896  18.215  0.00  0.00    +0.000 A 
ENDROOT
BRANCH   1   7
ATOM      7  C   UNL     1       2.164   5.485  20.225  0.00  0.00    +0.000 C 
ATOM      8  O   UNL     1       2.798   5.482  21.285  0.00  0.00    +0.000 OA
BRANCH   7   9
ATOM      9  C   UNL     1       1.331   4.292  19.785  0.00  0.00    +0.000 C 
BRANCH   9  11
ATOM     10  C   UNL     1       1.478   2.482  21.572  0.00  0.00    +0.000 C 
ATOM     11  C   UNL     1       1.975   2.951  20.201  0.00  0.00    +0.000 C 
ATOM     12  C   UNL     1       1.681   1.877  19.152  0.00  0.00    +0.000 C 
ENDBRANCH   9  11
ENDBRANCH   7   9
ENDBRANCH   1   7
BRANCH   2  13
ATOM     13  O   UNL     1       0.757   7.787  21.109  0.00  0.00    +0.000 OA
ATOM     14  H   UNL     1       0.884   6.894  21.501  0.00  0.00    +0.000 HD
ENDBRANCH   2  13
BRANCH   4  15
ATOM     15  O   UNL     1       2.207  10.398  17.441  0.00  0.00    +0.000 OA
ATOM     16  H   UNL     1       1.703  10.309  16.613  0.00  0.00    +0.000 HD
ENDBRANCH   4  15
BRANCH   6  17
ATOM     17  O   UNL     1       3.602   5.826  17.696  0.00  0.00    +0.000 OA
BRANCH  17  18
ATOM     18  C   UNL     1       4.648   6.137  16.759  0.00  0.00    +0.000 C 
BRANCH  18  19
ATOM     19  C   UNL     1       5.872   5.373  17.026  0.00  0.00    +0.000 A 
ATOM     20  C   UNL     1       6.820   4.713  16.204  0.00  0.00    +0.000 A 
ATOM     21  N   UNL     1       7.806   4.209  16.964  0.00  0.00    +0.000 NA
ATOM     22  O   UNL     1       7.544   4.574  18.274  0.00  0.00    +0.000 OA
ATOM     23  N   UNL     1       6.316   5.300  18.279  0.00  0.00    +0.000 N 
ATOM     24  O   UNL     1       5.949   5.782  19.373  0.00  0.00    +0.000 OA
BRANCH  20  25
ATOM     25  C   UNL     1       6.861   4.553  14.746  0.00  0.00    +0.000 A 
ATOM     26  C   UNL     1       6.013   3.659  14.076  0.00  0.00    +0.000 A 
ATOM     27  C   UNL     1       6.062   3.527  12.685  0.00  0.00    +0.000 A 
ATOM     28  C   UNL     1       6.949   4.299  11.941  0.00  0.00    +0.000 A 
ATOM     29  C   UNL     1       7.784   5.207  12.585  0.00  0.00    +0.000 A 
ATOM     30  C   UNL     1       7.741   5.332  13.977  0.00  0.00    +0.000 A 
ENDBRANCH  20  25
ENDBRANCH  18  19
ENDBRANCH  17  18
ENDBRANCH   6  17
TORSDOF 9
ENDMDL
MODEL 9
REMARK VINA RESULT:      -8.2      1.254      1.434
REMARK  Name = 
REMARK  11 active torsions:
REMARK  status: ('A' for Active; 'I' for Inactive)
REMARK    1  A    between atoms: C_1  and  C_2
REMARK    2  A    between atoms: C_2  and  C_3
REMARK    3  A    between atoms: C_2  and  C_4
REMARK    4  A    between atoms: C_4  and  C_5
REMARK    5  A    between atoms: C_5  and  C_7
REMARK    6  A    between atoms: C_8  and  O_9
REMARK    7  A    between atoms: C_11  and  O_12
REMARK    8  A    between atoms: C_14  and  O_15
REMARK    9  A    between atoms: O_15  and  C_16
REMARK   10  A    between atoms: C_16  and  C_17
REMARK   11  A    between atoms: C_18  and  C_19
REMARK                            x       y       z     vdW  Elec       q    Type
REMARK                         _______ _______ _______ _____ _____    ______ ____
ROOT
ATOM      1  C   UNL     1       3.734   3.919  18.663  0.00  0.00    +0.000 A 
ATOM      2  C   UNL     1       3.375   2.558  18.533  0.00  0.00    +0.000 A 
ATOM      3  C   UNL     1       2.120   2.091  18.915  0.00  0.00    +0.000 A 
ATOM      4  C   UNL     1       1.215   2.987  19.450  0.00  0.00    +0.000 A 
ATOM      5  C   UNL     1       1.533   4.335  19.585  0.00  0.00    +0.000 A 
ATOM      6  C   UNL     1       2.798   4.822  19.212  0.00  0.00    +0.000 A 
ENDROOT
BRANCH   1   7
ATOM      7  C   UNL     1       5.118   4.287  18.255  0.00  0.00    +0.000 C 
ATOM      8  O   UNL     1       6.033   4.014  19.039  0.00  0.00    +0.000 OA
BRANCH   7   9
ATOM      9  C   UNL     1       5.387   4.909  16.894  0.00  0.00    +0.000 C 
BRANCH   9  11
ATOM     10  C   UNL     1       7.272   4.925  15.180  0.00  0.00    +0.000 C 
ATOM     11  C   UNL     1       6.895   5.138  16.649  0.00  0.00    +0.000 C 
ATOM     12  C   UNL     1       7.290   6.551  17.083  0.00  0.00    +0.000 C 
ENDBRANCH   9  11
ENDBRANCH   7   9
ENDBRANCH   1   7
BRANCH   2  13
ATOM     13  O   UNL     1       4.222   1.603  18.025  0.00  0.00    +0.000 OA
ATOM     14  H   UNL     1       3.780   1.191  17.248  0.00  0.00    +0.000 HD
ENDBRANCH   2  13
BRANCH   4  15
ATOM     15  O   UNL     1      -0.020   2.590  19.870  0.00  0.00    +0.000 OA
ATOM     16  H   UNL     1       0.038   1.676  20.197  0.00  0.00    +0.000 HD
ENDBRANCH   4  15
BRANCH   6  17
ATOM     17  O   UNL     1       3.136   6.150  19.341  0.00  0.00    +0.000 OA
BRANCH  17  18
ATOM     18  C   UNL     1       2.176   6.992  20.003  0.00  0.00    +0.000 C 
BRANCH  18  19
ATOM     19  C   UNL     1       1.888   8.209  19.234  0.00  0.00    +0.000 A 
ATOM     20  C   UNL     1       1.187   9.409  19.516  0.00  0.00    +0.000 A 
ATOM     21  N   UNL     1       1.275  10.241  18.466  0.00  0.00    +0.000 NA
ATOM     22  O   UNL     1       2.070   9.623  17.515  0.00  0.00    +0.000 OA
ATOM     23  N   UNL     1       2.434   8.343  18.028  0.00  0.00    +0.000 N 
ATOM     24  O   UNL     1       3.220   7.660  17.336  0.00  0.00    +0.000 OA
BRANCH  20  25
ATOM     25  C   UNL     1       0.463   9.822  20.724  0.00  0.00    +0.000 A 
ATOM     26  C   UNL     1      -0.291  11.003  20.766  0.00  0.00    +0.000 A 
ATOM     27  C   UNL     1      -0.979  11.375  21.924  0.00  0.00    +0.000 A 
ATOM     28  C   UNL     1      -0.937  10.563  23.054  0.00  0.00    +0.000 A 
ATOM     29  C   UNL     1      -0.211   9.376  23.025  0.00  0.00    +0.000 A 
ATOM     30  C   UNL     1       0.485   9.009  21.869  0.00  0.00    +0.000 A 
ENDBRANCH  20  25
ENDBRANCH  18  19
ENDBRANCH  17  18
ENDBRANCH   6  17
TORSDOF 9
ENDMDL
