MODEL 1
REMARK VINA RESULT:      -9.2      0.000      0.000
REMARK  Name = 
REMARK  4 active torsions:
REMARK  status: ('A' for Active; 'I' for Inactive)
REMARK    1  A    between atoms: C_2  and  C_3
REMARK    2  A    between atoms: C_6  and  C_7
REMARK    3  A    between atoms: C_22  and  C_24
REMARK    4  A    between atoms: C_24  and  O_25
REMARK                            x       y       z     vdW  Elec       q    Type
REMARK                         _______ _______ _______ _____ _____    ______ ____
ROOT
ATOM      1  O   UNL     1       7.391   5.218  16.044  0.00  0.00    +0.000 OA
ATOM      2  C   UNL     1       6.702   5.744  16.913  0.00  0.00    +0.000 C 
ATOM      3  N   UNL     1       5.479   5.227  17.345  0.00  0.00    +0.000 N 
ATOM      4  C   UNL     1       4.939   4.016  16.710  0.00  0.00    +0.000 C 
ATOM      5  C   UNL     1       4.674   2.907  17.746  0.00  0.00    +0.000 C 
ATOM      6  N   UNL     1       3.928   3.411  18.909  0.00  0.00    +0.000 N 
ATOM      7  C   UNL     1       2.790   2.760  19.348  0.00  0.00    +0.000 C 
ATOM      8  O   UNL     1       2.356   1.746  18.804  0.00  0.00    +0.000 OA
ATOM      9  C   UNL     1       4.513   4.585  19.542  0.00  0.00    +0.000 C 
ATOM     10  C   UNL     1       4.699   5.695  18.507  0.00  0.00    +0.000 C 
ENDROOT
BRANCH   2  11
ATOM     11  C   UNL     1       7.225   6.959  17.584  0.00  0.00    +0.000 A 
ATOM     12  C   UNL     1       8.087   6.856  18.675  0.00  0.00    +0.000 A 
ATOM     13  C   UNL     1       8.803   7.975  19.098  0.00  0.00    +0.000 A 
ATOM     14  C   UNL     1       8.604   9.235  18.506  0.00  0.00    +0.000 A 
ATOM     15  C   UNL     1       7.613   9.340  17.510  0.00  0.00    +0.000 A 
ATOM     16  C   UNL     1       6.928   8.211  17.045  0.00  0.00    +0.000 A 
BRANCH  14  17
ATOM     17  C   UNL     1       9.412  10.396  18.934  0.00  0.00    +0.000 A 
ATOM     18  C   UNL     1       9.512  10.746  20.303  0.00  0.00    +0.000 A 
ATOM     19  C   UNL     1      10.219  11.870  20.753  0.00  0.00    +0.000 A 
ATOM     20  C   UNL     1      10.841  12.612  19.762  0.00  0.00    +0.000 A 
ATOM     21  O   UNL     1      11.589  13.743  19.919  0.00  0.00    +0.000 OA
ATOM     22  C   UNL     1      11.959  14.061  18.645  0.00  0.00    +0.000 A 
ATOM     23  N   UNL     1      11.522  13.245  17.707  0.00  0.00    +0.000 NA
ATOM     24  C   UNL     1      10.803  12.314  18.411  0.00  0.00    +0.000 A 
ATOM     25  C   UNL     1      10.081  11.194  17.982  0.00  0.00    +0.000 A 
ENDBRANCH  14  17
ENDBRANCH   2  11
BRANCH   7  26
ATOM     26  C   UNL     1       2.094   3.268  20.582  0.00  0.00    +0.000 C 
ATOM     27  C   UNL     1       1.712   4.708  20.833  0.00  0.00    +0.000 C 
ATOM     28  C   UNL     1       0.662   3.730  20.420  0.00  0.00    +0.000 C 
BRANCH  26  29
ATOM     29  O   UNL     1       2.388   2.531  21.790  0.00  0.00    +0.000 OA
ATOM     30  H   UNL     1       3.060   2.995  22.321  0.00  0.00    +0.000 HD
ENDBRANCH  26  29
ENDBRANCH   7  26
TORSDOF 4
ENDMDL
MODEL 2
REMARK VINA RESULT:      -8.7      7.040      9.722
REMARK  Name = 
REMARK  4 active torsions:
REMARK  status: ('A' for Active; 'I' for Inactive)
REMARK    1  A    between atoms: C_2  and  C_3
REMARK    2  A    between atoms: C_6  and  C_7
REMARK    3  A    between atoms: C_22  and  C_24
REMARK    4  A    between atoms: C_24  and  O_25
REMARK                            x       y       z     vdW  Elec       q    Type
REMARK                         _______ _______ _______ _____ _____    ______ ____
ROOT
ATOM      1  O   UNL     1       1.418  11.158  21.206  0.00  0.00    +0.000 OA
ATOM      2  C   UNL     1       0.630  10.486  20.547  0.00  0.00    +0.000 C 
ATOM      3  N   UNL     1      -0.735  10.762  20.460  0.00  0.00    +0.000 N 
ATOM      4  C   UNL     1      -1.299  11.882  21.228  0.00  0.00    +0.000 C 
ATOM      5  C   UNL     1      -2.022  12.887  20.311  0.00  0.00    +0.000 C 
ATOM      6  N   UNL     1      -2.944  12.214  19.382  0.00  0.00    +0.000 N 
ATOM      7  C   UNL     1      -4.255  12.637  19.268  0.00  0.00    +0.000 C 
ATOM      8  O   UNL     1      -4.707  13.579  19.918  0.00  0.00    +0.000 OA
ATOM      9  C   UNL     1      -2.344  11.139  18.605  0.00  0.00    +0.000 C 
ATOM     10  C   UNL     1      -1.696  10.120  19.542  0.00  0.00    +0.000 C 
ENDROOT
BRANCH   2  11
ATOM     11  C   UNL     1       1.169   9.358  19.749  0.00  0.00    +0.000 A 
ATOM     12  C   UNL     1       1.488   9.525  18.401  0.00  0.00    +0.000 A 
ATOM     13  C   UNL     1       2.265   8.568  17.751  0.00  0.00    +0.000 A 
ATOM     14  C   UNL     1       2.658   7.384  18.400  0.00  0.00    +0.000 A 
ATOM     15  C   UNL     1       2.191   7.171  19.712  0.00  0.00    +0.000 A 
ATOM     16  C   UNL     1       1.454   8.152  20.388  0.00  0.00    +0.000 A 
BRANCH  14  17
ATOM     17  C   UNL     1       3.526   6.407  17.710  0.00  0.00    +0.000 A 
ATOM     18  C   UNL     1       3.203   5.028  17.702  0.00  0.00    +0.000 A 
ATOM     19  C   UNL     1       4.022   4.056  17.110  0.00  0.00    +0.000 A 
ATOM     20  C   UNL     1       5.170   4.541  16.505  0.00  0.00    +0.000 A 
ATOM     21  O   UNL     1       6.134   3.822  15.859  0.00  0.00    +0.000 OA
ATOM     22  C   UNL     1       7.027   4.772  15.457  0.00  0.00    +0.000 A 
ATOM     23  N   UNL     1       6.721   6.012  15.782  0.00  0.00    +0.000 NA
ATOM     24  C   UNL     1       5.534   5.876  16.456  0.00  0.00    +0.000 A 
ATOM     25  C   UNL     1       4.707   6.828  17.064  0.00  0.00    +0.000 A 
ENDBRANCH  14  17
ENDBRANCH   2  11
BRANCH   7  26
ATOM     26  C   UNL     1      -5.148  11.967  18.258  0.00  0.00    +0.000 C 
ATOM     27  C   UNL     1      -5.747  10.588  18.407  0.00  0.00    +0.000 C 
ATOM     28  C   UNL     1      -6.602  11.791  18.638  0.00  0.00    +0.000 C 
BRANCH  26  29
ATOM     29  O   UNL     1      -4.895  12.339  16.884  0.00  0.00    +0.000 OA
ATOM     30  H   UNL     1      -5.138  13.269  16.730  0.00  0.00    +0.000 HD
ENDBRANCH  26  29
ENDBRANCH   7  26
TORSDOF 4
ENDMDL
MODEL 3
REMARK VINA RESULT:      -8.3      0.905      1.301
REMARK  Name = 
REMARK  4 active torsions:
REMARK  status: ('A' for Active; 'I' for Inactive)
REMARK    1  A    between atoms: C_2  and  C_3
REMARK    2  A    between atoms: C_6  and  C_7
REMARK    3  A    between atoms: C_22  and  C_24
REMARK    4  A    between atoms: C_24  and  O_25
REMARK                            x       y       z     vdW  Elec       q    Type
REMARK                         _______ _______ _______ _____ _____    ______ ____
ROOT
ATOM      1  O   UNL     1       7.485   5.228  16.076  0.00  0.00    +0.000 OA
ATOM      2  C   UNL     1       6.765   5.766  16.912  0.00  0.00    +0.000 C 
ATOM      3  N   UNL     1       5.548   5.232  17.341  0.00  0.00    +0.000 N 
ATOM      4  C   UNL     1       5.052   3.985  16.741  0.00  0.00    +0.000 C 
ATOM      5  C   UNL     1       4.797   2.907  17.813  0.00  0.00    +0.000 C 
ATOM      6  N   UNL     1       4.016   3.434  18.943  0.00  0.00    +0.000 N 
ATOM      7  C   UNL     1       2.888   2.768  19.384  0.00  0.00    +0.000 C 
ATOM      8  O   UNL     1       2.491   1.723  18.870  0.00  0.00    +0.000 OA
ATOM      9  C   UNL     1       4.558   4.645  19.542  0.00  0.00    +0.000 C 
ATOM     10  C   UNL     1       4.734   5.721  18.470  0.00  0.00    +0.000 C 
ENDROOT
BRANCH   2  11
ATOM     11  C   UNL     1       7.243   7.018  17.547  0.00  0.00    +0.000 A 
ATOM     12  C   UNL     1       8.157   6.981  18.599  0.00  0.00    +0.000 A 
ATOM     13  C   UNL     1       8.822   8.146  18.979  0.00  0.00    +0.000 A 
ATOM     14  C   UNL     1       8.521   9.384  18.384  0.00  0.00    +0.000 A 
ATOM     15  C   UNL     1       7.483   9.418  17.433  0.00  0.00    +0.000 A 
ATOM     16  C   UNL     1       6.848   8.243  17.010  0.00  0.00    +0.000 A 
BRANCH  14  17
ATOM     17  C   UNL     1       9.275  10.597  18.764  0.00  0.00    +0.000 A 
ATOM     18  C   UNL     1      10.343  11.069  17.961  0.00  0.00    +0.000 A 
ATOM     19  C   UNL     1      11.123  12.182  18.306  0.00  0.00    +0.000 A 
ATOM     20  C   UNL     1      10.764  12.811  19.486  0.00  0.00    +0.000 A 
ATOM     21  O   UNL     1      11.347  13.907  20.053  0.00  0.00    +0.000 OA
ATOM     22  C   UNL     1      10.616  14.109  21.186  0.00  0.00    +0.000 A 
ATOM     23  N   UNL     1       9.633  13.255  21.387  0.00  0.00    +0.000 NA
ATOM     24  C   UNL     1       9.719  12.418  20.305  0.00  0.00    +0.000 A 
ATOM     25  C   UNL     1       8.960  11.297  19.947  0.00  0.00    +0.000 A 
ENDBRANCH  14  17
ENDBRANCH   2  11
BRANCH   7  26
ATOM     26  C   UNL     1       2.155   3.302  20.586  0.00  0.00    +0.000 C 
ATOM     27  C   UNL     1       1.694   4.730  20.759  0.00  0.00    +0.000 C 
ATOM     28  C   UNL     1       0.702   3.676  20.392  0.00  0.00    +0.000 C 
BRANCH  26  29
ATOM     29  O   UNL     1       2.477   2.646  21.833  0.00  0.00    +0.000 OA
ATOM     30  H   UNL     1       1.873   1.901  21.995  0.00  0.00    +0.000 HD
ENDBRANCH  26  29
ENDBRANCH   7  26
TORSDOF 4
ENDMDL
MODEL 4
REMARK VINA RESULT:      -8.3      0.865      1.123
REMARK  Name = 
REMARK  4 active torsions:
REMARK  status: ('A' for Active; 'I' for Inactive)
REMARK    1  A    between atoms: C_2  and  C_3
REMARK    2  A    between atoms: C_6  and  C_7
REMARK    3  A    between atoms: C_22  and  C_24
REMARK    4  A    between atoms: C_24  and  O_25
REMARK                            x       y       z     vdW  Elec       q    Type
REMARK                         _______ _______ _______ _____ _____    ______ ____
ROOT
ATOM      1  O   UNL     1       7.673   4.804  16.522  0.00  0.00    +0.000 OA
ATOM      2  C   UNL     1       6.865   5.452  17.181  0.00  0.00    +0.000 C 
ATOM      3  N   UNL     1       5.611   4.966  17.559  0.00  0.00    +0.000 N 
ATOM      4  C   UNL     1       5.189   3.629  17.118  0.00  0.00    +0.000 C 
ATOM      5  C   UNL     1       4.826   2.730  18.315  0.00  0.00    +0.000 C 
ATOM      6  N   UNL     1       3.925   3.411  19.258  0.00  0.00    +0.000 N 
ATOM      7  C   UNL     1       2.759   2.800  19.679  0.00  0.00    +0.000 C 
ATOM      8  O   UNL     1       2.425   1.678  19.299  0.00  0.00    +0.000 OA
ATOM      9  C   UNL     1       4.393   4.714  19.709  0.00  0.00    +0.000 C 
ATOM     10  C   UNL     1       4.678   5.610  18.504  0.00  0.00    +0.000 C 
ENDROOT
BRANCH   2  11
ATOM     11  C   UNL     1       7.266   6.799  17.654  0.00  0.00    +0.000 A 
ATOM     12  C   UNL     1       8.222   6.948  18.658  0.00  0.00    +0.000 A 
ATOM     13  C   UNL     1       8.805   8.194  18.878  0.00  0.00    +0.000 A 
ATOM     14  C   UNL     1       8.382   9.333  18.170  0.00  0.00    +0.000 A 
ATOM     15  C   UNL     1       7.307   9.183  17.272  0.00  0.00    +0.000 A 
ATOM     16  C   UNL     1       6.752   7.924  17.009  0.00  0.00    +0.000 A 
BRANCH  14  17
ATOM     17  C   UNL     1       9.051  10.634  18.380  0.00  0.00    +0.000 A 
ATOM     18  C   UNL     1       8.554  11.812  17.770  0.00  0.00    +0.000 A 
ATOM     19  C   UNL     1       9.184  13.059  17.893  0.00  0.00    +0.000 A 
ATOM     20  C   UNL     1      10.325  13.069  18.679  0.00  0.00    +0.000 A 
ATOM     21  O   UNL     1      11.125  14.136  18.966  0.00  0.00    +0.000 OA
ATOM     22  C   UNL     1      12.091  13.605  19.769  0.00  0.00    +0.000 A 
ATOM     23  N   UNL     1      11.978  12.317  20.017  0.00  0.00    +0.000 NA
ATOM     24  C   UNL     1      10.850  11.961  19.322  0.00  0.00    +0.000 A 
ATOM     25  C   UNL     1      10.212  10.724  19.176  0.00  0.00    +0.000 A 
ENDBRANCH  14  17
ENDBRANCH   2  11
BRANCH   7  26
ATOM     26  C   UNL     1       1.899   3.501  20.696  0.00  0.00    +0.000 C 
ATOM     27  C   UNL     1       1.411   4.927  20.585  0.00  0.00    +0.000 C 
ATOM     28  C   UNL     1       0.471   3.802  20.294  0.00  0.00    +0.000 C 
BRANCH  26  29
ATOM     29  O   UNL     1       2.093   3.063  22.059  0.00  0.00    +0.000 OA
ATOM     30  H   UNL     1       1.465   3.508  22.656  0.00  0.00    +0.000 HD
ENDBRANCH  26  29
ENDBRANCH   7  26
TORSDOF 4
ENDMDL
MODEL 5
REMARK VINA RESULT:      -7.9      8.211     11.095
REMARK  Name = 
REMARK  4 active torsions:
REMARK  status: ('A' for Active; 'I' for Inactive)
REMARK    1  A    between atoms: C_2  and  C_3
REMARK    2  A    between atoms: C_6  and  C_7
REMARK    3  A    between atoms: C_22  and  C_24
REMARK    4  A    between atoms: C_24  and  O_25
REMARK                            x       y       z     vdW  Elec       q    Type
REMARK                         _______ _______ _______ _____ _____    ______ ____
ROOT
ATOM      1  O   UNL     1       1.127  13.322  21.203  0.00  0.00    +0.000 OA
ATOM      2  C   UNL     1       0.370  12.455  21.630  0.00  0.00    +0.000 C 
ATOM      3  N   UNL     1      -0.705  12.720  22.480  0.00  0.00    +0.000 N 
ATOM      4  C   UNL     1      -0.940  14.094  22.944  0.00  0.00    +0.000 C 
ATOM      5  C   UNL     1      -2.358  14.577  22.582  0.00  0.00    +0.000 C 
ATOM      6  N   UNL     1      -3.383  13.589  22.950  0.00  0.00    +0.000 N 
ATOM      7  C   UNL     1      -4.486  13.968  23.692  0.00  0.00    +0.000 C 
ATOM      8  O   UNL     1      -4.666  15.125  24.070  0.00  0.00    +0.000 OA
ATOM      9  C   UNL     1      -3.144  12.247  22.438  0.00  0.00    +0.000 C 
ATOM     10  C   UNL     1      -1.760  11.765  22.872  0.00  0.00    +0.000 C 
ENDROOT
BRANCH   2  11
ATOM     11  C   UNL     1       0.571  11.060  21.169  0.00  0.00    +0.000 A 
ATOM     12  C   UNL     1       0.649  10.762  19.808  0.00  0.00    +0.000 A 
ATOM     13  C   UNL     1       1.135   9.521  19.399  0.00  0.00    +0.000 A 
ATOM     14  C   UNL     1       1.461   8.522  20.332  0.00  0.00    +0.000 A 
ATOM     15  C   UNL     1       1.225   8.796  21.694  0.00  0.00    +0.000 A 
ATOM     16  C   UNL     1       0.787  10.058  22.115  0.00  0.00    +0.000 A 
BRANCH  14  17
ATOM     17  C   UNL     1       2.025   7.232  19.880  0.00  0.00    +0.000 A 
ATOM     18  C   UNL     1       1.867   6.059  20.657  0.00  0.00    +0.000 A 
ATOM     19  C   UNL     1       2.429   4.825  20.298  0.00  0.00    +0.000 A 
ATOM     20  C   UNL     1       3.139   4.823  19.108  0.00  0.00    +0.000 A 
ATOM     21  O   UNL     1       3.782   3.769  18.528  0.00  0.00    +0.000 OA
ATOM     22  C   UNL     1       4.308   4.303  17.389  0.00  0.00    +0.000 A 
ATOM     23  N   UNL     1       4.059   5.582  17.194  0.00  0.00    +0.000 NA
ATOM     24  C   UNL     1       3.312   5.927  18.290  0.00  0.00    +0.000 A 
ATOM     25  C   UNL     1       2.752   7.151  18.674  0.00  0.00    +0.000 A 
ENDBRANCH  14  17
ENDBRANCH   2  11
BRANCH   7  26
ATOM     26  C   UNL     1      -5.547  12.942  23.991  0.00  0.00    +0.000 C 
ATOM     27  C   UNL     1      -7.017  13.239  24.170  0.00  0.00    +0.000 C 
ATOM     28  C   UNL     1      -6.538  12.641  22.887  0.00  0.00    +0.000 C 
BRANCH  26  29
ATOM     29  O   UNL     1      -5.091  11.804  24.758  0.00  0.00    +0.000 OA
ATOM     30  H   UNL     1      -4.719  12.092  25.610  0.00  0.00    +0.000 HD
ENDBRANCH  26  29
ENDBRANCH   7  26
TORSDOF 4
ENDMDL
MODEL 6
REMARK VINA RESULT:      -7.9      6.117     10.162
REMARK  Name = 
REMARK  4 active torsions:
REMARK  status: ('A' for Active; 'I' for Inactive)
REMARK    1  A    between atoms: C_2  and  C_3
REMARK    2  A    between atoms: C_6  and  C_7
REMARK    3  A    between atoms: C_22  and  C_24
REMARK    4  A    between atoms: C_24  and  O_25
REMARK                            x       y       z     vdW  Elec       q    Type
REMARK                         _______ _______ _______ _____ _____    ______ ____
ROOT
ATOM      1  O   UNL     1      -0.388  10.567  21.649  0.00  0.00    +0.000 OA
ATOM      2  C   UNL     1       0.265  10.772  20.630  0.00  0.00    +0.000 C 
ATOM      3  N   UNL     1       0.564  12.048  20.148  0.00  0.00    +0.000 N 
ATOM      4  C   UNL     1       0.041  13.228  20.851  0.00  0.00    +0.000 C 
ATOM      5  C   UNL     1       1.176  14.178  21.279  0.00  0.00    +0.000 C 
ATOM      6  N   UNL     1       2.110  14.447  20.175  0.00  0.00    +0.000 N 
ATOM      7  C   UNL     1       2.449  15.746  19.846  0.00  0.00    +0.000 C 
ATOM      8  O   UNL     1       2.002  16.721  20.449  0.00  0.00    +0.000 OA
ATOM      9  C   UNL     1       2.644  13.256  19.528  0.00  0.00    +0.000 C 
ATOM     10  C   UNL     1       1.496  12.367  19.050  0.00  0.00    +0.000 C 
ENDROOT
BRANCH   2  11
ATOM     11  C   UNL     1       0.819   9.602  19.905  0.00  0.00    +0.000 A 
ATOM     12  C   UNL     1       0.959   9.622  18.518  0.00  0.00    +0.000 A 
ATOM     13  C   UNL     1       1.749   8.662  17.888  0.00  0.00    +0.000 A 
ATOM     14  C   UNL     1       2.336   7.610  18.614  0.00  0.00    +0.000 A 
ATOM     15  C   UNL     1       2.049   7.527  19.991  0.00  0.00    +0.000 A 
ATOM     16  C   UNL     1       1.300   8.517  20.638  0.00  0.00    +0.000 A 
BRANCH  14  17
ATOM     17  C   UNL     1       3.213   6.633  17.936  0.00  0.00    +0.000 A 
ATOM     18  C   UNL     1       2.885   5.255  17.916  0.00  0.00    +0.000 A 
ATOM     19  C   UNL     1       3.711   4.282  17.335  0.00  0.00    +0.000 A 
ATOM     20  C   UNL     1       4.872   4.765  16.754  0.00  0.00    +0.000 A 
ATOM     21  O   UNL     1       5.845   4.046  16.123  0.00  0.00    +0.000 OA
ATOM     22  C   UNL     1       6.749   4.994  15.743  0.00  0.00    +0.000 A 
ATOM     23  N   UNL     1       6.441   6.233  16.067  0.00  0.00    +0.000 NA
ATOM     24  C   UNL     1       5.242   6.099  16.717  0.00  0.00    +0.000 A 
ATOM     25  C   UNL     1       4.407   7.052  17.314  0.00  0.00    +0.000 A 
ENDBRANCH  14  17
ENDBRANCH   2  11
BRANCH   7  26
ATOM     26  C   UNL     1       3.460  15.977  18.754  0.00  0.00    +0.000 C 
ATOM     27  C   UNL     1       3.378  15.404  17.359  0.00  0.00    +0.000 C 
ATOM     28  C   UNL     1       3.025  16.837  17.588  0.00  0.00    +0.000 C 
BRANCH  26  29
ATOM     29  O   UNL     1       4.815  16.177  19.216  0.00  0.00    +0.000 OA
ATOM     30  H   UNL     1       5.089  17.102  19.087  0.00  0.00    +0.000 HD
ENDBRANCH  26  29
ENDBRANCH   7  26
TORSDOF 4
ENDMDL
MODEL 7
REMARK VINA RESULT:      -7.9      6.385      9.933
REMARK  Name = 
REMARK  4 active torsions:
REMARK  status: ('A' for Active; 'I' for Inactive)
REMARK    1  A    between atoms: C_2  and  C_3
REMARK    2  A    between atoms: C_6  and  C_7
REMARK    3  A    between atoms: C_22  and  C_24
REMARK    4  A    between atoms: C_24  and  O_25
REMARK                            x       y       z     vdW  Elec       q    Type
REMARK                         _______ _______ _______ _____ _____    ______ ____
ROOT
ATOM      1  O   UNL     1      -0.622   9.028  21.235  0.00  0.00    +0.000 OA
ATOM      2  C   UNL     1       0.152   9.636  20.502  0.00  0.00    +0.000 C 
ATOM      3  N   UNL     1       0.116  11.020  20.319  0.00  0.00    +0.000 N 
ATOM      4  C   UNL     1      -0.926  11.812  20.989  0.00  0.00    +0.000 C 
ATOM      5  C   UNL     1      -0.314  12.917  21.872  0.00  0.00    +0.000 C 
ATOM      6  N   UNL     1       0.716  13.683  21.153  0.00  0.00    +0.000 N 
ATOM      7  C   UNL     1       0.672  15.065  21.129  0.00  0.00    +0.000 C 
ATOM      8  O   UNL     1      -0.208  15.709  21.699  0.00  0.00    +0.000 OA
ATOM      9  C   UNL     1       1.758  12.872  20.538  0.00  0.00    +0.000 C 
ATOM     10  C   UNL     1       1.126  11.831  19.613  0.00  0.00    +0.000 C 
ENDROOT
BRANCH   2  11
ATOM     11  C   UNL     1       1.224   8.868  19.823  0.00  0.00    +0.000 A 
ATOM     12  C   UNL     1       1.817   7.769  20.443  0.00  0.00    +0.000 A 
ATOM     13  C   UNL     1       2.590   6.885  19.692  0.00  0.00    +0.000 A 
ATOM     14  C   UNL     1       2.866   7.130  18.335  0.00  0.00    +0.000 A 
ATOM     15  C   UNL     1       2.383   8.329  17.775  0.00  0.00    +0.000 A 
ATOM     16  C   UNL     1       1.563   9.194  18.510  0.00  0.00    +0.000 A 
BRANCH  14  17
ATOM     17  C   UNL     1       3.644   6.153  17.544  0.00  0.00    +0.000 A 
ATOM     18  C   UNL     1       3.345   4.770  17.602  0.00  0.00    +0.000 A 
ATOM     19  C   UNL     1       4.087   3.799  16.914  0.00  0.00    +0.000 A 
ATOM     20  C   UNL     1       5.131   4.289  16.146  0.00  0.00    +0.000 A 
ATOM     21  O   UNL     1       6.006   3.574  15.381  0.00  0.00    +0.000 OA
ATOM     22  C   UNL     1       6.817   4.529  14.844  0.00  0.00    +0.000 A 
ATOM     23  N   UNL     1       6.541   5.769  15.191  0.00  0.00    +0.000 NA
ATOM     24  C   UNL     1       5.463   5.628  16.027  0.00  0.00    +0.000 A 
ATOM     25  C   UNL     1       4.715   6.579  16.731  0.00  0.00    +0.000 A 
ENDBRANCH  14  17
ENDBRANCH   2  11
BRANCH   7  26
ATOM     26  C   UNL     1       1.781  15.814  20.441  0.00  0.00    +0.000 C 
ATOM     27  C   UNL     1       2.087  15.749  18.963  0.00  0.00    +0.000 C 
ATOM     28  C   UNL     1       1.376  16.941  19.515  0.00  0.00    +0.000 C 
BRANCH  26  29
ATOM     29  O   UNL     1       2.947  16.058  21.260  0.00  0.00    +0.000 OA
ATOM     30  H   UNL     1       3.388  16.883  20.992  0.00  0.00    +0.000 HD
ENDBRANCH  26  29
ENDBRANCH   7  26
TORSDOF 4
ENDMDL
MODEL 8
REMARK VINA RESULT:      -7.9      6.076     10.881
REMARK  Name = 
REMARK  4 active torsions:
REMARK  status: ('A' for Active; 'I' for Inactive)
REMARK    1  A    between atoms: C_2  and  C_3
REMARK    2  A    between atoms: C_6  and  C_7
REMARK    3  A    between atoms: C_22  and  C_24
REMARK    4  A    between atoms: C_24  and  O_25
REMARK                            x       y       z     vdW  Elec       q    Type
REMARK                         _______ _______ _______ _____ _____    ______ ____
ROOT
ATOM      1  O   UNL     1      -0.976  11.556  19.125  0.00  0.00    +0.000 OA
ATOM      2  C   UNL     1       0.244  11.535  18.991  0.00  0.00    +0.000 C 
ATOM      3  N   UNL     1       1.002  12.656  18.649  0.00  0.00    +0.000 N 
ATOM      4  C   UNL     1       0.326  13.933  18.381  0.00  0.00    +0.000 C 
ATOM      5  C   UNL     1       0.855  15.055  19.296  0.00  0.00    +0.000 C 
ATOM      6  N   UNL     1       2.326  15.096  19.316  0.00  0.00    +0.000 N 
ATOM      7  C   UNL     1       2.996  16.283  19.089  0.00  0.00    +0.000 C 
ATOM      8  O   UNL     1       2.411  17.343  18.869  0.00  0.00    +0.000 OA
ATOM      9  C   UNL     1       2.964  13.825  19.628  0.00  0.00    +0.000 C 
ATOM     10  C   UNL     1       2.475  12.747  18.660  0.00  0.00    +0.000 C 
ENDROOT
BRANCH   2  11
ATOM     11  C   UNL     1       0.958  10.265  19.269  0.00  0.00    +0.000 A 
ATOM     12  C   UNL     1       0.956   9.709  20.548  0.00  0.00    +0.000 A 
ATOM     13  C   UNL     1       1.360   8.388  20.729  0.00  0.00    +0.000 A 
ATOM     14  C   UNL     1       1.864   7.627  19.660  0.00  0.00    +0.000 A 
ATOM     15  C   UNL     1       2.000   8.264  18.411  0.00  0.00    +0.000 A 
ATOM     16  C   UNL     1       1.547   9.574  18.211  0.00  0.00    +0.000 A 
BRANCH  14  17
ATOM     17  C   UNL     1       2.237   6.211  19.862  0.00  0.00    +0.000 A 
ATOM     18  C   UNL     1       1.385   5.330  20.571  0.00  0.00    +0.000 A 
ATOM     19  C   UNL     1       1.719   3.994  20.837  0.00  0.00    +0.000 A 
ATOM     20  C   UNL     1       2.942   3.581  20.335  0.00  0.00    +0.000 A 
ATOM     21  O   UNL     1       3.509   2.344  20.446  0.00  0.00    +0.000 OA
ATOM     22  C   UNL     1       4.694   2.475  19.782  0.00  0.00    +0.000 A 
ATOM     23  N   UNL     1       4.927   3.664  19.265  0.00  0.00    +0.000 NA
ATOM     24  C   UNL     1       3.812   4.382  19.614  0.00  0.00    +0.000 A 
ATOM     25  C   UNL     1       3.463   5.715  19.371  0.00  0.00    +0.000 A 
ENDBRANCH  14  17
ENDBRANCH   2  11
BRANCH   7  26
ATOM     26  C   UNL     1       4.498  16.298  19.186  0.00  0.00    +0.000 C 
ATOM     27  C   UNL     1       5.321  17.430  19.754  0.00  0.00    +0.000 C 
ATOM     28  C   UNL     1       5.096  16.201  20.572  0.00  0.00    +0.000 C 
BRANCH  26  29
ATOM     29  O   UNL     1       5.180  15.554  18.150  0.00  0.00    +0.000 OA
ATOM     30  H   UNL     1       5.275  16.094  17.346  0.00  0.00    +0.000 HD
ENDBRANCH  26  29
ENDBRANCH   7  26
TORSDOF 4
ENDMDL
MODEL 9
REMARK VINA RESULT:      -7.8      6.535     11.037
REMARK  Name = 
REMARK  4 active torsions:
REMARK  status: ('A' for Active; 'I' for Inactive)
REMARK    1  A    between atoms: C_2  and  C_3
REMARK    2  A    between atoms: C_6  and  C_7
REMARK    3  A    between atoms: C_22  and  C_24
REMARK    4  A    between atoms: C_24  and  O_25
REMARK                            x       y       z     vdW  Elec       q    Type
REMARK                         _______ _______ _______ _____ _____    ______ ____
ROOT
ATOM      1  O   UNL     1      -0.954  11.016  20.779  0.00  0.00    +0.000 OA
ATOM      2  C   UNL     1      -0.024  11.203  20.000  0.00  0.00    +0.000 C 
ATOM      3  N   UNL     1       0.278  12.447  19.443  0.00  0.00    +0.000 N 
ATOM      4  C   UNL     1      -0.576  13.604  19.748  0.00  0.00    +0.000 C 
ATOM      5  C   UNL     1       0.238  14.761  20.358  0.00  0.00    +0.000 C 
ATOM      6  N   UNL     1       1.453  15.045  19.578  0.00  0.00    +0.000 N 
ATOM      7  C   UNL     1       1.739  16.335  19.172  0.00  0.00    +0.000 C 
ATOM      8  O   UNL     1       1.012  17.291  19.440  0.00  0.00    +0.000 OA
ATOM      9  C   UNL     1       2.300  13.886  19.331  0.00  0.00    +0.000 C 
ATOM     10  C   UNL     1       1.484  12.781  18.661  0.00  0.00    +0.000 C 
ENDROOT
BRANCH   2  11
ATOM     11  C   UNL     1       0.866  10.060  19.683  0.00  0.00    +0.000 A 
ATOM     12  C   UNL     1       1.219   9.136  20.666  0.00  0.00    +0.000 A 
ATOM     13  C   UNL     1       1.792   7.920  20.299  0.00  0.00    +0.000 A 
ATOM     14  C   UNL     1       2.112   7.640  18.958  0.00  0.00    +0.000 A 
ATOM     15  C   UNL     1       1.887   8.654  18.007  0.00  0.00    +0.000 A 
ATOM     16  C   UNL     1       1.264   9.857  18.362  0.00  0.00    +0.000 A 
BRANCH  14  17
ATOM     17  C   UNL     1       2.671   6.324  18.583  0.00  0.00    +0.000 A 
ATOM     18  C   UNL     1       3.714   6.224  17.629  0.00  0.00    +0.000 A 
ATOM     19  C   UNL     1       4.239   4.997  17.199  0.00  0.00    +0.000 A 
ATOM     20  C   UNL     1       3.680   3.876  17.791  0.00  0.00    +0.000 A 
ATOM     21  O   UNL     1       4.000   2.569  17.561  0.00  0.00    +0.000 OA
ATOM     22  C   UNL     1       3.165   1.884  18.393  0.00  0.00    +0.000 A 
ATOM     23  N   UNL     1       2.357   2.625  19.123  0.00  0.00    +0.000 NA
ATOM     24  C   UNL     1       2.676   3.903  18.745  0.00  0.00    +0.000 A 
ATOM     25  C   UNL     1       2.159   5.139  19.151  0.00  0.00    +0.000 A 
ENDBRANCH  14  17
ENDBRANCH   2  11
BRANCH   7  26
ATOM     26  C   UNL     1       3.026  16.595  18.435  0.00  0.00    +0.000 C 
ATOM     27  C   UNL     1       3.587  15.725  17.335  0.00  0.00    +0.000 C 
ATOM     28  C   UNL     1       2.912  17.011  16.984  0.00  0.00    +0.000 C 
BRANCH  26  29
ATOM     29  O   UNL     1       4.041  17.272  19.209  0.00  0.00    +0.000 OA
ATOM     30  H   UNL     1       4.777  16.668  19.412  0.00  0.00    +0.000 HD
ENDBRANCH  26  29
ENDBRANCH   7  26
TORSDOF 4
ENDMDL
