MODEL 1
REMARK VINA RESULT:      -7.7      0.000      0.000
REMARK  Name = 
REMARK  9 active torsions:
REMARK  status: ('A' for Active; 'I' for Inactive)
REMARK    1  A    between atoms: C_1  and  O_2
REMARK    2  A    between atoms: O_2  and  C_3
REMARK    3  A    between atoms: C_6  and  C_7
REMARK    4  A    between atoms: C_7  and  C_10
REMARK    5  A    between atoms: C_8  and  O_9
REMARK    6  A    between atoms: C_20  and  O_21
REMARK    7  A    between atoms: O_21  and  C_22
REMARK    8  A    between atoms: C_23  and  O_24
REMARK    9  A    between atoms: O_24  and  C_25
REMARK                            x       y       z     vdW  Elec       q    Type
REMARK                         _______ _______ _______ _____ _____    ______ ____
ROOT
ATOM      1  C   UNL     1       4.057   4.495  18.856  0.00  0.00    +0.000 C 
ATOM      2  C   UNL     1       4.127   3.326  19.527  0.00  0.00    +0.000 C 
ENDROOT
BRANCH   1   3
ATOM      3  C   UNL     1       3.077   5.527  19.322  0.00  0.00    +0.000 A 
ATOM      4  C   UNL     1       2.383   5.334  20.523  0.00  0.00    +0.000 A 
ATOM      5  C   UNL     1       1.560   6.335  21.053  0.00  0.00    +0.000 A 
ATOM      6  C   UNL     1       1.411   7.558  20.393  0.00  0.00    +0.000 A 
ATOM      7  C   UNL     1       0.684   8.611  20.964  0.00  0.00    +0.000 A 
ATOM      8  C   UNL     1       0.552   9.831  20.292  0.00  0.00    +0.000 A 
ATOM      9  C   UNL     1       1.094   9.994  19.024  0.00  0.00    +0.000 A 
ATOM     10  C   UNL     1       1.823   8.951  18.445  0.00  0.00    +0.000 A 
ATOM     11  C   UNL     1       2.027   7.744  19.136  0.00  0.00    +0.000 A 
ATOM     12  C   UNL     1       2.860   6.728  18.622  0.00  0.00    +0.000 A 
ENDBRANCH   1   3
BRANCH   1  16
ATOM     13  C   UNL     1       6.596   5.113  15.423  0.00  0.00    +0.000 A 
ATOM     14  C   UNL     1       5.496   4.246  15.380  0.00  0.00    +0.000 A 
ATOM     15  C   UNL     1       4.678   4.077  16.490  0.00  0.00    +0.000 A 
ATOM     16  C   UNL     1       4.983   4.713  17.698  0.00  0.00    +0.000 A 
ATOM     17  C   UNL     1       6.132   5.539  17.781  0.00  0.00    +0.000 A 
ATOM     18  C   UNL     1       6.947   5.752  16.633  0.00  0.00    +0.000 A 
BRANCH  13  20
ATOM     19  C   UNL     1       7.059   4.526  13.163  0.00  0.00    +0.000 C 
ATOM     20  O   UNL     1       7.362   5.323  14.305  0.00  0.00    +0.000 OA
ENDBRANCH  13  20
BRANCH  17  21
ATOM     21  O   UNL     1       6.362   6.027  19.051  0.00  0.00    +0.000 OA
ATOM     22  C   UNL     1       7.444   5.518  19.814  0.00  0.00    +0.000 C 
ENDBRANCH  17  21
BRANCH  18  23
ATOM     23  O   UNL     1       7.993   6.626  16.784  0.00  0.00    +0.000 OA
ATOM     24  C   UNL     1       7.776   7.960  17.214  0.00  0.00    +0.000 C 
ENDBRANCH  18  23
ENDBRANCH   1  16
BRANCH   2  25
ATOM     25  O   UNL     1       4.970   2.271  19.283  0.00  0.00    +0.000 OA
ATOM     26  H   UNL     1       5.889   2.590  19.320  0.00  0.00    +0.000 HD
ENDBRANCH   2  25
TORSDOF 6
ENDMDL
MODEL 2
REMARK VINA RESULT:      -7.3      1.414      2.429
REMARK  Name = 
REMARK  9 active torsions:
REMARK  status: ('A' for Active; 'I' for Inactive)
REMARK    1  A    between atoms: C_1  and  O_2
REMARK    2  A    between atoms: O_2  and  C_3
REMARK    3  A    between atoms: C_6  and  C_7
REMARK    4  A    between atoms: C_7  and  C_10
REMARK    5  A    between atoms: C_8  and  O_9
REMARK    6  A    between atoms: C_20  and  O_21
REMARK    7  A    between atoms: O_21  and  C_22
REMARK    8  A    between atoms: C_23  and  O_24
REMARK    9  A    between atoms: O_24  and  C_25
REMARK                            x       y       z     vdW  Elec       q    Type
REMARK                         _______ _______ _______ _____ _____    ______ ____
ROOT
ATOM      1  C   UNL     1       2.676   5.617  17.921  0.00  0.00    +0.000 C 
ATOM      2  C   UNL     1       1.786   4.602  17.942  0.00  0.00    +0.000 C 
ENDROOT
BRANCH   1   3
ATOM      3  C   UNL     1       2.278   6.927  18.532  0.00  0.00    +0.000 A 
ATOM      4  C   UNL     1       2.153   8.062  17.720  0.00  0.00    +0.000 A 
ATOM      5  C   UNL     1       1.659   9.267  18.232  0.00  0.00    +0.000 A 
ATOM      6  C   UNL     1       1.275   9.367  19.572  0.00  0.00    +0.000 A 
ATOM      7  C   UNL     1       0.671  10.529  20.074  0.00  0.00    +0.000 A 
ATOM      8  C   UNL     1       0.286  10.607  21.417  0.00  0.00    +0.000 A 
ATOM      9  C   UNL     1       0.548   9.554  22.283  0.00  0.00    +0.000 A 
ATOM     10  C   UNL     1       1.146   8.389  21.794  0.00  0.00    +0.000 A 
ATOM     11  C   UNL     1       1.475   8.265  20.432  0.00  0.00    +0.000 A 
ATOM     12  C   UNL     1       1.966   7.056  19.896  0.00  0.00    +0.000 A 
ENDBRANCH   1   3
BRANCH   1  16
ATOM     13  C   UNL     1       6.532   5.041  16.074  0.00  0.00    +0.000 A 
ATOM     14  C   UNL     1       5.399   5.385  15.324  0.00  0.00    +0.000 A 
ATOM     15  C   UNL     1       4.170   5.588  15.941  0.00  0.00    +0.000 A 
ATOM     16  C   UNL     1       4.024   5.376  17.316  0.00  0.00    +0.000 A 
ATOM     17  C   UNL     1       5.143   4.959  18.080  0.00  0.00    +0.000 A 
ATOM     18  C   UNL     1       6.414   4.796  17.460  0.00  0.00    +0.000 A 
BRANCH  13  20
ATOM     19  C   UNL     1       7.781   5.031  14.048  0.00  0.00    +0.000 C 
ATOM     20  O   UNL     1       7.753   4.904  15.467  0.00  0.00    +0.000 OA
ENDBRANCH  13  20
BRANCH  17  21
ATOM     21  O   UNL     1       4.836   4.700  19.401  0.00  0.00    +0.000 OA
ATOM     22  C   UNL     1       4.599   3.366  19.818  0.00  0.00    +0.000 C 
ENDBRANCH  17  21
BRANCH  18  23
ATOM     23  O   UNL     1       7.456   4.465  18.289  0.00  0.00    +0.000 OA
ATOM     24  C   UNL     1       8.052   5.433  19.138  0.00  0.00    +0.000 C 
ENDBRANCH  18  23
ENDBRANCH   1  16
BRANCH   2  25
ATOM     25  O   UNL     1       1.962   3.327  17.468  0.00  0.00    +0.000 OA
ATOM     26  H   UNL     1       2.889   3.221  17.193  0.00  0.00    +0.000 HD
ENDBRANCH   2  25
TORSDOF 6
ENDMDL
MODEL 3
REMARK VINA RESULT:      -7.1      1.260      1.582
REMARK  Name = 
REMARK  9 active torsions:
REMARK  status: ('A' for Active; 'I' for Inactive)
REMARK    1  A    between atoms: C_1  and  O_2
REMARK    2  A    between atoms: O_2  and  C_3
REMARK    3  A    between atoms: C_6  and  C_7
REMARK    4  A    between atoms: C_7  and  C_10
REMARK    5  A    between atoms: C_8  and  O_9
REMARK    6  A    between atoms: C_20  and  O_21
REMARK    7  A    between atoms: O_21  and  C_22
REMARK    8  A    between atoms: C_23  and  O_24
REMARK    9  A    between atoms: O_24  and  C_25
REMARK                            x       y       z     vdW  Elec       q    Type
REMARK                         _______ _______ _______ _____ _____    ______ ____
ROOT
ATOM      1  C   UNL     1       2.880   4.262  18.081  0.00  0.00    +0.000 C 
ATOM      2  C   UNL     1       2.196   3.098  18.088  0.00  0.00    +0.000 C 
ENDROOT
BRANCH   1   3
ATOM      3  C   UNL     1       2.288   5.441  18.791  0.00  0.00    +0.000 A 
ATOM      4  C   UNL     1       1.904   5.322  20.133  0.00  0.00    +0.000 A 
ATOM      5  C   UNL     1       1.472   6.436  20.863  0.00  0.00    +0.000 A 
ATOM      6  C   UNL     1       1.413   7.699  20.268  0.00  0.00    +0.000 A 
ATOM      7  C   UNL     1       1.093   8.843  21.013  0.00  0.00    +0.000 A 
ATOM      8  C   UNL     1       1.048  10.100  20.401  0.00  0.00    +0.000 A 
ATOM      9  C   UNL     1       1.265  10.223  19.036  0.00  0.00    +0.000 A 
ATOM     10  C   UNL     1       1.588   9.090  18.283  0.00  0.00    +0.000 A 
ATOM     11  C   UNL     1       1.708   7.829  18.893  0.00  0.00    +0.000 A 
ATOM     12  C   UNL     1       2.152   6.698  18.176  0.00  0.00    +0.000 A 
ENDBRANCH   1   3
BRANCH   1  16
ATOM     13  C   UNL     1       6.638   4.488  15.974  0.00  0.00    +0.000 A 
ATOM     14  C   UNL     1       5.414   4.419  15.294  0.00  0.00    +0.000 A 
ATOM     15  C   UNL     1       4.213   4.368  15.991  0.00  0.00    +0.000 A 
ATOM     16  C   UNL     1       4.207   4.309  17.389  0.00  0.00    +0.000 A 
ATOM     17  C   UNL     1       5.438   4.307  18.092  0.00  0.00    +0.000 A 
ATOM     18  C   UNL     1       6.669   4.406  17.384  0.00  0.00    +0.000 A 
BRANCH  13  20
ATOM     19  C   UNL     1       7.726   5.084  13.942  0.00  0.00    +0.000 C 
ATOM     20  O   UNL     1       7.815   4.602  15.280  0.00  0.00    +0.000 OA
ENDBRANCH  13  20
BRANCH  17  21
ATOM     21  O   UNL     1       5.287   4.153  19.455  0.00  0.00    +0.000 OA
ATOM     22  C   UNL     1       5.020   2.867  19.991  0.00  0.00    +0.000 C 
ENDBRANCH  17  21
BRANCH  18  23
ATOM     23  O   UNL     1       7.806   4.475  18.148  0.00  0.00    +0.000 OA
ATOM     24  C   UNL     1       8.068   5.602  18.970  0.00  0.00    +0.000 C 
ENDBRANCH  18  23
ENDBRANCH   1  16
BRANCH   2  25
ATOM     25  O   UNL     1       2.573   1.903  17.528  0.00  0.00    +0.000 OA
ATOM     26  H   UNL     1       2.948   2.076  16.647  0.00  0.00    +0.000 HD
ENDBRANCH   2  25
TORSDOF 6
ENDMDL
MODEL 4
REMARK VINA RESULT:      -7.1      4.518      8.437
REMARK  Name = 
REMARK  9 active torsions:
REMARK  status: ('A' for Active; 'I' for Inactive)
REMARK    1  A    between atoms: C_1  and  O_2
REMARK    2  A    between atoms: O_2  and  C_3
REMARK    3  A    between atoms: C_6  and  C_7
REMARK    4  A    between atoms: C_7  and  C_10
REMARK    5  A    between atoms: C_8  and  O_9
REMARK    6  A    between atoms: C_20  and  O_21
REMARK    7  A    between atoms: O_21  and  C_22
REMARK    8  A    between atoms: C_23  and  O_24
REMARK    9  A    between atoms: O_24  and  C_25
REMARK                            x       y       z     vdW  Elec       q    Type
REMARK                         _______ _______ _______ _____ _____    ______ ____
ROOT
ATOM      1  C   UNL     1       1.429   9.943  18.476  0.00  0.00    +0.000 C 
ATOM      2  C   UNL     1       2.409  10.698  17.933  0.00  0.00    +0.000 C 
ENDROOT
BRANCH   1   3
ATOM      3  C   UNL     1       1.782   8.580  18.990  0.00  0.00    +0.000 A 
ATOM      4  C   UNL     1       1.503   8.248  20.322  0.00  0.00    +0.000 A 
ATOM      5  C   UNL     1       1.698   6.946  20.799  0.00  0.00    +0.000 A 
ATOM      6  C   UNL     1       2.177   5.942  19.953  0.00  0.00    +0.000 A 
ATOM      7  C   UNL     1       2.270   4.610  20.380  0.00  0.00    +0.000 A 
ATOM      8  C   UNL     1       2.745   3.617  19.517  0.00  0.00    +0.000 A 
ATOM      9  C   UNL     1       3.182   3.949  18.242  0.00  0.00    +0.000 A 
ATOM     10  C   UNL     1       3.092   5.274  17.803  0.00  0.00    +0.000 A 
ATOM     11  C   UNL     1       2.551   6.272  18.632  0.00  0.00    +0.000 A 
ATOM     12  C   UNL     1       2.339   7.587  18.166  0.00  0.00    +0.000 A 
ENDBRANCH   1   3
BRANCH   1  16
ATOM     13  C   UNL     1      -2.609  11.449  18.676  0.00  0.00    +0.000 A 
ATOM     14  C   UNL     1      -2.202  10.560  17.672  0.00  0.00    +0.000 A 
ATOM     15  C   UNL     1      -0.902  10.070  17.637  0.00  0.00    +0.000 A 
ATOM     16  C   UNL     1       0.048  10.515  18.563  0.00  0.00    +0.000 A 
ATOM     17  C   UNL     1      -0.326  11.467  19.543  0.00  0.00    +0.000 A 
ATOM     18  C   UNL     1      -1.668  11.937  19.611  0.00  0.00    +0.000 A 
BRANCH  13  20
ATOM     19  C   UNL     1      -4.706  11.686  17.576  0.00  0.00    +0.000 C 
ATOM     20  O   UNL     1      -3.908  11.880  18.741  0.00  0.00    +0.000 OA
ENDBRANCH  13  20
BRANCH  17  21
ATOM     21  O   UNL     1       0.729  11.884  20.329  0.00  0.00    +0.000 OA
ATOM     22  C   UNL     1       1.119  13.248  20.315  0.00  0.00    +0.000 C 
ENDBRANCH  17  21
BRANCH  18  23
ATOM     23  O   UNL     1      -1.960  12.798  20.639  0.00  0.00    +0.000 OA
ATOM     24  C   UNL     1      -2.337  12.311  21.917  0.00  0.00    +0.000 C 
ENDBRANCH  18  23
ENDBRANCH   1  16
BRANCH   2  25
ATOM     25  O   UNL     1       2.302  11.973  17.436  0.00  0.00    +0.000 OA
ATOM     26  H   UNL     1       1.656  11.971  16.709  0.00  0.00    +0.000 HD
ENDBRANCH   2  25
TORSDOF 6
ENDMDL
MODEL 5
REMARK VINA RESULT:      -6.9      2.989      7.202
REMARK  Name = 
REMARK  9 active torsions:
REMARK  status: ('A' for Active; 'I' for Inactive)
REMARK    1  A    between atoms: C_1  and  O_2
REMARK    2  A    between atoms: O_2  and  C_3
REMARK    3  A    between atoms: C_6  and  C_7
REMARK    4  A    between atoms: C_7  and  C_10
REMARK    5  A    between atoms: C_8  and  O_9
REMARK    6  A    between atoms: C_20  and  O_21
REMARK    7  A    between atoms: O_21  and  C_22
REMARK    8  A    between atoms: C_23  and  O_24
REMARK    9  A    between atoms: O_24  and  C_25
REMARK                            x       y       z     vdW  Elec       q    Type
REMARK                         _______ _______ _______ _____ _____    ______ ____
ROOT
ATOM      1  C   UNL     1       4.599   5.684  16.704  0.00  0.00    +0.000 C 
ATOM      2  C   UNL     1       4.583   7.012  16.945  0.00  0.00    +0.000 C 
ENDROOT
BRANCH   1   3
ATOM      3  C   UNL     1       5.298   5.190  15.475  0.00  0.00    +0.000 A 
ATOM      4  C   UNL     1       6.674   5.408  15.324  0.00  0.00    +0.000 A 
ATOM      5  C   UNL     1       7.382   4.848  14.254  0.00  0.00    +0.000 A 
ATOM      6  C   UNL     1       6.731   4.054  13.306  0.00  0.00    +0.000 A 
ATOM      7  C   UNL     1       7.442   3.393  12.295  0.00  0.00    +0.000 A 
ATOM      8  C   UNL     1       6.773   2.595  11.360  0.00  0.00    +0.000 A 
ATOM      9  C   UNL     1       5.389   2.494  11.389  0.00  0.00    +0.000 A 
ATOM     10  C   UNL     1       4.669   3.147  12.394  0.00  0.00    +0.000 A 
ATOM     11  C   UNL     1       5.330   3.894  13.385  0.00  0.00    +0.000 A 
ATOM     12  C   UNL     1       4.634   4.457  14.475  0.00  0.00    +0.000 A 
ENDBRANCH   1   3
BRANCH   1  16
ATOM     13  C   UNL     1       2.597   3.014  19.439  0.00  0.00    +0.000 A 
ATOM     14  C   UNL     1       1.885   3.819  18.540  0.00  0.00    +0.000 A 
ATOM     15  C   UNL     1       2.549   4.657  17.652  0.00  0.00    +0.000 A 
ATOM     16  C   UNL     1       3.943   4.769  17.692  0.00  0.00    +0.000 A 
ATOM     17  C   UNL     1       4.677   4.014  18.642  0.00  0.00    +0.000 A 
ATOM     18  C   UNL     1       4.004   3.120  19.522  0.00  0.00    +0.000 A 
BRANCH  13  20
ATOM     19  C   UNL     1       1.530   2.651  21.536  0.00  0.00    +0.000 C 
ATOM     20  O   UNL     1       1.938   2.144  20.268  0.00  0.00    +0.000 OA
ENDBRANCH  13  20
BRANCH  17  21
ATOM     21  O   UNL     1       6.029   4.290  18.630  0.00  0.00    +0.000 OA
ATOM     22  C   UNL     1       6.540   5.333  19.444  0.00  0.00    +0.000 C 
ENDBRANCH  17  21
BRANCH  18  23
ATOM     23  O   UNL     1       4.799   2.374  20.354  0.00  0.00    +0.000 OA
ATOM     24  C   UNL     1       5.010   0.990  20.119  0.00  0.00    +0.000 C 
ENDBRANCH  18  23
ENDBRANCH   1  16
BRANCH   2  25
ATOM     25  O   UNL     1       4.027   7.660  18.020  0.00  0.00    +0.000 OA
ATOM     26  H   UNL     1       4.713   7.782  18.699  0.00  0.00    +0.000 HD
ENDBRANCH   2  25
TORSDOF 6
ENDMDL
MODEL 6
REMARK VINA RESULT:      -6.9      6.126     10.508
REMARK  Name = 
REMARK  9 active torsions:
REMARK  status: ('A' for Active; 'I' for Inactive)
REMARK    1  A    between atoms: C_1  and  O_2
REMARK    2  A    between atoms: O_2  and  C_3
REMARK    3  A    between atoms: C_6  and  C_7
REMARK    4  A    between atoms: C_7  and  C_10
REMARK    5  A    between atoms: C_8  and  O_9
REMARK    6  A    between atoms: C_20  and  O_21
REMARK    7  A    between atoms: O_21  and  C_22
REMARK    8  A    between atoms: C_23  and  O_24
REMARK    9  A    between atoms: O_24  and  C_25
REMARK                            x       y       z     vdW  Elec       q    Type
REMARK                         _______ _______ _______ _____ _____    ______ ____
ROOT
ATOM      1  C   UNL     1      -0.784  12.171  19.295  0.00  0.00    +0.000 C 
ATOM      2  C   UNL     1      -0.168  13.255  18.778  0.00  0.00    +0.000 C 
ENDROOT
BRANCH   1   3
ATOM      3  C   UNL     1       0.036  10.947  19.569  0.00  0.00    +0.000 A 
ATOM      4  C   UNL     1      -0.042  10.324  20.821  0.00  0.00    +0.000 A 
ATOM      5  C   UNL     1       0.608   9.109  21.066  0.00  0.00    +0.000 A 
ATOM      6  C   UNL     1       1.353   8.484  20.063  0.00  0.00    +0.000 A 
ATOM      7  C   UNL     1       1.914   7.214  20.253  0.00  0.00    +0.000 A 
ATOM      8  C   UNL     1       2.651   6.601  19.234  0.00  0.00    +0.000 A 
ATOM      9  C   UNL     1       2.882   7.269  18.039  0.00  0.00    +0.000 A 
ATOM     10  C   UNL     1       2.325   8.535  17.836  0.00  0.00    +0.000 A 
ATOM     11  C   UNL     1       1.522   9.136  18.821  0.00  0.00    +0.000 A 
ATOM     12  C   UNL     1       0.852  10.355  18.588  0.00  0.00    +0.000 A 
ENDBRANCH   1   3
BRANCH   1  16
ATOM     13  C   UNL     1      -4.975  12.547  20.250  0.00  0.00    +0.000 A 
ATOM     14  C   UNL     1      -3.975  12.901  21.166  0.00  0.00    +0.000 A 
ATOM     15  C   UNL     1      -2.630  12.792  20.832  0.00  0.00    +0.000 A 
ATOM     16  C   UNL     1      -2.249  12.255  19.598  0.00  0.00    +0.000 A 
ATOM     17  C   UNL     1      -3.245  11.827  18.685  0.00  0.00    +0.000 A 
ATOM     18  C   UNL     1      -4.624  11.979  19.004  0.00  0.00    +0.000 A 
BRANCH  13  20
ATOM     19  C   UNL     1      -6.677  12.448  21.911  0.00  0.00    +0.000 C 
ATOM     20  O   UNL     1      -6.299  12.716  20.563  0.00  0.00    +0.000 OA
ENDBRANCH  13  20
BRANCH  17  21
ATOM     21  O   UNL     1      -2.728  11.236  17.550  0.00  0.00    +0.000 OA
ATOM     22  C   UNL     1      -2.777   9.826  17.408  0.00  0.00    +0.000 C 
ENDBRANCH  17  21
BRANCH  18  23
ATOM     23  O   UNL     1      -5.518  11.610  18.032  0.00  0.00    +0.000 OA
ATOM     24  C   UNL     1      -6.007  12.553  17.091  0.00  0.00    +0.000 C 
ENDBRANCH  18  23
ENDBRANCH   1  16
BRANCH   2  25
ATOM     25  O   UNL     1      -0.728  14.474  18.485  0.00  0.00    +0.000 OA
ATOM     26  H   UNL     1      -0.789  14.994  19.304  0.00  0.00    +0.000 HD
ENDBRANCH   2  25
TORSDOF 6
ENDMDL
MODEL 7
REMARK VINA RESULT:      -6.8      1.161      2.106
REMARK  Name = 
REMARK  9 active torsions:
REMARK  status: ('A' for Active; 'I' for Inactive)
REMARK    1  A    between atoms: C_1  and  O_2
REMARK    2  A    between atoms: O_2  and  C_3
REMARK    3  A    between atoms: C_6  and  C_7
REMARK    4  A    between atoms: C_7  and  C_10
REMARK    5  A    between atoms: C_8  and  O_9
REMARK    6  A    between atoms: C_20  and  O_21
REMARK    7  A    between atoms: O_21  and  C_22
REMARK    8  A    between atoms: C_23  and  O_24
REMARK    9  A    between atoms: O_24  and  C_25
REMARK                            x       y       z     vdW  Elec       q    Type
REMARK                         _______ _______ _______ _____ _____    ______ ____
ROOT
ATOM      1  C   UNL     1       4.439   5.157  18.306  0.00  0.00    +0.000 C 
ATOM      2  C   UNL     1       4.677   4.361  19.370  0.00  0.00    +0.000 C 
ENDROOT
BRANCH   1   3
ATOM      3  C   UNL     1       3.613   6.391  18.509  0.00  0.00    +0.000 A 
ATOM      4  C   UNL     1       3.516   7.338  17.482  0.00  0.00    +0.000 A 
ATOM      5  C   UNL     1       2.651   8.434  17.588  0.00  0.00    +0.000 A 
ATOM      6  C   UNL     1       1.859   8.609  18.726  0.00  0.00    +0.000 A 
ATOM      7  C   UNL     1       0.906   9.634  18.801  0.00  0.00    +0.000 A 
ATOM      8  C   UNL     1       0.117   9.790  19.947  0.00  0.00    +0.000 A 
ATOM      9  C   UNL     1       0.309   8.963  21.046  0.00  0.00    +0.000 A 
ATOM     10  C   UNL     1       1.254   7.935  20.981  0.00  0.00    +0.000 A 
ATOM     11  C   UNL     1       2.006   7.720  19.813  0.00  0.00    +0.000 A 
ATOM     12  C   UNL     1       2.875   6.616  19.685  0.00  0.00    +0.000 A 
ENDBRANCH   1   3
BRANCH   1  16
ATOM     13  C   UNL     1       6.012   4.063  14.441  0.00  0.00    +0.000 A 
ATOM     14  C   UNL     1       4.871   3.448  14.974  0.00  0.00    +0.000 A 
ATOM     15  C   UNL     1       4.368   3.829  16.212  0.00  0.00    +0.000 A 
ATOM     16  C   UNL     1       5.037   4.785  16.984  0.00  0.00    +0.000 A 
ATOM     17  C   UNL     1       6.231   5.368  16.492  0.00  0.00    +0.000 A 
ATOM     18  C   UNL     1       6.725   5.014  15.205  0.00  0.00    +0.000 A 
BRANCH  13  20
ATOM     19  C   UNL     1       5.488   3.294  12.250  0.00  0.00    +0.000 C 
ATOM     20  O   UNL     1       6.466   3.725  13.192  0.00  0.00    +0.000 OA
ENDBRANCH  13  20
BRANCH  17  21
ATOM     21  O   UNL     1       6.832   6.223  17.393  0.00  0.00    +0.000 OA
ATOM     22  C   UNL     1       7.798   5.720  18.303  0.00  0.00    +0.000 C 
ENDBRANCH  17  21
BRANCH  18  23
ATOM     23  O   UNL     1       7.843   5.684  14.777  0.00  0.00    +0.000 OA
ATOM     24  C   UNL     1       8.215   5.687  13.407  0.00  0.00    +0.000 C 
ENDBRANCH  18  23
ENDBRANCH   1  16
BRANCH   2  25
ATOM     25  O   UNL     1       5.427   3.212  19.403  0.00  0.00    +0.000 OA
ATOM     26  H   UNL     1       5.878   3.158  20.263  0.00  0.00    +0.000 HD
ENDBRANCH   2  25
TORSDOF 6
ENDMDL
MODEL 8
REMARK VINA RESULT:      -6.8      6.040     10.102
REMARK  Name = 
REMARK  9 active torsions:
REMARK  status: ('A' for Active; 'I' for Inactive)
REMARK    1  A    between atoms: C_1  and  O_2
REMARK    2  A    between atoms: O_2  and  C_3
REMARK    3  A    between atoms: C_6  and  C_7
REMARK    4  A    between atoms: C_7  and  C_10
REMARK    5  A    between atoms: C_8  and  O_9
REMARK    6  A    between atoms: C_20  and  O_21
REMARK    7  A    between atoms: O_21  and  C_22
REMARK    8  A    between atoms: C_23  and  O_24
REMARK    9  A    between atoms: O_24  and  C_25
REMARK                            x       y       z     vdW  Elec       q    Type
REMARK                         _______ _______ _______ _____ _____    ______ ____
ROOT
ATOM      1  C   UNL     1      -0.591  11.850  18.876  0.00  0.00    +0.000 C 
ATOM      2  C   UNL     1       0.042  13.029  18.690  0.00  0.00    +0.000 C 
ENDROOT
BRANCH   1   3
ATOM      3  C   UNL     1       0.229  10.652  19.246  0.00  0.00    +0.000 A 
ATOM      4  C   UNL     1       0.108  10.096  20.526  0.00  0.00    +0.000 A 
ATOM      5  C   UNL     1       0.758   8.903  20.861  0.00  0.00    +0.000 A 
ATOM      6  C   UNL     1       1.547   8.233  19.922  0.00  0.00    +0.000 A 
ATOM      7  C   UNL     1       2.111   6.981  20.202  0.00  0.00    +0.000 A 
ATOM      8  C   UNL     1       2.891   6.321  19.246  0.00  0.00    +0.000 A 
ATOM      9  C   UNL     1       3.161   6.926  18.026  0.00  0.00    +0.000 A 
ATOM     10  C   UNL     1       2.602   8.173  17.733  0.00  0.00    +0.000 A 
ATOM     11  C   UNL     1       1.758   8.818  18.654  0.00  0.00    +0.000 A 
ATOM     12  C   UNL     1       1.087  10.016  18.331  0.00  0.00    +0.000 A 
ENDBRANCH   1   3
BRANCH   1  16
ATOM     13  C   UNL     1      -4.870  11.579  18.395  0.00  0.00    +0.000 A 
ATOM     14  C   UNL     1      -3.986  11.073  17.432  0.00  0.00    +0.000 A 
ATOM     15  C   UNL     1      -2.610  11.152  17.616  0.00  0.00    +0.000 A 
ATOM     16  C   UNL     1      -2.081  11.806  18.733  0.00  0.00    +0.000 A 
ATOM     17  C   UNL     1      -2.959  12.385  19.683  0.00  0.00    +0.000 A 
ATOM     18  C   UNL     1      -4.369  12.267  19.523  0.00  0.00    +0.000 A 
BRANCH  13  20
ATOM     19  C   UNL     1      -6.818  10.269  18.786  0.00  0.00    +0.000 C 
ATOM     20  O   UNL     1      -6.224  11.442  18.237  0.00  0.00    +0.000 OA
ENDBRANCH  13  20
BRANCH  17  21
ATOM     21  O   UNL     1      -2.303  13.075  20.682  0.00  0.00    +0.000 OA
ATOM     22  C   UNL     1      -2.250  12.533  21.992  0.00  0.00    +0.000 C 
ENDBRANCH  17  21
BRANCH  18  23
ATOM     23  O   UNL     1      -5.141  12.789  20.529  0.00  0.00    +0.000 OA
ATOM     24  C   UNL     1      -5.653  14.110  20.448  0.00  0.00    +0.000 C 
ENDBRANCH  18  23
ENDBRANCH   1  16
BRANCH   2  25
ATOM     25  O   UNL     1      -0.523  14.240  18.379  0.00  0.00    +0.000 OA
ATOM     26  H   UNL     1       0.129  14.772  17.889  0.00  0.00    +0.000 HD
ENDBRANCH   2  25
TORSDOF 6
ENDMDL
MODEL 9
REMARK VINA RESULT:      -6.8      1.966      7.033
REMARK  Name = 
REMARK  9 active torsions:
REMARK  status: ('A' for Active; 'I' for Inactive)
REMARK    1  A    between atoms: C_1  and  O_2
REMARK    2  A    between atoms: O_2  and  C_3
REMARK    3  A    between atoms: C_6  and  C_7
REMARK    4  A    between atoms: C_7  and  C_10
REMARK    5  A    between atoms: C_8  and  O_9
REMARK    6  A    between atoms: C_20  and  O_21
REMARK    7  A    between atoms: O_21  and  C_22
REMARK    8  A    between atoms: C_23  and  O_24
REMARK    9  A    between atoms: O_24  and  C_25
REMARK                            x       y       z     vdW  Elec       q    Type
REMARK                         _______ _______ _______ _____ _____    ______ ____
ROOT
ATOM      1  C   UNL     1       6.087   5.061  18.088  0.00  0.00    +0.000 C 
ATOM      2  C   UNL     1       7.246   5.155  18.776  0.00  0.00    +0.000 C 
ENDROOT
BRANCH   1   3
ATOM      3  C   UNL     1       6.138   4.594  16.665  0.00  0.00    +0.000 A 
ATOM      4  C   UNL     1       5.224   3.632  16.217  0.00  0.00    +0.000 A 
ATOM      5  C   UNL     1       5.158   3.271  14.866  0.00  0.00    +0.000 A 
ATOM      6  C   UNL     1       6.005   3.865  13.927  0.00  0.00    +0.000 A 
ATOM      7  C   UNL     1       5.876   3.601  12.557  0.00  0.00    +0.000 A 
ATOM      8  C   UNL     1       6.729   4.212  11.631  0.00  0.00    +0.000 A 
ATOM      9  C   UNL     1       7.750   5.046  12.065  0.00  0.00    +0.000 A 
ATOM     10  C   UNL     1       7.887   5.320  13.429  0.00  0.00    +0.000 A 
ATOM     11  C   UNL     1       6.996   4.771  14.367  0.00  0.00    +0.000 A 
ATOM     12  C   UNL     1       7.041   5.131  15.730  0.00  0.00    +0.000 A 
ENDBRANCH   1   3
BRANCH   1  16
ATOM     13  C   UNL     1       2.354   6.113  19.979  0.00  0.00    +0.000 A 
ATOM     14  C   UNL     1       3.015   6.992  19.110  0.00  0.00    +0.000 A 
ATOM     15  C   UNL     1       4.206   6.626  18.494  0.00  0.00    +0.000 A 
ATOM     16  C   UNL     1       4.808   5.399  18.790  0.00  0.00    +0.000 A 
ATOM     17  C   UNL     1       4.191   4.525  19.720  0.00  0.00    +0.000 A 
ATOM     18  C   UNL     1       2.947   4.876  20.318  0.00  0.00    +0.000 A 
BRANCH  13  20
ATOM     19  C   UNL     1       1.011   7.801  20.984  0.00  0.00    +0.000 C 
ATOM     20  O   UNL     1       1.149   6.456  20.533  0.00  0.00    +0.000 OA
ENDBRANCH  13  20
BRANCH  17  21
ATOM     21  O   UNL     1       4.937   3.395  19.985  0.00  0.00    +0.000 OA
ATOM     22  C   UNL     1       4.443   2.121  19.603  0.00  0.00    +0.000 C 
ENDBRANCH  17  21
BRANCH  18  23
ATOM     23  O   UNL     1       2.384   3.938  21.146  0.00  0.00    +0.000 OA
ATOM     24  C   UNL     1       1.199   3.251  20.775  0.00  0.00    +0.000 C 
ENDBRANCH  18  23
ENDBRANCH   1  16
BRANCH   2  25
ATOM     25  O   UNL     1       7.412   5.529  20.085  0.00  0.00    +0.000 OA
ATOM     26  H   UNL     1       7.706   6.456  20.110  0.00  0.00    +0.000 HD
ENDBRANCH   2  25
TORSDOF 6
ENDMDL
