MODEL 1
REMARK VINA RESULT:      -7.9      0.000      0.000
REMARK  Name = 
REMARK  2 active torsions:
REMARK  status: ('A' for Active; 'I' for Inactive)
REMARK    1  A    between atoms: C_8  and  C_9
REMARK    2  A    between atoms: N_14  and  C_15
REMARK                            x       y       z     vdW  Elec       q    Type
REMARK                         _______ _______ _______ _____ _____    ______ ____
ROOT
ATOM      1  C   UNL     1       1.974   7.135  19.823  0.00  0.00    +0.000 A 
ATOM      2  C   UNL     1       1.808   6.051  20.652  0.00  0.00    +0.000 A 
ATOM      3  C   UNL     1       2.422   4.904  20.242  0.00  0.00    +0.000 A 
ATOM      4  N   UNL     1       3.170   4.827  19.123  0.00  0.00    +0.000 NA
ATOM      5  C   UNL     1       3.246   5.926  18.356  0.00  0.00    +0.000 A 
ATOM      6  N   UNL     1       4.006   5.890  17.198  0.00  0.00    +0.000 N 
ATOM      7  N   UNL     1       2.652   7.078  18.652  0.00  0.00    +0.000 NA
ATOM      8  H   UNL     1       3.578   6.348  16.408  0.00  0.00    +0.000 HD
ENDROOT
BRANCH   1  16
ATOM      9  O   UNL     1      -0.461  10.660  23.473  0.00  0.00    +0.000 OA
ATOM     10  C   UNL     1      -0.282  10.947  22.295  0.00  0.00    +0.000 C 
ATOM     11  N   UNL     1      -0.718  12.152  21.790  0.00  0.00    +0.000 N 
ATOM     12  C   UNL     1      -0.841  12.377  20.359  0.00  0.00    +0.000 C 
ATOM     13  C   UNL     1       0.364  11.844  19.584  0.00  0.00    +0.000 C 
ATOM     14  N   UNL     1       0.678  10.503  20.048  0.00  0.00    +0.000 N 
ATOM     15  C   UNL     1       1.280   9.500  19.349  0.00  0.00    +0.000 A 
ATOM     16  C   UNL     1       1.386   8.411  20.194  0.00  0.00    +0.000 A 
ATOM     17  C   UNL     1       0.839   8.806  21.451  0.00  0.00    +0.000 A 
ATOM     18  C   UNL     1       0.382  10.102  21.331  0.00  0.00    +0.000 A 
ATOM     19  H   UNL     1      -1.280  12.685  22.442  0.00  0.00    +0.000 HD
ENDBRANCH   1  16
BRANCH   6  20
ATOM     20  C   UNL     1       5.133   4.983  17.064  0.00  0.00    +0.000 C 
ATOM     21  C   UNL     1       6.332   5.498  17.885  0.00  0.00    +0.000 C 
ATOM     22  C   UNL     1       7.587   4.677  17.610  0.00  0.00    +0.000 C 
ATOM     23  O   UNL     1       7.852   4.608  16.212  0.00  0.00    +0.000 OA
ATOM     24  C   UNL     1       6.808   3.944  15.502  0.00  0.00    +0.000 C 
ATOM     25  C   UNL     1       5.506   4.721  15.604  0.00  0.00    +0.000 C 
ENDBRANCH   6  20
TORSDOF 2
ENDMDL
MODEL 2
REMARK VINA RESULT:      -7.7      2.514      8.563
REMARK  Name = 
REMARK  2 active torsions:
REMARK  status: ('A' for Active; 'I' for Inactive)
REMARK    1  A    between atoms: C_8  and  C_9
REMARK    2  A    between atoms: N_14  and  C_15
REMARK                            x       y       z     vdW  Elec       q    Type
REMARK                         _______ _______ _______ _____ _____    ______ ____
ROOT
ATOM      1  C   UNL     1       2.704   7.436  18.650  0.00  0.00    +0.000 A 
ATOM      2  C   UNL     1       2.476   7.201  19.985  0.00  0.00    +0.000 A 
ATOM      3  C   UNL     1       1.487   7.952  20.550  0.00  0.00    +0.000 A 
ATOM      4  N   UNL     1       0.751   8.844  19.856  0.00  0.00    +0.000 NA
ATOM      5  C   UNL     1       1.069   9.034  18.566  0.00  0.00    +0.000 A 
ATOM      6  N   UNL     1       0.337   9.940  17.817  0.00  0.00    +0.000 N 
ATOM      7  N   UNL     1       2.040   8.377  17.938  0.00  0.00    +0.000 NA
ATOM      8  H   UNL     1       0.894  10.516  17.204  0.00  0.00    +0.000 HD
ENDROOT
BRANCH   1  16
ATOM      9  O   UNL     1       7.793   6.752  16.346  0.00  0.00    +0.000 OA
ATOM     10  C   UNL     1       6.922   5.891  16.295  0.00  0.00    +0.000 C 
ATOM     11  N   UNL     1       7.138   4.712  15.618  0.00  0.00    +0.000 N 
ATOM     12  C   UNL     1       6.039   3.838  15.240  0.00  0.00    +0.000 C 
ATOM     13  C   UNL     1       5.026   3.662  16.371  0.00  0.00    +0.000 C 
ATOM     14  N   UNL     1       4.712   4.962  16.941  0.00  0.00    +0.000 N 
ATOM     15  C   UNL     1       3.560   5.343  17.562  0.00  0.00    +0.000 A 
ATOM     16  C   UNL     1       3.715   6.659  17.953  0.00  0.00    +0.000 A 
ATOM     17  C   UNL     1       5.027   7.058  17.560  0.00  0.00    +0.000 A 
ATOM     18  C   UNL     1       5.621   5.995  16.911  0.00  0.00    +0.000 A 
ATOM     19  H   UNL     1       8.006   4.697  15.096  0.00  0.00    +0.000 HD
ENDBRANCH   1  16
BRANCH   6  20
ATOM     20  C   UNL     1      -1.043  10.254  18.150  0.00  0.00    +0.000 C 
ATOM     21  C   UNL     1      -1.972   9.880  16.978  0.00  0.00    +0.000 C 
ATOM     22  C   UNL     1      -3.394  10.374  17.217  0.00  0.00    +0.000 C 
ATOM     23  O   UNL     1      -3.403  11.766  17.519  0.00  0.00    +0.000 OA
ATOM     24  C   UNL     1      -2.699  12.057  18.724  0.00  0.00    +0.000 C 
ATOM     25  C   UNL     1      -1.226  11.707  18.587  0.00  0.00    +0.000 C 
ENDBRANCH   6  20
TORSDOF 2
ENDMDL
MODEL 3
REMARK VINA RESULT:      -7.6      1.764      8.429
REMARK  Name = 
REMARK  2 active torsions:
REMARK  status: ('A' for Active; 'I' for Inactive)
REMARK    1  A    between atoms: C_8  and  C_9
REMARK    2  A    between atoms: N_14  and  C_15
REMARK                            x       y       z     vdW  Elec       q    Type
REMARK                         _______ _______ _______ _____ _____    ______ ____
ROOT
ATOM      1  C   UNL     1       3.014   5.596  19.065  0.00  0.00    +0.000 A 
ATOM      2  C   UNL     1       2.171   4.576  19.436  0.00  0.00    +0.000 A 
ATOM      3  C   UNL     1       1.212   4.913  20.345  0.00  0.00    +0.000 A 
ATOM      4  N   UNL     1       1.064   6.162  20.833  0.00  0.00    +0.000 NA
ATOM      5  C   UNL     1       1.956   7.085  20.441  0.00  0.00    +0.000 A 
ATOM      6  N   UNL     1       1.839   8.381  20.918  0.00  0.00    +0.000 N 
ATOM      7  N   UNL     1       2.948   6.843  19.589  0.00  0.00    +0.000 NA
ATOM      8  H   UNL     1       2.716   8.808  21.174  0.00  0.00    +0.000 HD
ENDROOT
BRANCH   1  16
ATOM      9  O   UNL     1       7.814   6.833  16.397  0.00  0.00    +0.000 OA
ATOM     10  C   UNL     1       7.103   5.886  16.077  0.00  0.00    +0.000 C 
ATOM     11  N   UNL     1       7.431   5.093  15.000  0.00  0.00    +0.000 N 
ATOM     12  C   UNL     1       6.458   4.204  14.386  0.00  0.00    +0.000 C 
ATOM     13  C   UNL     1       5.642   3.435  15.425  0.00  0.00    +0.000 C 
ATOM     14  N   UNL     1       5.185   4.355  16.452  0.00  0.00    +0.000 N 
ATOM     15  C   UNL     1       4.072   4.247  17.232  0.00  0.00    +0.000 A 
ATOM     16  C   UNL     1       4.047   5.342  18.075  0.00  0.00    +0.000 A 
ATOM     17  C   UNL     1       5.212   6.114  17.787  0.00  0.00    +0.000 A 
ATOM     18  C   UNL     1       5.892   5.496  16.758  0.00  0.00    +0.000 A 
ATOM     19  H   UNL     1       8.215   5.442  14.463  0.00  0.00    +0.000 HD
ENDBRANCH   1  16
BRANCH   6  20
ATOM     20  C   UNL     1       0.553   8.921  21.327  0.00  0.00    +0.000 C 
ATOM     21  C   UNL     1       0.155  10.098  20.414  0.00  0.00    +0.000 C 
ATOM     22  C   UNL     1      -1.089  10.808  20.935  0.00  0.00    +0.000 C 
ATOM     23  O   UNL     1      -0.924  11.186  22.299  0.00  0.00    +0.000 OA
ATOM     24  C   UNL     1      -0.756  10.054  23.150  0.00  0.00    +0.000 C 
ATOM     25  C   UNL     1       0.521   9.304  22.806  0.00  0.00    +0.000 C 
ENDBRANCH   6  20
TORSDOF 2
ENDMDL
MODEL 4
REMARK VINA RESULT:      -7.4      2.132      8.649
REMARK  Name = 
REMARK  2 active torsions:
REMARK  status: ('A' for Active; 'I' for Inactive)
REMARK    1  A    between atoms: C_8  and  C_9
REMARK    2  A    between atoms: N_14  and  C_15
REMARK                            x       y       z     vdW  Elec       q    Type
REMARK                         _______ _______ _______ _____ _____    ______ ____
ROOT
ATOM      1  C   UNL     1       2.097   7.894  19.067  0.00  0.00    +0.000 A 
ATOM      2  C   UNL     1       2.431   8.652  17.970  0.00  0.00    +0.000 A 
ATOM      3  C   UNL     1       1.798   9.857  17.878  0.00  0.00    +0.000 A 
ATOM      4  N   UNL     1       0.927  10.306  18.805  0.00  0.00    +0.000 NA
ATOM      5  C   UNL     1       0.633   9.481  19.824  0.00  0.00    +0.000 A 
ATOM      6  N   UNL     1      -0.255   9.904  20.798  0.00  0.00    +0.000 N 
ATOM      7  N   UNL     1       1.170   8.275  19.978  0.00  0.00    +0.000 NA
ATOM      8  H   UNL     1      -0.911   9.197  21.095  0.00  0.00    +0.000 HD
ENDROOT
BRANCH   1  16
ATOM      9  O   UNL     1       6.427   4.333  18.575  0.00  0.00    +0.000 OA
ATOM     10  C   UNL     1       5.351   4.004  19.062  0.00  0.00    +0.000 C 
ATOM     11  N   UNL     1       5.134   2.709  19.478  0.00  0.00    +0.000 N 
ATOM     12  C   UNL     1       3.793   2.204  19.725  0.00  0.00    +0.000 C 
ATOM     13  C   UNL     1       2.936   3.199  20.507  0.00  0.00    +0.000 C 
ATOM     14  N   UNL     1       3.079   4.521  19.920  0.00  0.00    +0.000 N 
ATOM     15  C   UNL     1       2.176   5.541  19.936  0.00  0.00    +0.000 A 
ATOM     16  C   UNL     1       2.745   6.610  19.269  0.00  0.00    +0.000 A 
ATOM     17  C   UNL     1       4.050   6.199  18.864  0.00  0.00    +0.000 A 
ATOM     18  C   UNL     1       4.228   4.889  19.257  0.00  0.00    +0.000 A 
ATOM     19  H   UNL     1       5.883   2.074  19.232  0.00  0.00    +0.000 HD
ENDBRANCH   1  16
BRANCH   6  20
ATOM     20  C   UNL     1      -0.436  11.316  21.094  0.00  0.00    +0.000 C 
ATOM     21  C   UNL     1      -0.733  11.512  22.594  0.00  0.00    +0.000 C 
ATOM     22  C   UNL     1      -1.118  12.954  22.900  0.00  0.00    +0.000 C 
ATOM     23  O   UNL     1      -2.182  13.385  22.056  0.00  0.00    +0.000 OA
ATOM     24  C   UNL     1      -1.808  13.382  20.680  0.00  0.00    +0.000 C 
ATOM     25  C   UNL     1      -1.495  11.971  20.208  0.00  0.00    +0.000 C 
ENDBRANCH   6  20
TORSDOF 2
ENDMDL
MODEL 5
REMARK VINA RESULT:      -7.3      2.511      3.620
REMARK  Name = 
REMARK  2 active torsions:
REMARK  status: ('A' for Active; 'I' for Inactive)
REMARK    1  A    between atoms: C_8  and  C_9
REMARK    2  A    between atoms: N_14  and  C_15
REMARK                            x       y       z     vdW  Elec       q    Type
REMARK                         _______ _______ _______ _____ _____    ______ ____
ROOT
ATOM      1  C   UNL     1       0.982   9.500  19.430  0.00  0.00    +0.000 A 
ATOM      2  C   UNL     1       1.399   9.648  18.128  0.00  0.00    +0.000 A 
ATOM      3  C   UNL     1       2.207   8.655  17.658  0.00  0.00    +0.000 A 
ATOM      4  N   UNL     1       2.557   7.578  18.391  0.00  0.00    +0.000 NA
ATOM      5  C   UNL     1       2.133   7.537  19.665  0.00  0.00    +0.000 A 
ATOM      6  N   UNL     1       2.470   6.449  20.452  0.00  0.00    +0.000 N 
ATOM      7  N   UNL     1       1.374   8.475  20.223  0.00  0.00    +0.000 NA
ATOM      8  H   UNL     1       2.737   6.687  21.395  0.00  0.00    +0.000 HD
ENDROOT
BRANCH   1  16
ATOM      9  O   UNL     1      -0.470  13.236  23.381  0.00  0.00    +0.000 OA
ATOM     10  C   UNL     1      -1.201  12.951  22.439  0.00  0.00    +0.000 C 
ATOM     11  N   UNL     1      -2.455  13.509  22.327  0.00  0.00    +0.000 N 
ATOM     12  C   UNL     1      -3.463  12.945  21.445  0.00  0.00    +0.000 C 
ATOM     13  C   UNL     1      -2.891  12.567  20.079  0.00  0.00    +0.000 C 
ATOM     14  N   UNL     1      -1.648  11.836  20.266  0.00  0.00    +0.000 N 
ATOM     15  C   UNL     1      -1.096  10.907  19.435  0.00  0.00    +0.000 A 
ATOM     16  C   UNL     1       0.090  10.491  20.009  0.00  0.00    +0.000 A 
ATOM     17  C   UNL     1       0.247  11.227  21.220  0.00  0.00    +0.000 A 
ATOM     18  C   UNL     1      -0.857  12.040  21.373  0.00  0.00    +0.000 A 
ATOM     19  H   UNL     1      -2.729  14.055  23.135  0.00  0.00    +0.000 HD
ENDBRANCH   1  16
BRANCH   6  20
ATOM     20  C   UNL     1       2.740   5.147  19.865  0.00  0.00    +0.000 C 
ATOM     21  C   UNL     1       2.064   4.037  20.694  0.00  0.00    +0.000 C 
ATOM     22  C   UNL     1       2.488   2.652  20.219  0.00  0.00    +0.000 C 
ATOM     23  O   UNL     1       3.908   2.541  20.183  0.00  0.00    +0.000 OA
ATOM     24  C   UNL     1       4.492   3.450  19.253  0.00  0.00    +0.000 C 
ATOM     25  C   UNL     1       4.234   4.889  19.669  0.00  0.00    +0.000 C 
ENDBRANCH   6  20
TORSDOF 2
ENDMDL
MODEL 6
REMARK VINA RESULT:      -7.3      2.769      3.550
REMARK  Name = 
REMARK  2 active torsions:
REMARK  status: ('A' for Active; 'I' for Inactive)
REMARK    1  A    between atoms: C_8  and  C_9
REMARK    2  A    between atoms: N_14  and  C_15
REMARK                            x       y       z     vdW  Elec       q    Type
REMARK                         _______ _______ _______ _____ _____    ______ ____
ROOT
ATOM      1  C   UNL     1       1.499   8.724  19.446  0.00  0.00    +0.000 A 
ATOM      2  C   UNL     1       1.959   9.089  18.203  0.00  0.00    +0.000 A 
ATOM      3  C   UNL     1       2.793   8.191  17.603  0.00  0.00    +0.000 A 
ATOM      4  N   UNL     1       3.128   7.009  18.159  0.00  0.00    +0.000 NA
ATOM      5  C   UNL     1       2.660   6.754  19.392  0.00  0.00    +0.000 A 
ATOM      6  N   UNL     1       2.980   5.551  19.998  0.00  0.00    +0.000 N 
ATOM      7  N   UNL     1       1.874   7.583  20.072  0.00  0.00    +0.000 NA
ATOM      8  H   UNL     1       3.212   5.630  20.977  0.00  0.00    +0.000 HD
ENDROOT
BRANCH   1  16
ATOM      9  O   UNL     1      -2.352  12.824  19.649  0.00  0.00    +0.000 OA
ATOM     10  C   UNL     1      -1.902  12.287  20.656  0.00  0.00    +0.000 C 
ATOM     11  N   UNL     1      -2.295  12.702  21.909  0.00  0.00    +0.000 N 
ATOM     12  C   UNL     1      -1.541  12.344  23.100  0.00  0.00    +0.000 C 
ATOM     13  C   UNL     1      -1.122  10.874  23.098  0.00  0.00    +0.000 C 
ATOM     14  N   UNL     1      -0.564  10.535  21.799  0.00  0.00    +0.000 N 
ATOM     15  C   UNL     1       0.357   9.573  21.514  0.00  0.00    +0.000 A 
ATOM     16  C   UNL     1       0.578   9.601  20.150  0.00  0.00    +0.000 A 
ATOM     17  C   UNL     1      -0.270  10.614  19.612  0.00  0.00    +0.000 A 
ATOM     18  C   UNL     1      -0.954  11.199  20.658  0.00  0.00    +0.000 A 
ATOM     19  H   UNL     1      -2.869  13.536  21.899  0.00  0.00    +0.000 HD
ENDBRANCH   1  16
BRANCH   6  20
ATOM     20  C   UNL     1       3.283   4.366  19.213  0.00  0.00    +0.000 C 
ATOM     21  C   UNL     1       2.014   3.864  18.494  0.00  0.00    +0.000 C 
ATOM     22  C   UNL     1       2.253   2.518  17.821  0.00  0.00    +0.000 C 
ATOM     23  O   UNL     1       2.784   1.575  18.748  0.00  0.00    +0.000 OA
ATOM     24  C   UNL     1       4.059   1.974  19.247  0.00  0.00    +0.000 C 
ATOM     25  C   UNL     1       3.947   3.266  20.040  0.00  0.00    +0.000 C 
ENDBRANCH   6  20
TORSDOF 2
ENDMDL
MODEL 7
REMARK VINA RESULT:      -7.3      1.213      1.658
REMARK  Name = 
REMARK  2 active torsions:
REMARK  status: ('A' for Active; 'I' for Inactive)
REMARK    1  A    between atoms: C_8  and  C_9
REMARK    2  A    between atoms: N_14  and  C_15
REMARK                            x       y       z     vdW  Elec       q    Type
REMARK                         _______ _______ _______ _____ _____    ______ ____
ROOT
ATOM      1  C   UNL     1       1.827   7.168  19.961  0.00  0.00    +0.000 A 
ATOM      2  C   UNL     1       1.745   6.122  20.849  0.00  0.00    +0.000 A 
ATOM      3  C   UNL     1       2.412   4.990  20.481  0.00  0.00    +0.000 A 
ATOM      4  N   UNL     1       3.133   4.895  19.346  0.00  0.00    +0.000 NA
ATOM      5  C   UNL     1       3.125   5.954  18.521  0.00  0.00    +0.000 A 
ATOM      6  N   UNL     1       3.855   5.898  17.345  0.00  0.00    +0.000 N 
ATOM      7  N   UNL     1       2.475   7.086  18.775  0.00  0.00    +0.000 NA
ATOM      8  H   UNL     1       3.380   6.289  16.545  0.00  0.00    +0.000 HD
ENDROOT
BRANCH   1  16
ATOM      9  O   UNL     1       0.150  12.399  18.735  0.00  0.00    +0.000 OA
ATOM     10  C   UNL     1      -0.003  11.897  19.843  0.00  0.00    +0.000 C 
ATOM     11  N   UNL     1      -0.563  12.621  20.872  0.00  0.00    +0.000 N 
ATOM     12  C   UNL     1      -0.440  12.196  22.257  0.00  0.00    +0.000 C 
ATOM     13  C   UNL     1      -0.684  10.696  22.425  0.00  0.00    +0.000 C 
ATOM     14  N   UNL     1       0.063   9.972  21.411  0.00  0.00    +0.000 N 
ATOM     15  C   UNL     1       0.547   8.700  21.482  0.00  0.00    +0.000 A 
ATOM     16  C   UNL     1       1.177   8.427  20.283  0.00  0.00    +0.000 A 
ATOM     17  C   UNL     1       1.036   9.588  19.466  0.00  0.00    +0.000 A 
ATOM     18  C   UNL     1       0.362  10.545  20.195  0.00  0.00    +0.000 A 
ATOM     19  H   UNL     1      -0.709  13.598  20.648  0.00  0.00    +0.000 HD
ENDBRANCH   1  16
BRANCH   6  20
ATOM     20  C   UNL     1       5.028   5.050  17.224  0.00  0.00    +0.000 C 
ATOM     21  C   UNL     1       6.220   5.678  17.974  0.00  0.00    +0.000 C 
ATOM     22  C   UNL     1       7.511   4.914  17.704  0.00  0.00    +0.000 C 
ATOM     23  O   UNL     1       7.737   4.777  16.303  0.00  0.00    +0.000 OA
ATOM     24  C   UNL     1       6.712   4.016  15.668  0.00  0.00    +0.000 C 
ATOM     25  C   UNL     1       5.371   4.725  15.770  0.00  0.00    +0.000 C 
ENDBRANCH   6  20
TORSDOF 2
ENDMDL
MODEL 8
REMARK VINA RESULT:      -7.3      1.978      8.389
REMARK  Name = 
REMARK  2 active torsions:
REMARK  status: ('A' for Active; 'I' for Inactive)
REMARK    1  A    between atoms: C_8  and  C_9
REMARK    2  A    between atoms: N_14  and  C_15
REMARK                            x       y       z     vdW  Elec       q    Type
REMARK                         _______ _______ _______ _____ _____    ______ ____
ROOT
ATOM      1  C   UNL     1       2.926   6.579  19.299  0.00  0.00    +0.000 A 
ATOM      2  C   UNL     1       2.333   5.880  20.324  0.00  0.00    +0.000 A 
ATOM      3  C   UNL     1       1.329   6.536  20.973  0.00  0.00    +0.000 A 
ATOM      4  N   UNL     1       0.910   7.771  20.629  0.00  0.00    +0.000 NA
ATOM      5  C   UNL     1       1.573   8.392  19.639  0.00  0.00    +0.000 A 
ATOM      6  N   UNL     1       1.174   9.661  19.254  0.00  0.00    +0.000 N 
ATOM      7  N   UNL     1       2.588   7.850  18.973  0.00  0.00    +0.000 NA
ATOM      8  H   UNL     1       1.936  10.297  19.074  0.00  0.00    +0.000 HD
ENDROOT
BRANCH   1  16
ATOM      9  O   UNL     1       8.159   4.618  18.632  0.00  0.00    +0.000 OA
ATOM     10  C   UNL     1       7.337   4.634  17.723  0.00  0.00    +0.000 C 
ATOM     11  N   UNL     1       7.678   4.205  16.459  0.00  0.00    +0.000 N 
ATOM     12  C   UNL     1       6.862   4.530  15.300  0.00  0.00    +0.000 C 
ATOM     13  C   UNL     1       5.370   4.349  15.574  0.00  0.00    +0.000 C 
ATOM     14  N   UNL     1       5.037   4.966  16.847  0.00  0.00    +0.000 N 
ATOM     15  C   UNL     1       3.838   5.486  17.232  0.00  0.00    +0.000 A 
ATOM     16  C   UNL     1       3.983   5.950  18.527  0.00  0.00    +0.000 A 
ATOM     17  C   UNL     1       5.325   5.667  18.921  0.00  0.00    +0.000 A 
ATOM     18  C   UNL     1       5.970   5.078  17.853  0.00  0.00    +0.000 A 
ATOM     19  H   UNL     1       8.664   4.005  16.351  0.00  0.00    +0.000 HD
ENDBRANCH   1  16
BRANCH   6  20
ATOM     20  C   UNL     1      -0.197  10.109  19.434  0.00  0.00    +0.000 C 
ATOM     21  C   UNL     1      -0.929  10.142  18.077  0.00  0.00    +0.000 C 
ATOM     22  C   UNL     1      -2.303  10.791  18.204  0.00  0.00    +0.000 C 
ATOM     23  O   UNL     1      -2.205  12.071  18.821  0.00  0.00    +0.000 OA
ATOM     24  C   UNL     1      -1.708  11.985  20.155  0.00  0.00    +0.000 C 
ATOM     25  C   UNL     1      -0.286  11.446  20.168  0.00  0.00    +0.000 C 
ENDBRANCH   6  20
TORSDOF 2
ENDMDL
MODEL 9
REMARK VINA RESULT:      -7.3      2.211      8.423
REMARK  Name = 
REMARK  2 active torsions:
REMARK  status: ('A' for Active; 'I' for Inactive)
REMARK    1  A    between atoms: C_8  and  C_9
REMARK    2  A    between atoms: N_14  and  C_15
REMARK                            x       y       z     vdW  Elec       q    Type
REMARK                         _______ _______ _______ _____ _____    ______ ____
ROOT
ATOM      1  C   UNL     1       1.964   7.927  19.080  0.00  0.00    +0.000 A 
ATOM      2  C   UNL     1       1.981   8.451  17.809  0.00  0.00    +0.000 A 
ATOM      3  C   UNL     1       1.358   9.656  17.666  0.00  0.00    +0.000 A 
ATOM      4  N   UNL     1       0.788  10.318  18.693  0.00  0.00    +0.000 NA
ATOM      5  C   UNL     1       0.787   9.712  19.892  0.00  0.00    +0.000 A 
ATOM      6  N   UNL     1       0.213  10.359  20.973  0.00  0.00    +0.000 N 
ATOM      7  N   UNL     1       1.335   8.523  20.121  0.00  0.00    +0.000 NA
ATOM      8  H   UNL     1      -0.338   9.759  21.569  0.00  0.00    +0.000 HD
ENDROOT
BRANCH   1  16
ATOM      9  O   UNL     1       6.292   4.359  18.614  0.00  0.00    +0.000 OA
ATOM     10  C   UNL     1       5.245   4.061  19.178  0.00  0.00    +0.000 C 
ATOM     11  N   UNL     1       5.061   2.797  19.695  0.00  0.00    +0.000 N 
ATOM     12  C   UNL     1       3.739   2.305  20.047  0.00  0.00    +0.000 C 
ATOM     13  C   UNL     1       2.915   3.349  20.800  0.00  0.00    +0.000 C 
ATOM     14  N   UNL     1       3.017   4.626  20.116  0.00  0.00    +0.000 N 
ATOM     15  C   UNL     1       2.107   5.641  20.107  0.00  0.00    +0.000 A 
ATOM     16  C   UNL     1       2.632   6.663  19.337  0.00  0.00    +0.000 A 
ATOM     17  C   UNL     1       3.918   6.231  18.895  0.00  0.00    +0.000 A 
ATOM     18  C   UNL     1       4.127   4.952  19.369  0.00  0.00    +0.000 A 
ATOM     19  H   UNL     1       5.801   2.150  19.456  0.00  0.00    +0.000 HD
ENDBRANCH   1  16
BRANCH   6  20
ATOM     20  C   UNL     1       0.135  11.809  21.032  0.00  0.00    +0.000 C 
ATOM     21  C   UNL     1       1.545  12.423  20.921  0.00  0.00    +0.000 C 
ATOM     22  C   UNL     1       1.517  13.926  21.174  0.00  0.00    +0.000 C 
ATOM     23  O   UNL     1       0.871  14.221  22.410  0.00  0.00    +0.000 OA
ATOM     24  C   UNL     1      -0.497  13.817  22.408  0.00  0.00    +0.000 C 
ATOM     25  C   UNL     1      -0.614  12.308  22.268  0.00  0.00    +0.000 C 
ENDBRANCH   6  20
TORSDOF 2
ENDMDL
