MODEL 1
REMARK VINA RESULT:      -7.6      0.000      0.000
REMARK  Name = 
REMARK  4 active torsions:
REMARK  status: ('A' for Active; 'I' for Inactive)
REMARK    1  A    between atoms: N_5  and  C_6
REMARK    2  A    between atoms: C_6  and  C_7
REMARK    3  A    between atoms: N_13  and  C_14
REMARK    4  A    between atoms: C_14  and  C_15
REMARK                            x       y       z     vdW  Elec       q    Type
REMARK                         _______ _______ _______ _____ _____    ______ ____
ROOT
ATOM      1  O   UNL     1       4.352   3.576  16.696  0.00  0.00    +0.000 OA
ATOM      2  C   UNL     1       4.909   4.470  17.305  0.00  0.00    +0.000 C 
ATOM      3  C   UNL     1       6.382   4.528  17.662  0.00  0.00    +0.000 C 
ATOM      4  C   UNL     1       7.326   4.238  16.522  0.00  0.00    +0.000 C 
ATOM      5  N   UNL     1       7.430   5.480  15.727  0.00  0.00    +0.000 NA
ATOM      6  C   UNL     1       7.089   6.591  16.638  0.00  0.00    +0.000 C 
ATOM      7  C   UNL     1       6.616   5.997  17.970  0.00  0.00    +0.000 C 
ATOM      8  C   UNL     1       5.269   6.490  18.466  0.00  0.00    +0.000 C 
ATOM      9  N   UNL     1       4.315   5.600  17.855  0.00  0.00    +0.000 N 
ENDROOT
BRANCH   5  10
ATOM     10  C   UNL     1       6.552   5.408  14.549  0.00  0.00    +0.000 C 
BRANCH  10  11
ATOM     11  C   UNL     1       6.495   4.022  13.972  0.00  0.00    +0.000 C 
ATOM     12  C   UNL     1       5.292   3.622  13.148  0.00  0.00    +0.000 C 
ATOM     13  C   UNL     1       6.625   3.796  12.482  0.00  0.00    +0.000 C 
ENDBRANCH  10  11
ENDBRANCH   5  10
BRANCH   9  14
ATOM     14  C   UNL     1       2.884   5.803  17.935  0.00  0.00    +0.000 C 
BRANCH  14  15
ATOM     15  C   UNL     1       2.181   4.827  18.851  0.00  0.00    +0.000 A 
ATOM     16  C   UNL     1       2.326   4.931  20.245  0.00  0.00    +0.000 A 
ATOM     17  C   UNL     1       1.783   3.967  21.099  0.00  0.00    +0.000 A 
ATOM     18  C   UNL     1       1.064   2.898  20.571  0.00  0.00    +0.000 A 
ATOM     19  C   UNL     1       0.874   2.819  19.195  0.00  0.00    +0.000 A 
ATOM     20  F   UNL     1       0.171   1.797  18.685  0.00  0.00    +0.000 F 
ATOM     21  C   UNL     1       1.415   3.773  18.333  0.00  0.00    +0.000 A 
ENDBRANCH  14  15
ENDBRANCH   9  14
TORSDOF 4
ENDMDL
MODEL 2
REMARK VINA RESULT:      -7.4      1.073      1.494
REMARK  Name = 
REMARK  4 active torsions:
REMARK  status: ('A' for Active; 'I' for Inactive)
REMARK    1  A    between atoms: N_5  and  C_6
REMARK    2  A    between atoms: C_6  and  C_7
REMARK    3  A    between atoms: N_13  and  C_14
REMARK    4  A    between atoms: C_14  and  C_15
REMARK                            x       y       z     vdW  Elec       q    Type
REMARK                         _______ _______ _______ _____ _____    ______ ____
ROOT
ATOM      1  O   UNL     1       4.394   3.418  16.833  0.00  0.00    +0.000 OA
ATOM      2  C   UNL     1       4.940   4.387  17.327  0.00  0.00    +0.000 C 
ATOM      3  C   UNL     1       6.430   4.556  17.555  0.00  0.00    +0.000 C 
ATOM      4  C   UNL     1       7.297   4.234  16.364  0.00  0.00    +0.000 C 
ATOM      5  N   UNL     1       7.259   5.415  15.476  0.00  0.00    +0.000 NA
ATOM      6  C   UNL     1       6.921   6.572  16.330  0.00  0.00    +0.000 C 
ATOM      7  C   UNL     1       6.594   6.056  17.736  0.00  0.00    +0.000 C 
ATOM      8  C   UNL     1       5.261   6.508  18.306  0.00  0.00    +0.000 C 
ATOM      9  N   UNL     1       4.321   5.520  17.843  0.00  0.00    +0.000 N 
ENDROOT
BRANCH   5  10
ATOM     10  C   UNL     1       6.297   5.203  14.383  0.00  0.00    +0.000 C 
BRANCH  10  11
ATOM     11  C   UNL     1       6.542   3.909  13.660  0.00  0.00    +0.000 C 
ATOM     12  C   UNL     1       5.543   3.451  12.622  0.00  0.00    +0.000 C 
ATOM     13  C   UNL     1       6.910   3.897  12.193  0.00  0.00    +0.000 C 
ENDBRANCH  10  11
ENDBRANCH   5  10
BRANCH   9  14
ATOM     14  C   UNL     1       2.890   5.646  18.027  0.00  0.00    +0.000 C 
BRANCH  14  15
ATOM     15  C   UNL     1       2.302   4.603  18.949  0.00  0.00    +0.000 A 
ATOM     16  C   UNL     1       1.348   3.689  18.471  0.00  0.00    +0.000 A 
ATOM     17  C   UNL     1       0.707   2.799  19.337  0.00  0.00    +0.000 A 
ATOM     18  C   UNL     1       1.030   2.793  20.691  0.00  0.00    +0.000 A 
ATOM     19  C   UNL     1       2.010   3.661  21.160  0.00  0.00    +0.000 A 
ATOM     20  F   UNL     1       2.333   3.649  22.462  0.00  0.00    +0.000 F 
ATOM     21  C   UNL     1       2.654   4.557  20.305  0.00  0.00    +0.000 A 
ENDBRANCH  14  15
ENDBRANCH   9  14
TORSDOF 4
ENDMDL
MODEL 3
REMARK VINA RESULT:      -7.2      3.085      6.359
REMARK  Name = 
REMARK  4 active torsions:
REMARK  status: ('A' for Active; 'I' for Inactive)
REMARK    1  A    between atoms: N_5  and  C_6
REMARK    2  A    between atoms: C_6  and  C_7
REMARK    3  A    between atoms: N_13  and  C_14
REMARK    4  A    between atoms: C_14  and  C_15
REMARK                            x       y       z     vdW  Elec       q    Type
REMARK                         _______ _______ _______ _____ _____    ______ ____
ROOT
ATOM      1  O   UNL     1       4.747   2.662  20.165  0.00  0.00    +0.000 OA
ATOM      2  C   UNL     1       3.781   2.446  19.456  0.00  0.00    +0.000 C 
ATOM      3  C   UNL     1       2.442   1.897  19.912  0.00  0.00    +0.000 C 
ATOM      4  C   UNL     1       1.849   2.582  21.117  0.00  0.00    +0.000 C 
ATOM      5  N   UNL     1       1.218   3.828  20.632  0.00  0.00    +0.000 NA
ATOM      6  C   UNL     1       0.905   3.612  19.205  0.00  0.00    +0.000 C 
ATOM      7  C   UNL     1       1.502   2.267  18.777  0.00  0.00    +0.000 C 
ATOM      8  C   UNL     1       2.399   2.307  17.552  0.00  0.00    +0.000 C 
ATOM      9  N   UNL     1       3.708   2.598  18.077  0.00  0.00    +0.000 N 
ENDROOT
BRANCH   5  10
ATOM     10  C   UNL     1       2.108   4.976  20.862  0.00  0.00    +0.000 C 
BRANCH  10  11
ATOM     11  C   UNL     1       2.085   5.946  19.714  0.00  0.00    +0.000 C 
ATOM     12  C   UNL     1       2.093   7.428  20.011  0.00  0.00    +0.000 C 
ATOM     13  C   UNL     1       3.297   6.788  19.386  0.00  0.00    +0.000 C 
ENDBRANCH  10  11
ENDBRANCH   5  10
BRANCH   9  14
ATOM     14  C   UNL     1       4.851   2.881  17.233  0.00  0.00    +0.000 C 
BRANCH  14  15
ATOM     15  C   UNL     1       5.274   4.331  17.249  0.00  0.00    +0.000 A 
ATOM     16  C   UNL     1       4.659   5.260  16.393  0.00  0.00    +0.000 A 
ATOM     17  C   UNL     1       5.120   6.577  16.309  0.00  0.00    +0.000 A 
ATOM     18  C   UNL     1       6.187   6.990  17.101  0.00  0.00    +0.000 A 
ATOM     19  C   UNL     1       6.766   6.089  17.988  0.00  0.00    +0.000 A 
ATOM     20  F   UNL     1       7.787   6.488  18.761  0.00  0.00    +0.000 F 
ATOM     21  C   UNL     1       6.317   4.770  18.077  0.00  0.00    +0.000 A 
ENDBRANCH  14  15
ENDBRANCH   9  14
TORSDOF 4
ENDMDL
MODEL 4
REMARK VINA RESULT:      -7.2      2.193      3.853
REMARK  Name = 
REMARK  4 active torsions:
REMARK  status: ('A' for Active; 'I' for Inactive)
REMARK    1  A    between atoms: N_5  and  C_6
REMARK    2  A    between atoms: C_6  and  C_7
REMARK    3  A    between atoms: N_13  and  C_14
REMARK    4  A    between atoms: C_14  and  C_15
REMARK                            x       y       z     vdW  Elec       q    Type
REMARK                         _______ _______ _______ _____ _____    ______ ____
ROOT
ATOM      1  O   UNL     1       4.254   7.000  16.824  0.00  0.00    +0.000 OA
ATOM      2  C   UNL     1       4.876   6.157  17.444  0.00  0.00    +0.000 C 
ATOM      3  C   UNL     1       6.110   5.419  16.961  0.00  0.00    +0.000 C 
ATOM      4  C   UNL     1       7.191   6.296  16.380  0.00  0.00    +0.000 C 
ATOM      5  N   UNL     1       7.933   6.871  17.522  0.00  0.00    +0.000 NA
ATOM      6  C   UNL     1       7.735   5.949  18.659  0.00  0.00    +0.000 C 
ATOM      7  C   UNL     1       6.723   4.876  18.241  0.00  0.00    +0.000 C 
ATOM      8  C   UNL     1       5.537   4.696  19.172  0.00  0.00    +0.000 C 
ATOM      9  N   UNL     1       4.563   5.645  18.698  0.00  0.00    +0.000 N 
ENDROOT
BRANCH   5  10
ATOM     10  C   UNL     1       7.467   8.239  17.798  0.00  0.00    +0.000 C 
BRANCH  10  11
ATOM     11  C   UNL     1       8.600   9.226  17.818  0.00  0.00    +0.000 C 
ATOM     12  C   UNL     1       8.293  10.684  18.079  0.00  0.00    +0.000 C 
ATOM     13  C   UNL     1       9.034   9.883  19.108  0.00  0.00    +0.000 C 
ENDBRANCH  10  11
ENDBRANCH   5  10
BRANCH   9  14
ATOM     14  C   UNL     1       3.326   5.922  19.398  0.00  0.00    +0.000 C 
BRANCH  14  15
ATOM     15  C   UNL     1       2.435   4.712  19.560  0.00  0.00    +0.000 A 
ATOM     16  C   UNL     1       1.806   4.139  18.442  0.00  0.00    +0.000 A 
ATOM     17  C   UNL     1       0.885   3.097  18.589  0.00  0.00    +0.000 A 
ATOM     18  C   UNL     1       0.602   2.596  19.857  0.00  0.00    +0.000 A 
ATOM     19  C   UNL     1       1.260   3.125  20.961  0.00  0.00    +0.000 A 
ATOM     20  F   UNL     1       0.998   2.635  22.182  0.00  0.00    +0.000 F 
ATOM     21  C   UNL     1       2.178   4.168  20.826  0.00  0.00    +0.000 A 
ENDBRANCH  14  15
ENDBRANCH   9  14
TORSDOF 4
ENDMDL
MODEL 5
REMARK VINA RESULT:      -7.0      2.830      6.388
REMARK  Name = 
REMARK  4 active torsions:
REMARK  status: ('A' for Active; 'I' for Inactive)
REMARK    1  A    between atoms: N_5  and  C_6
REMARK    2  A    between atoms: C_6  and  C_7
REMARK    3  A    between atoms: N_13  and  C_14
REMARK    4  A    between atoms: C_14  and  C_15
REMARK                            x       y       z     vdW  Elec       q    Type
REMARK                         _______ _______ _______ _____ _____    ______ ____
ROOT
ATOM      1  O   UNL     1       5.019   3.195  19.841  0.00  0.00    +0.000 OA
ATOM      2  C   UNL     1       3.958   2.782  19.413  0.00  0.00    +0.000 C 
ATOM      3  C   UNL     1       2.842   2.161  20.232  0.00  0.00    +0.000 C 
ATOM      4  C   UNL     1       2.445   2.940  21.461  0.00  0.00    +0.000 C 
ATOM      5  N   UNL     1       1.558   4.032  21.006  0.00  0.00    +0.000 NA
ATOM      6  C   UNL     1       0.967   3.588  19.728  0.00  0.00    +0.000 C 
ATOM      7  C   UNL     1       1.631   2.267  19.321  0.00  0.00    +0.000 C 
ATOM      8  C   UNL     1       2.217   2.232  17.921  0.00  0.00    +0.000 C 
ATOM      9  N   UNL     1       3.558   2.731  18.082  0.00  0.00    +0.000 N 
ENDROOT
BRANCH   5  10
ATOM     10  C   UNL     1       2.313   5.289  20.889  0.00  0.00    +0.000 C 
BRANCH  10  11
ATOM     11  C   UNL     1       1.464   6.408  20.355  0.00  0.00    +0.000 C 
ATOM     12  C   UNL     1       1.357   7.688  21.153  0.00  0.00    +0.000 C 
ATOM     13  C   UNL     1       2.094   7.685  19.846  0.00  0.00    +0.000 C 
ENDBRANCH  10  11
ENDBRANCH   5  10
BRANCH   9  14
ATOM     14  C   UNL     1       4.434   3.014  16.964  0.00  0.00    +0.000 C 
BRANCH  14  15
ATOM     15  C   UNL     1       4.998   4.416  16.973  0.00  0.00    +0.000 A 
ATOM     16  C   UNL     1       6.384   4.625  16.883  0.00  0.00    +0.000 A 
ATOM     17  C   UNL     1       6.930   5.905  17.011  0.00  0.00    +0.000 A 
ATOM     18  C   UNL     1       6.092   7.000  17.205  0.00  0.00    +0.000 A 
ATOM     19  C   UNL     1       4.715   6.805  17.244  0.00  0.00    +0.000 A 
ATOM     20  F   UNL     1       3.906   7.860  17.418  0.00  0.00    +0.000 F 
ATOM     21  C   UNL     1       4.160   5.531  17.121  0.00  0.00    +0.000 A 
ENDBRANCH  14  15
ENDBRANCH   9  14
TORSDOF 4
ENDMDL
MODEL 6
REMARK VINA RESULT:      -7.0      1.963      3.541
REMARK  Name = 
REMARK  4 active torsions:
REMARK  status: ('A' for Active; 'I' for Inactive)
REMARK    1  A    between atoms: N_5  and  C_6
REMARK    2  A    between atoms: C_6  and  C_7
REMARK    3  A    between atoms: N_13  and  C_14
REMARK    4  A    between atoms: C_14  and  C_15
REMARK                            x       y       z     vdW  Elec       q    Type
REMARK                         _______ _______ _______ _____ _____    ______ ____
ROOT
ATOM      1  O   UNL     1       4.626   6.787  16.024  0.00  0.00    +0.000 OA
ATOM      2  C   UNL     1       5.015   6.017  16.882  0.00  0.00    +0.000 C 
ATOM      3  C   UNL     1       6.307   5.222  16.852  0.00  0.00    +0.000 C 
ATOM      4  C   UNL     1       7.540   6.023  16.513  0.00  0.00    +0.000 C 
ATOM      5  N   UNL     1       7.950   6.719  17.751  0.00  0.00    +0.000 NA
ATOM      6  C   UNL     1       7.405   5.933  18.876  0.00  0.00    +0.000 C 
ATOM      7  C   UNL     1       6.514   4.825  18.304  0.00  0.00    +0.000 C 
ATOM      8  C   UNL     1       5.107   4.757  18.872  0.00  0.00    +0.000 C 
ATOM      9  N   UNL     1       4.342   5.651  18.042  0.00  0.00    +0.000 N 
ENDROOT
BRANCH   5  10
ATOM     10  C   UNL     1       7.476   8.112  17.735  0.00  0.00    +0.000 C 
BRANCH  10  11
ATOM     11  C   UNL     1       8.613   9.094  17.769  0.00  0.00    +0.000 C 
ATOM     12  C   UNL     1       8.321  10.537  18.115  0.00  0.00    +0.000 C 
ATOM     13  C   UNL     1       9.092   9.682  19.077  0.00  0.00    +0.000 C 
ENDBRANCH  10  11
ENDBRANCH   5  10
BRANCH   9  14
ATOM     14  C   UNL     1       2.969   6.011  18.327  0.00  0.00    +0.000 C 
BRANCH  14  15
ATOM     15  C   UNL     1       2.203   4.944  19.074  0.00  0.00    +0.000 A 
ATOM     16  C   UNL     1       2.162   4.951  20.478  0.00  0.00    +0.000 A 
ATOM     17  C   UNL     1       1.562   3.906  21.186  0.00  0.00    +0.000 A 
ATOM     18  C   UNL     1       0.968   2.852  20.497  0.00  0.00    +0.000 A 
ATOM     19  C   UNL     1       0.960   2.867  19.106  0.00  0.00    +0.000 A 
ATOM     20  F   UNL     1       0.378   1.859  18.440  0.00  0.00    +0.000 F 
ATOM     21  C   UNL     1       1.561   3.903  18.389  0.00  0.00    +0.000 A 
ENDBRANCH  14  15
ENDBRANCH   9  14
TORSDOF 4
ENDMDL
MODEL 7
REMARK VINA RESULT:      -7.0      1.724      2.394
REMARK  Name = 
REMARK  4 active torsions:
REMARK  status: ('A' for Active; 'I' for Inactive)
REMARK    1  A    between atoms: N_5  and  C_6
REMARK    2  A    between atoms: C_6  and  C_7
REMARK    3  A    between atoms: N_13  and  C_14
REMARK    4  A    between atoms: C_14  and  C_15
REMARK                            x       y       z     vdW  Elec       q    Type
REMARK                         _______ _______ _______ _____ _____    ______ ____
ROOT
ATOM      1  O   UNL     1       7.385   4.227  18.487  0.00  0.00    +0.000 OA
ATOM      2  C   UNL     1       6.354   4.872  18.470  0.00  0.00    +0.000 C 
ATOM      3  C   UNL     1       6.244   6.383  18.391  0.00  0.00    +0.000 C 
ATOM      4  C   UNL     1       7.080   7.027  17.313  0.00  0.00    +0.000 C 
ATOM      5  N   UNL     1       6.338   6.867  16.045  0.00  0.00    +0.000 NA
ATOM      6  C   UNL     1       4.915   6.708  16.407  0.00  0.00    +0.000 C 
ATOM      7  C   UNL     1       4.813   6.612  17.934  0.00  0.00    +0.000 C 
ATOM      8  C   UNL     1       4.058   5.407  18.466  0.00  0.00    +0.000 C 
ATOM      9  N   UNL     1       5.059   4.378  18.577  0.00  0.00    +0.000 N 
ENDROOT
BRANCH   5  10
ATOM     10  C   UNL     1       6.871   5.728  15.280  0.00  0.00    +0.000 C 
BRANCH  10  11
ATOM     11  C   UNL     1       5.777   4.841  14.756  0.00  0.00    +0.000 C 
ATOM     12  C   UNL     1       6.128   3.762  13.756  0.00  0.00    +0.000 C 
ATOM     13  C   UNL     1       5.707   3.382  15.146  0.00  0.00    +0.000 C 
ENDBRANCH  10  11
ENDBRANCH   5  10
BRANCH   9  14
ATOM     14  C   UNL     1       4.743   3.003  18.903  0.00  0.00    +0.000 C 
BRANCH  14  15
ATOM     15  C   UNL     1       3.294   2.782  19.269  0.00  0.00    +0.000 A 
ATOM     16  C   UNL     1       2.327   2.601  18.266  0.00  0.00    +0.000 A 
ATOM     17  C   UNL     1       0.968   2.517  18.582  0.00  0.00    +0.000 A 
ATOM     18  C   UNL     1       0.559   2.586  19.910  0.00  0.00    +0.000 A 
ATOM     19  C   UNL     1       1.516   2.713  20.912  0.00  0.00    +0.000 A 
ATOM     20  F   UNL     1       1.125   2.768  22.193  0.00  0.00    +0.000 F 
ATOM     21  C   UNL     1       2.875   2.803  20.607  0.00  0.00    +0.000 A 
ENDBRANCH  14  15
ENDBRANCH   9  14
TORSDOF 4
ENDMDL
MODEL 8
REMARK VINA RESULT:      -7.0      1.982      3.568
REMARK  Name = 
REMARK  4 active torsions:
REMARK  status: ('A' for Active; 'I' for Inactive)
REMARK    1  A    between atoms: N_5  and  C_6
REMARK    2  A    between atoms: C_6  and  C_7
REMARK    3  A    between atoms: N_13  and  C_14
REMARK    4  A    between atoms: C_14  and  C_15
REMARK                            x       y       z     vdW  Elec       q    Type
REMARK                         _______ _______ _______ _____ _____    ______ ____
ROOT
ATOM      1  O   UNL     1       4.496   7.389  16.434  0.00  0.00    +0.000 OA
ATOM      2  C   UNL     1       4.671   6.189  16.539  0.00  0.00    +0.000 C 
ATOM      3  C   UNL     1       5.728   5.372  15.819  0.00  0.00    +0.000 C 
ATOM      4  C   UNL     1       7.124   5.939  15.884  0.00  0.00    +0.000 C 
ATOM      5  N   UNL     1       7.677   5.564  17.203  0.00  0.00    +0.000 NA
ATOM      6  C   UNL     1       6.939   4.362  17.641  0.00  0.00    +0.000 C 
ATOM      7  C   UNL     1       5.810   4.096  16.639  0.00  0.00    +0.000 C 
ATOM      8  C   UNL     1       4.422   3.952  17.238  0.00  0.00    +0.000 C 
ATOM      9  N   UNL     1       3.913   5.298  17.289  0.00  0.00    +0.000 N 
ENDROOT
BRANCH   5  10
ATOM     10  C   UNL     1       7.561   6.689  18.144  0.00  0.00    +0.000 C 
BRANCH  10  11
ATOM     11  C   UNL     1       8.172   7.947  17.596  0.00  0.00    +0.000 C 
ATOM     12  C   UNL     1       7.388   9.237  17.682  0.00  0.00    +0.000 C 
ATOM     13  C   UNL     1       8.620   9.058  18.520  0.00  0.00    +0.000 C 
ENDBRANCH  10  11
ENDBRANCH   5  10
BRANCH   9  14
ATOM     14  C   UNL     1       2.667   5.646  17.940  0.00  0.00    +0.000 C 
BRANCH  14  15
ATOM     15  C   UNL     1       2.172   4.595  18.907  0.00  0.00    +0.000 A 
ATOM     16  C   UNL     1       1.266   3.609  18.482  0.00  0.00    +0.000 A 
ATOM     17  C   UNL     1       0.707   2.706  19.390  0.00  0.00    +0.000 A 
ATOM     18  C   UNL     1       1.067   2.760  20.734  0.00  0.00    +0.000 A 
ATOM     19  C   UNL     1       2.002   3.701  21.150  0.00  0.00    +0.000 A 
ATOM     20  F   UNL     1       2.360   3.746  22.442  0.00  0.00    +0.000 F 
ATOM     21  C   UNL     1       2.564   4.610  20.253  0.00  0.00    +0.000 A 
ENDBRANCH  14  15
ENDBRANCH   9  14
TORSDOF 4
ENDMDL
MODEL 9
REMARK VINA RESULT:      -6.9      2.615      6.518
REMARK  Name = 
REMARK  4 active torsions:
REMARK  status: ('A' for Active; 'I' for Inactive)
REMARK    1  A    between atoms: N_5  and  C_6
REMARK    2  A    between atoms: C_6  and  C_7
REMARK    3  A    between atoms: N_13  and  C_14
REMARK    4  A    between atoms: C_14  and  C_15
REMARK                            x       y       z     vdW  Elec       q    Type
REMARK                         _______ _______ _______ _____ _____    ______ ____
ROOT
ATOM      1  O   UNL     1       5.420   4.416  19.430  0.00  0.00    +0.000 OA
ATOM      2  C   UNL     1       4.553   3.825  18.812  0.00  0.00    +0.000 C 
ATOM      3  C   UNL     1       3.953   2.480  19.177  0.00  0.00    +0.000 C 
ATOM      4  C   UNL     1       3.513   2.347  20.615  0.00  0.00    +0.000 C 
ATOM      5  N   UNL     1       2.196   3.009  20.721  0.00  0.00    +0.000 NA
ATOM      6  C   UNL     1       1.605   2.989  19.367  0.00  0.00    +0.000 C 
ATOM      7  C   UNL     1       2.654   2.445  18.390  0.00  0.00    +0.000 C 
ATOM      8  C   UNL     1       2.933   3.315  17.177  0.00  0.00    +0.000 C 
ATOM      9  N   UNL     1       3.967   4.217  17.614  0.00  0.00    +0.000 N 
ENDROOT
BRANCH   5  10
ATOM     10  C   UNL     1       2.348   4.368  21.265  0.00  0.00    +0.000 C 
BRANCH  10  11
ATOM     11  C   UNL     1       1.637   5.393  20.428  0.00  0.00    +0.000 C 
ATOM     12  C   UNL     1       1.495   6.801  20.962  0.00  0.00    +0.000 C 
ATOM     13  C   UNL     1       2.395   6.536  19.791  0.00  0.00    +0.000 C 
ENDBRANCH  10  11
ENDBRANCH   5  10
BRANCH   9  14
ATOM     14  C   UNL     1       4.432   5.331  16.815  0.00  0.00    +0.000 C 
BRANCH  14  15
ATOM     15  C   UNL     1       5.387   4.933  15.714  0.00  0.00    +0.000 A 
ATOM     16  C   UNL     1       6.743   5.296  15.784  0.00  0.00    +0.000 A 
ATOM     17  C   UNL     1       7.613   5.041  14.720  0.00  0.00    +0.000 A 
ATOM     18  C   UNL     1       7.144   4.394  13.580  0.00  0.00    +0.000 A 
ATOM     19  C   UNL     1       5.815   3.986  13.527  0.00  0.00    +0.000 A 
ATOM     20  F   UNL     1       5.364   3.352  12.435  0.00  0.00    +0.000 F 
ATOM     21  C   UNL     1       4.937   4.240  14.582  0.00  0.00    +0.000 A 
ENDBRANCH  14  15
ENDBRANCH   9  14
TORSDOF 4
ENDMDL
