MODEL 1
REMARK VINA RESULT:      -7.2      0.000      0.000
REMARK  Name = 
REMARK  4 active torsions:
REMARK  status: ('A' for Active; 'I' for Inactive)
REMARK    1  A    between atoms: C_2  and  C_11
REMARK    2  A    between atoms: N_3  and  C_4
REMARK    3  A    between atoms: C_12  and  N_13
REMARK    4  A    between atoms: C_14  and  C_16
REMARK                            x       y       z     vdW  Elec       q    Type
REMARK                         _______ _______ _______ _____ _____    ______ ____
ROOT
ATOM      1  C   UNL     1       2.025   7.267  19.249  0.00  0.00    +0.000 A 
ATOM      2  C   UNL     1       1.898   6.769  20.531  0.00  0.00    +0.000 A 
ATOM      3  S   UNL     1       1.167   7.838  21.614  0.00  0.00    +0.000 S 
ATOM      4  C   UNL     1       1.162   9.095  20.455  0.00  0.00    +0.000 A 
ATOM      5  C   UNL     1       1.499   8.625  19.187  0.00  0.00    +0.000 A 
ATOM      6  C   UNL     1       1.316   9.424  17.913  0.00  0.00    +0.000 C 
ATOM      7  C   UNL     1       0.084  10.330  17.933  0.00  0.00    +0.000 C 
ATOM      8  C   UNL     1       0.292  11.653  18.673  0.00  0.00    +0.000 C 
ATOM      9  C   UNL     1       1.139  11.579  19.943  0.00  0.00    +0.000 C 
ATOM     10  C   UNL     1       0.718  10.464  20.898  0.00  0.00    +0.000 C 
ENDROOT
BRANCH   1  12
ATOM     11  O   UNL     1       1.679   5.924  17.352  0.00  0.00    +0.000 OA
ATOM     12  C   UNL     1       2.486   6.443  18.115  0.00  0.00    +0.000 C 
ATOM     13  N   UNL     1       3.864   6.347  18.025  0.00  0.00    +0.000 N 
ATOM     14  H   UNL     1       4.380   6.687  18.825  0.00  0.00    +0.000 HD
BRANCH  13  15
ATOM     15  C   UNL     1       4.616   5.721  17.013  0.00  0.00    +0.000 A 
ATOM     16  C   UNL     1       5.180   6.402  15.929  0.00  0.00    +0.000 A 
ATOM     17  C   UNL     1       5.883   5.704  14.941  0.00  0.00    +0.000 A 
ATOM     18  C   UNL     1       6.030   4.328  15.044  0.00  0.00    +0.000 A 
ATOM     19  F   UNL     1       6.684   3.659  14.086  0.00  0.00    +0.000 F 
ATOM     20  C   UNL     1       5.509   3.637  16.129  0.00  0.00    +0.000 A 
ATOM     21  C   UNL     1       4.809   4.335  17.118  0.00  0.00    +0.000 A 
ENDBRANCH  13  15
ENDBRANCH   1  12
BRANCH   2  22
ATOM     22  N   UNL     1       2.232   5.568  21.119  0.00  0.00    +0.000 N 
ATOM     23  C   UNL     1       1.508   4.406  20.844  0.00  0.00    +0.000 C 
ATOM     24  O   UNL     1       0.589   4.346  20.025  0.00  0.00    +0.000 OA
ATOM     25  H   UNL     1       3.196   5.455  21.417  0.00  0.00    +0.000 HD
BRANCH  23  26
ATOM     26  C   UNL     1       2.073   3.177  21.582  0.00  0.00    +0.000 C 
ATOM     27  F   UNL     1       2.508   3.498  22.836  0.00  0.00    +0.000 F 
ATOM     28  F   UNL     1       1.112   2.219  21.772  0.00  0.00    +0.000 F 
ATOM     29 CL   UNL     1       3.408   2.480  20.654  0.00  0.00    +0.000 Cl
ENDBRANCH  23  26
ENDBRANCH   2  22
TORSDOF 4
ENDMDL
MODEL 2
REMARK VINA RESULT:      -7.1      1.145      1.152
REMARK  Name = 
REMARK  4 active torsions:
REMARK  status: ('A' for Active; 'I' for Inactive)
REMARK    1  A    between atoms: C_2  and  C_11
REMARK    2  A    between atoms: N_3  and  C_4
REMARK    3  A    between atoms: C_12  and  N_13
REMARK    4  A    between atoms: C_14  and  C_16
REMARK                            x       y       z     vdW  Elec       q    Type
REMARK                         _______ _______ _______ _____ _____    ______ ____
ROOT
ATOM      1  C   UNL     1       2.124   7.855  19.313  0.00  0.00    +0.000 A 
ATOM      2  C   UNL     1       1.892   6.992  20.365  0.00  0.00    +0.000 A 
ATOM      3  S   UNL     1       0.779   7.570  21.496  0.00  0.00    +0.000 S 
ATOM      4  C   UNL     1       0.701   9.093  20.723  0.00  0.00    +0.000 A 
ATOM      5  C   UNL     1       1.339   9.072  19.484  0.00  0.00    +0.000 A 
ATOM      6  C   UNL     1       1.206  10.168  18.447  0.00  0.00    +0.000 C 
ATOM      7  C   UNL     1      -0.177  10.822  18.424  0.00  0.00    +0.000 C 
ATOM      8  C   UNL     1      -0.383  11.887  19.503  0.00  0.00    +0.000 C 
ATOM      9  C   UNL     1       0.235  11.581  20.867  0.00  0.00    +0.000 C 
ATOM     10  C   UNL     1      -0.093  10.184  21.390  0.00  0.00    +0.000 C 
ENDROOT
BRANCH   1  12
ATOM     11  O   UNL     1       2.765   8.043  17.060  0.00  0.00    +0.000 OA
ATOM     12  C   UNL     1       2.933   7.482  18.138  0.00  0.00    +0.000 C 
ATOM     13  N   UNL     1       3.858   6.485  18.397  0.00  0.00    +0.000 N 
ATOM     14  H   UNL     1       3.753   6.010  19.284  0.00  0.00    +0.000 HD
BRANCH  13  15
ATOM     15  C   UNL     1       4.837   5.974  17.523  0.00  0.00    +0.000 A 
ATOM     16  C   UNL     1       6.151   6.450  17.465  0.00  0.00    +0.000 A 
ATOM     17  C   UNL     1       7.057   5.918  16.542  0.00  0.00    +0.000 A 
ATOM     18  C   UNL     1       6.653   4.903  15.687  0.00  0.00    +0.000 A 
ATOM     19  F   UNL     1       7.515   4.410  14.790  0.00  0.00    +0.000 F 
ATOM     20  C   UNL     1       5.363   4.392  15.752  0.00  0.00    +0.000 A 
ATOM     21  C   UNL     1       4.458   4.922  16.676  0.00  0.00    +0.000 A 
ENDBRANCH  13  15
ENDBRANCH   1  12
BRANCH   2  22
ATOM     22  N   UNL     1       2.371   5.740  20.687  0.00  0.00    +0.000 N 
ATOM     23  C   UNL     1       1.933   4.604  20.005  0.00  0.00    +0.000 C 
ATOM     24  O   UNL     1       1.164   4.635  19.042  0.00  0.00    +0.000 OA
ATOM     25  H   UNL     1       3.288   5.697  21.120  0.00  0.00    +0.000 HD
BRANCH  23  26
ATOM     26  C   UNL     1       2.620   3.319  20.505  0.00  0.00    +0.000 C 
ATOM     27  F   UNL     1       2.706   3.291  21.867  0.00  0.00    +0.000 F 
ATOM     28  F   UNL     1       1.904   2.201  20.168  0.00  0.00    +0.000 F 
ATOM     29 CL   UNL     1       4.242   3.197  19.810  0.00  0.00    +0.000 Cl
ENDBRANCH  23  26
ENDBRANCH   2  22
TORSDOF 4
ENDMDL
MODEL 3
REMARK VINA RESULT:      -7.1      1.036      1.272
REMARK  Name = 
REMARK  4 active torsions:
REMARK  status: ('A' for Active; 'I' for Inactive)
REMARK    1  A    between atoms: C_2  and  C_11
REMARK    2  A    between atoms: N_3  and  C_4
REMARK    3  A    between atoms: C_12  and  N_13
REMARK    4  A    between atoms: C_14  and  C_16
REMARK                            x       y       z     vdW  Elec       q    Type
REMARK                         _______ _______ _______ _____ _____    ______ ____
ROOT
ATOM      1  C   UNL     1       2.004   7.960  19.390  0.00  0.00    +0.000 A 
ATOM      2  C   UNL     1       1.798   7.126  20.471  0.00  0.00    +0.000 A 
ATOM      3  S   UNL     1       0.729   7.746  21.622  0.00  0.00    +0.000 S 
ATOM      4  C   UNL     1       0.641   9.249  20.812  0.00  0.00    +0.000 A 
ATOM      5  C   UNL     1       1.237   9.189  19.555  0.00  0.00    +0.000 A 
ATOM      6  C   UNL     1       1.082  10.259  18.494  0.00  0.00    +0.000 C 
ATOM      7  C   UNL     1      -0.294  10.929  18.499  0.00  0.00    +0.000 C 
ATOM      8  C   UNL     1      -0.453  12.023  19.556  0.00  0.00    +0.000 C 
ATOM      9  C   UNL     1       0.206  11.745  20.907  0.00  0.00    +0.000 C 
ATOM     10  C   UNL     1      -0.119  10.366  21.476  0.00  0.00    +0.000 C 
ENDROOT
BRANCH   1  12
ATOM     11  O   UNL     1       2.620   8.126  17.129  0.00  0.00    +0.000 OA
ATOM     12  C   UNL     1       2.770   7.547  18.199  0.00  0.00    +0.000 C 
ATOM     13  N   UNL     1       3.636   6.493  18.436  0.00  0.00    +0.000 N 
ATOM     14  H   UNL     1       3.517   6.019  19.321  0.00  0.00    +0.000 HD
BRANCH  13  15
ATOM     15  C   UNL     1       4.568   5.931  17.543  0.00  0.00    +0.000 A 
ATOM     16  C   UNL     1       4.318   4.789  16.775  0.00  0.00    +0.000 A 
ATOM     17  C   UNL     1       5.308   4.267  15.937  0.00  0.00    +0.000 A 
ATOM     18  C   UNL     1       6.544   4.893  15.859  0.00  0.00    +0.000 A 
ATOM     19  F   UNL     1       7.498   4.380  15.073  0.00  0.00    +0.000 F 
ATOM     20  C   UNL     1       6.801   6.048  16.585  0.00  0.00    +0.000 A 
ATOM     21  C   UNL     1       5.810   6.571  17.421  0.00  0.00    +0.000 A 
ENDBRANCH  13  15
ENDBRANCH   1  12
BRANCH   2  22
ATOM     22  N   UNL     1       2.274   5.878  20.810  0.00  0.00    +0.000 N 
ATOM     23  C   UNL     1       1.515   4.730  20.575  0.00  0.00    +0.000 C 
ATOM     24  O   UNL     1       0.427   4.732  19.997  0.00  0.00    +0.000 OA
ATOM     25  H   UNL     1       3.282   5.767  20.854  0.00  0.00    +0.000 HD
BRANCH  23  26
ATOM     26  C   UNL     1       2.251   3.445  21.000  0.00  0.00    +0.000 C 
ATOM     27  F   UNL     1       2.572   3.464  22.327  0.00  0.00    +0.000 F 
ATOM     28  F   UNL     1       1.463   2.337  20.839  0.00  0.00    +0.000 F 
ATOM     29 CL   UNL     1       3.724   3.251  20.040  0.00  0.00    +0.000 Cl
ENDBRANCH  23  26
ENDBRANCH   2  22
TORSDOF 4
ENDMDL
MODEL 4
REMARK VINA RESULT:      -7.0      0.637      1.009
REMARK  Name = 
REMARK  4 active torsions:
REMARK  status: ('A' for Active; 'I' for Inactive)
REMARK    1  A    between atoms: C_2  and  C_11
REMARK    2  A    between atoms: N_3  and  C_4
REMARK    3  A    between atoms: C_12  and  N_13
REMARK    4  A    between atoms: C_14  and  C_16
REMARK                            x       y       z     vdW  Elec       q    Type
REMARK                         _______ _______ _______ _____ _____    ______ ____
ROOT
ATOM      1  C   UNL     1       2.207   7.238  19.304  0.00  0.00    +0.000 A 
ATOM      2  C   UNL     1       1.930   6.700  20.545  0.00  0.00    +0.000 A 
ATOM      3  S   UNL     1       1.022   7.712  21.546  0.00  0.00    +0.000 S 
ATOM      4  C   UNL     1       1.121   9.001  20.426  0.00  0.00    +0.000 A 
ATOM      5  C   UNL     1       1.641   8.578  19.204  0.00  0.00    +0.000 A 
ATOM      6  C   UNL     1       1.597   9.406  17.936  0.00  0.00    +0.000 C 
ATOM      7  C   UNL     1       0.338  10.267  17.813  0.00  0.00    +0.000 C 
ATOM      8  C   UNL     1       0.395  11.575  18.605  0.00  0.00    +0.000 C 
ATOM      9  C   UNL     1       1.069  11.495  19.974  0.00  0.00    +0.000 C 
ATOM     10  C   UNL     1       0.569  10.339  20.838  0.00  0.00    +0.000 C 
ENDROOT
BRANCH   1  12
ATOM     11  O   UNL     1       2.164   5.877  17.389  0.00  0.00    +0.000 OA
ATOM     12  C   UNL     1       2.846   6.464  18.223  0.00  0.00    +0.000 C 
ATOM     13  N   UNL     1       4.229   6.495  18.264  0.00  0.00    +0.000 N 
ATOM     14  H   UNL     1       4.634   6.878  19.107  0.00  0.00    +0.000 HD
BRANCH  13  15
ATOM     15  C   UNL     1       5.127   5.943  17.330  0.00  0.00    +0.000 A 
ATOM     16  C   UNL     1       6.157   5.060  17.670  0.00  0.00    +0.000 A 
ATOM     17  C   UNL     1       7.034   4.582  16.691  0.00  0.00    +0.000 A 
ATOM     18  C   UNL     1       6.874   4.980  15.371  0.00  0.00    +0.000 A 
ATOM     19  F   UNL     1       7.727   4.539  14.439  0.00  0.00    +0.000 F 
ATOM     20  C   UNL     1       5.837   5.827  15.006  0.00  0.00    +0.000 A 
ATOM     21  C   UNL     1       4.958   6.302  15.984  0.00  0.00    +0.000 A 
ENDBRANCH  13  15
ENDBRANCH   1  12
BRANCH   2  22
ATOM     22  N   UNL     1       2.230   5.496  21.144  0.00  0.00    +0.000 N 
ATOM     23  C   UNL     1       1.539   4.331  20.805  0.00  0.00    +0.000 C 
ATOM     24  O   UNL     1       0.684   4.273  19.920  0.00  0.00    +0.000 OA
ATOM     25  H   UNL     1       3.171   5.387  21.512  0.00  0.00    +0.000 HD
BRANCH  23  26
ATOM     26  C   UNL     1       2.058   3.099  21.571  0.00  0.00    +0.000 C 
ATOM     27  F   UNL     1       2.401   3.411  22.855  0.00  0.00    +0.000 F 
ATOM     28  F   UNL     1       1.093   2.133  21.682  0.00  0.00    +0.000 F 
ATOM     29 CL   UNL     1       3.462   2.420  20.735  0.00  0.00    +0.000 Cl
ENDBRANCH  23  26
ENDBRANCH   2  22
TORSDOF 4
ENDMDL
MODEL 5
REMARK VINA RESULT:      -7.0      3.747      7.211
REMARK  Name = 
REMARK  4 active torsions:
REMARK  status: ('A' for Active; 'I' for Inactive)
REMARK    1  A    between atoms: C_2  and  C_11
REMARK    2  A    between atoms: N_3  and  C_4
REMARK    3  A    between atoms: C_12  and  N_13
REMARK    4  A    between atoms: C_14  and  C_16
REMARK                            x       y       z     vdW  Elec       q    Type
REMARK                         _______ _______ _______ _____ _____    ______ ____
ROOT
ATOM      1  C   UNL     1       3.459   5.222  18.255  0.00  0.00    +0.000 A 
ATOM      2  C   UNL     1       4.010   4.430  17.267  0.00  0.00    +0.000 A 
ATOM      3  S   UNL     1       3.848   2.773  17.545  0.00  0.00    +0.000 S 
ATOM      4  C   UNL     1       3.197   3.042  19.103  0.00  0.00    +0.000 A 
ATOM      5  C   UNL     1       2.892   4.386  19.306  0.00  0.00    +0.000 A 
ATOM      6  C   UNL     1       2.057   4.898  20.461  0.00  0.00    +0.000 C 
ATOM      7  C   UNL     1       0.944   3.937  20.883  0.00  0.00    +0.000 C 
ATOM      8  C   UNL     1       1.411   2.798  21.791  0.00  0.00    +0.000 C 
ATOM      9  C   UNL     1       2.777   2.199  21.458  0.00  0.00    +0.000 C 
ATOM     10  C   UNL     1       2.950   1.845  19.983  0.00  0.00    +0.000 C 
ENDROOT
BRANCH   1  12
ATOM     11  O   UNL     1       4.122   7.315  17.418  0.00  0.00    +0.000 OA
ATOM     12  C   UNL     1       3.348   6.688  18.133  0.00  0.00    +0.000 C 
ATOM     13  N   UNL     1       2.313   7.228  18.876  0.00  0.00    +0.000 N 
ATOM     14  H   UNL     1       1.879   6.603  19.542  0.00  0.00    +0.000 HD
BRANCH  13  15
ATOM     15  C   UNL     1       1.885   8.569  18.902  0.00  0.00    +0.000 A 
ATOM     16  C   UNL     1       2.121   9.481  17.868  0.00  0.00    +0.000 A 
ATOM     17  C   UNL     1       1.697  10.809  17.983  0.00  0.00    +0.000 A 
ATOM     18  C   UNL     1       1.028  11.221  19.127  0.00  0.00    +0.000 A 
ATOM     19  F   UNL     1       0.643  12.497  19.245  0.00  0.00    +0.000 F 
ATOM     20  C   UNL     1       0.751  10.324  20.150  0.00  0.00    +0.000 A 
ATOM     21  C   UNL     1       1.173   8.996  20.033  0.00  0.00    +0.000 A 
ENDBRANCH  13  15
ENDBRANCH   1  12
BRANCH   2  22
ATOM     22  N   UNL     1       4.661   4.705  16.084  0.00  0.00    +0.000 N 
ATOM     23  C   UNL     1       6.054   4.661  16.001  0.00  0.00    +0.000 C 
ATOM     24  O   UNL     1       6.786   4.311  16.929  0.00  0.00    +0.000 OA
ATOM     25  H   UNL     1       4.140   4.551  15.226  0.00  0.00    +0.000 HD
BRANCH  23  26
ATOM     26  C   UNL     1       6.567   4.969  14.582  0.00  0.00    +0.000 C 
ATOM     27  F   UNL     1       6.018   6.117  14.087  0.00  0.00    +0.000 F 
ATOM     28  F   UNL     1       7.919   5.186  14.571  0.00  0.00    +0.000 F 
ATOM     29 CL   UNL     1       6.189   3.621  13.500  0.00  0.00    +0.000 Cl
ENDBRANCH  23  26
ENDBRANCH   2  22
TORSDOF 4
ENDMDL
MODEL 6
REMARK VINA RESULT:      -7.0      1.133      1.208
REMARK  Name = 
REMARK  4 active torsions:
REMARK  status: ('A' for Active; 'I' for Inactive)
REMARK    1  A    between atoms: C_2  and  C_11
REMARK    2  A    between atoms: N_3  and  C_4
REMARK    3  A    between atoms: C_12  and  N_13
REMARK    4  A    between atoms: C_14  and  C_16
REMARK                            x       y       z     vdW  Elec       q    Type
REMARK                         _______ _______ _______ _____ _____    ______ ____
ROOT
ATOM      1  C   UNL     1       1.886   8.152  19.388  0.00  0.00    +0.000 A 
ATOM      2  C   UNL     1       1.756   7.352  20.505  0.00  0.00    +0.000 A 
ATOM      3  S   UNL     1       0.743   7.991  21.694  0.00  0.00    +0.000 S 
ATOM      4  C   UNL     1       0.583   9.465  20.843  0.00  0.00    +0.000 A 
ATOM      5  C   UNL     1       1.108   9.374  19.556  0.00  0.00    +0.000 A 
ATOM      6  C   UNL     1       0.874  10.406  18.473  0.00  0.00    +0.000 C 
ATOM      7  C   UNL     1      -0.511  11.053  18.535  0.00  0.00    +0.000 C 
ATOM      8  C   UNL     1      -0.631  12.179  19.564  0.00  0.00    +0.000 C 
ATOM      9  C   UNL     1       0.108  11.956  20.883  0.00  0.00    +0.000 C 
ATOM     10  C   UNL     1      -0.159  10.591  21.514  0.00  0.00    +0.000 C 
ENDROOT
BRANCH   1  12
ATOM     11  O   UNL     1       2.600   8.417  17.165  0.00  0.00    +0.000 OA
ATOM     12  C   UNL     1       2.592   7.713  18.169  0.00  0.00    +0.000 C 
ATOM     13  N   UNL     1       3.215   6.484  18.303  0.00  0.00    +0.000 N 
ATOM     14  H   UNL     1       2.971   5.957  19.130  0.00  0.00    +0.000 HD
BRANCH  13  15
ATOM     15  C   UNL     1       4.042   5.835  17.366  0.00  0.00    +0.000 A 
ATOM     16  C   UNL     1       4.907   6.507  16.496  0.00  0.00    +0.000 A 
ATOM     17  C   UNL     1       5.671   5.795  15.566  0.00  0.00    +0.000 A 
ATOM     18  C   UNL     1       5.576   4.412  15.513  0.00  0.00    +0.000 A 
ATOM     19  F   UNL     1       6.291   3.734  14.607  0.00  0.00    +0.000 F 
ATOM     20  C   UNL     1       4.751   3.722  16.391  0.00  0.00    +0.000 A 
ATOM     21  C   UNL     1       3.990   4.434  17.323  0.00  0.00    +0.000 A 
ENDBRANCH  13  15
ENDBRANCH   1  12
BRANCH   2  22
ATOM     22  N   UNL     1       2.273   6.123  20.856  0.00  0.00    +0.000 N 
ATOM     23  C   UNL     1       1.647   4.939  20.462  0.00  0.00    +0.000 C 
ATOM     24  O   UNL     1       0.655   4.897  19.730  0.00  0.00    +0.000 OA
ATOM     25  H   UNL     1       3.270   6.080  21.043  0.00  0.00    +0.000 HD
BRANCH  23  26
ATOM     26  C   UNL     1       2.410   3.687  20.935  0.00  0.00    +0.000 C 
ATOM     27  F   UNL     1       3.725   3.731  20.569  0.00  0.00    +0.000 F 
ATOM     28  F   UNL     1       2.422   3.592  22.301  0.00  0.00    +0.000 F 
ATOM     29 CL   UNL     1       1.659   2.235  20.260  0.00  0.00    +0.000 Cl
ENDBRANCH  23  26
ENDBRANCH   2  22
TORSDOF 4
ENDMDL
MODEL 7
REMARK VINA RESULT:      -6.9      1.358      1.635
REMARK  Name = 
REMARK  4 active torsions:
REMARK  status: ('A' for Active; 'I' for Inactive)
REMARK    1  A    between atoms: C_2  and  C_11
REMARK    2  A    between atoms: N_3  and  C_4
REMARK    3  A    between atoms: C_12  and  N_13
REMARK    4  A    between atoms: C_14  and  C_16
REMARK                            x       y       z     vdW  Elec       q    Type
REMARK                         _______ _______ _______ _____ _____    ______ ____
ROOT
ATOM      1  C   UNL     1       2.163   7.806  19.243  0.00  0.00    +0.000 A 
ATOM      2  C   UNL     1       1.941   6.908  20.269  0.00  0.00    +0.000 A 
ATOM      3  S   UNL     1       0.855   7.457  21.439  0.00  0.00    +0.000 S 
ATOM      4  C   UNL     1       0.779   9.007  20.720  0.00  0.00    +0.000 A 
ATOM      5  C   UNL     1       1.394   9.023  19.471  0.00  0.00    +0.000 A 
ATOM      6  C   UNL     1       1.254  10.156  18.474  0.00  0.00    +0.000 C 
ATOM      7  C   UNL     1      -0.122  10.824  18.499  0.00  0.00    +0.000 C 
ATOM      8  C   UNL     1      -0.298  11.852  19.618  0.00  0.00    +0.000 C 
ATOM      9  C   UNL     1       0.340  11.493  20.960  0.00  0.00    +0.000 C 
ATOM     10  C   UNL     1       0.008  10.082  21.439  0.00  0.00    +0.000 C 
ENDROOT
BRANCH   1  12
ATOM     11  O   UNL     1       2.816   8.111  17.007  0.00  0.00    +0.000 OA
ATOM     12  C   UNL     1       2.948   7.466  18.041  0.00  0.00    +0.000 C 
ATOM     13  N   UNL     1       3.808   6.396  18.226  0.00  0.00    +0.000 N 
ATOM     14  H   UNL     1       3.673   5.868  19.078  0.00  0.00    +0.000 HD
BRANCH  13  15
ATOM     15  C   UNL     1       4.753   5.888  17.314  0.00  0.00    +0.000 A 
ATOM     16  C   UNL     1       4.510   4.802  16.468  0.00  0.00    +0.000 A 
ATOM     17  C   UNL     1       5.513   4.329  15.615  0.00  0.00    +0.000 A 
ATOM     18  C   UNL     1       6.753   4.951  15.601  0.00  0.00    +0.000 A 
ATOM     19  F   UNL     1       7.719   4.484  14.801  0.00  0.00    +0.000 F 
ATOM     20  C   UNL     1       7.004   6.053  16.408  0.00  0.00    +0.000 A 
ATOM     21  C   UNL     1       6.001   6.527  17.258  0.00  0.00    +0.000 A 
ENDBRANCH  13  15
ENDBRANCH   1  12
BRANCH   2  22
ATOM     22  N   UNL     1       2.413   5.641  20.539  0.00  0.00    +0.000 N 
ATOM     23  C   UNL     1       1.983   4.540  19.796  0.00  0.00    +0.000 C 
ATOM     24  O   UNL     1       1.229   4.618  18.824  0.00  0.00    +0.000 OA
ATOM     25  H   UNL     1       3.323   5.575  20.982  0.00  0.00    +0.000 HD
BRANCH  23  26
ATOM     26  C   UNL     1       2.660   3.231  20.246  0.00  0.00    +0.000 C 
ATOM     27  F   UNL     1       2.254   2.169  19.491  0.00  0.00    +0.000 F 
ATOM     28  F   UNL     1       4.019   3.286  20.083  0.00  0.00    +0.000 F 
ATOM     29 CL   UNL     1       2.294   2.919  21.948  0.00  0.00    +0.000 Cl
ENDBRANCH  23  26
ENDBRANCH   2  22
TORSDOF 4
ENDMDL
MODEL 8
REMARK VINA RESULT:      -6.9      3.877      7.505
REMARK  Name = 
REMARK  4 active torsions:
REMARK  status: ('A' for Active; 'I' for Inactive)
REMARK    1  A    between atoms: C_2  and  C_11
REMARK    2  A    between atoms: N_3  and  C_4
REMARK    3  A    between atoms: C_12  and  N_13
REMARK    4  A    between atoms: C_14  and  C_16
REMARK                            x       y       z     vdW  Elec       q    Type
REMARK                         _______ _______ _______ _____ _____    ______ ____
ROOT
ATOM      1  C   UNL     1       3.500   5.783  18.945  0.00  0.00    +0.000 A 
ATOM      2  C   UNL     1       4.842   5.554  18.712  0.00  0.00    +0.000 A 
ATOM      3  S   UNL     1       5.229   3.929  18.471  0.00  0.00    +0.000 S 
ATOM      4  C   UNL     1       3.639   3.435  18.859  0.00  0.00    +0.000 A 
ATOM      5  C   UNL     1       2.771   4.521  18.940  0.00  0.00    +0.000 A 
ATOM      6  C   UNL     1       1.262   4.395  18.991  0.00  0.00    +0.000 C 
ATOM      7  C   UNL     1       0.719   3.224  18.170  0.00  0.00    +0.000 C 
ATOM      8  C   UNL     1       0.807   1.870  18.876  0.00  0.00    +0.000 C 
ATOM      9  C   UNL     1       2.070   1.631  19.703  0.00  0.00    +0.000 C 
ATOM     10  C   UNL     1       3.362   1.958  18.959  0.00  0.00    +0.000 C 
ENDROOT
BRANCH   1  12
ATOM     11  O   UNL     1       3.088   7.939  18.107  0.00  0.00    +0.000 OA
ATOM     12  C   UNL     1       2.924   7.139  19.021  0.00  0.00    +0.000 C 
ATOM     13  N   UNL     1       2.209   7.371  20.183  0.00  0.00    +0.000 N 
ATOM     14  H   UNL     1       2.312   6.674  20.909  0.00  0.00    +0.000 HD
BRANCH  13  15
ATOM     15  C   UNL     1       1.463   8.518  20.517  0.00  0.00    +0.000 A 
ATOM     16  C   UNL     1       1.063   9.483  19.586  0.00  0.00    +0.000 A 
ATOM     17  C   UNL     1       0.356  10.616  19.999  0.00  0.00    +0.000 A 
ATOM     18  C   UNL     1       0.041  10.780  21.341  0.00  0.00    +0.000 A 
ATOM     19  F   UNL     1      -0.616  11.876  21.738  0.00  0.00    +0.000 F 
ATOM     20  C   UNL     1       0.398   9.818  22.276  0.00  0.00    +0.000 A 
ATOM     21  C   UNL     1       1.102   8.683  21.862  0.00  0.00    +0.000 A 
ENDBRANCH  13  15
ENDBRANCH   1  12
BRANCH   2  22
ATOM     22  N   UNL     1       5.943   6.379  18.622  0.00  0.00    +0.000 N 
ATOM     23  C   UNL     1       6.338   6.921  17.397  0.00  0.00    +0.000 C 
ATOM     24  O   UNL     1       5.712   6.771  16.346  0.00  0.00    +0.000 OA
ATOM     25  H   UNL     1       6.207   6.886  19.460  0.00  0.00    +0.000 HD
BRANCH  23  26
ATOM     26  C   UNL     1       7.570   7.836  17.532  0.00  0.00    +0.000 C 
ATOM     27  F   UNL     1       8.369   7.771  16.428  0.00  0.00    +0.000 F 
ATOM     28  F   UNL     1       7.209   9.153  17.636  0.00  0.00    +0.000 F 
ATOM     29 CL   UNL     1       8.504   7.378  18.964  0.00  0.00    +0.000 Cl
ENDBRANCH  23  26
ENDBRANCH   2  22
TORSDOF 4
ENDMDL
MODEL 9
REMARK VINA RESULT:      -6.8      4.175      7.174
REMARK  Name = 
REMARK  4 active torsions:
REMARK  status: ('A' for Active; 'I' for Inactive)
REMARK    1  A    between atoms: C_2  and  C_11
REMARK    2  A    between atoms: N_3  and  C_4
REMARK    3  A    between atoms: C_12  and  N_13
REMARK    4  A    between atoms: C_14  and  C_16
REMARK                            x       y       z     vdW  Elec       q    Type
REMARK                         _______ _______ _______ _____ _____    ______ ____
ROOT
ATOM      1  C   UNL     1       2.149   7.839  18.991  0.00  0.00    +0.000 A 
ATOM      2  C   UNL     1       1.614   7.446  20.201  0.00  0.00    +0.000 A 
ATOM      3  S   UNL     1       2.208   5.972  20.769  0.00  0.00    +0.000 S 
ATOM      4  C   UNL     1       3.073   5.699  19.320  0.00  0.00    +0.000 A 
ATOM      5  C   UNL     1       3.091   6.835  18.513  0.00  0.00    +0.000 A 
ATOM      6  C   UNL     1       3.996   7.001  17.309  0.00  0.00    +0.000 C 
ATOM      7  C   UNL     1       5.362   6.334  17.475  0.00  0.00    +0.000 C 
ATOM      8  C   UNL     1       5.361   4.828  17.204  0.00  0.00    +0.000 C 
ATOM      9  C   UNL     1       4.133   4.064  17.698  0.00  0.00    +0.000 C 
ATOM     10  C   UNL     1       3.760   4.371  19.146  0.00  0.00    +0.000 C 
ENDROOT
BRANCH   1  12
ATOM     11  O   UNL     1       2.079   9.359  17.201  0.00  0.00    +0.000 OA
ATOM     12  C   UNL     1       1.890   9.164  18.397  0.00  0.00    +0.000 C 
ATOM     13  N   UNL     1       1.424  10.097  19.307  0.00  0.00    +0.000 N 
ATOM     14  H   UNL     1       1.487   9.830  20.280  0.00  0.00    +0.000 HD
BRANCH  13  15
ATOM     15  C   UNL     1       0.997  11.413  19.043  0.00  0.00    +0.000 A 
ATOM     16  C   UNL     1       1.861  12.510  18.966  0.00  0.00    +0.000 A 
ATOM     17  C   UNL     1       1.357  13.795  18.739  0.00  0.00    +0.000 A 
ATOM     18  C   UNL     1      -0.009  13.980  18.577  0.00  0.00    +0.000 A 
ATOM     19  F   UNL     1      -0.492  15.213  18.382  0.00  0.00    +0.000 F 
ATOM     20  C   UNL     1      -0.881  12.900  18.615  0.00  0.00    +0.000 A 
ATOM     21  C   UNL     1      -0.376  11.615  18.840  0.00  0.00    +0.000 A 
ENDBRANCH  13  15
ENDBRANCH   1  12
BRANCH   2  22
ATOM     22  N   UNL     1       0.696   8.012  21.060  0.00  0.00    +0.000 N 
ATOM     23  C   UNL     1       1.098   8.896  22.064  0.00  0.00    +0.000 C 
ATOM     24  O   UNL     1       2.258   9.286  22.210  0.00  0.00    +0.000 OA
ATOM     25  H   UNL     1      -0.258   8.095  20.723  0.00  0.00    +0.000 HD
BRANCH  23  26
ATOM     26  C   UNL     1      -0.092   9.431  22.884  0.00  0.00    +0.000 C 
ATOM     27  F   UNL     1      -1.210   8.669  22.705  0.00  0.00    +0.000 F 
ATOM     28  F   UNL     1       0.162   9.383  24.228  0.00  0.00    +0.000 F 
ATOM     29 CL   UNL     1      -0.437  11.103  22.420  0.00  0.00    +0.000 Cl
ENDBRANCH  23  26
ENDBRANCH   2  22
TORSDOF 4
ENDMDL
