MODEL 1
REMARK VINA RESULT:      -7.8      0.000      0.000
REMARK  Name = 
REMARK  5 active torsions:
REMARK  status: ('A' for Active; 'I' for Inactive)
REMARK    1  A    between atoms: C_1  and  C_2
REMARK    2  A    between atoms: C_2  and  C_18
REMARK    3  A    between atoms: N_3  and  N_4
REMARK    4  A    between atoms: C_5  and  C_7
REMARK    5  A    between atoms: C_10  and  N_11
REMARK                            x       y       z     vdW  Elec       q    Type
REMARK                         _______ _______ _______ _____ _____    ______ ____
ROOT
ATOM      1  N   UNL     1       2.552   7.529  18.642  0.00  0.00    +0.000 N 
ATOM      2  C   UNL     1       3.210   6.320  18.813  0.00  0.00    +0.000 C 
ATOM      3  O   UNL     1       3.256   5.682  19.858  0.00  0.00    +0.000 OA
ATOM      4  H   UNL     1       2.611   8.025  17.769  0.00  0.00    +0.000 HD
ENDROOT
BRANCH   2   5
ATOM      5  C   UNL     1       3.953   5.809  17.624  0.00  0.00    +0.000 A 
ATOM      6  C   UNL     1       4.526   6.749  16.761  0.00  0.00    +0.000 A 
ATOM      7  C   UNL     1       5.217   6.341  15.616  0.00  0.00    +0.000 A 
ATOM      8  C   UNL     1       5.351   4.979  15.316  0.00  0.00    +0.000 A 
ATOM      9  C   UNL     1       4.787   4.035  16.189  0.00  0.00    +0.000 A 
ATOM     10  C   UNL     1       4.101   4.447  17.341  0.00  0.00    +0.000 A 
BRANCH   8  11
ATOM     11  N   UNL     1       6.066   4.564  14.150  0.00  0.00    +0.000 N 
ATOM     12  C   UNL     1       5.661   3.620  13.223  0.00  0.00    +0.000 A 
ATOM     13  C   UNL     1       6.600   3.528  12.220  0.00  0.00    +0.000 A 
ATOM     14  C   UNL     1       7.638   4.420  12.542  0.00  0.00    +0.000 A 
ATOM     15  C   UNL     1       7.294   5.037  13.725  0.00  0.00    +0.000 A 
ENDBRANCH   8  11
ENDBRANCH   2   5
BRANCH   1  18
ATOM     16  C   UNL     1       0.815   9.802  18.244  0.00  0.00    +0.000 C 
ATOM     17  C   UNL     1       1.125   9.112  19.560  0.00  0.00    +0.000 C 
ATOM     18  N   UNL     1       1.915   8.089  19.705  0.00  0.00    +0.000 NA
BRANCH  17  19
ATOM     19  C   UNL     1       0.446   9.661  20.788  0.00  0.00    +0.000 A 
ATOM     20  C   UNL     1       0.003  10.990  20.840  0.00  0.00    +0.000 A 
ATOM     21  C   UNL     1      -0.632  11.484  21.981  0.00  0.00    +0.000 A 
ATOM     22  C   UNL     1      -0.833  10.656  23.081  0.00  0.00    +0.000 A 
ATOM     23  C   UNL     1      -0.397   9.333  23.045  0.00  0.00    +0.000 A 
ATOM     24  C   UNL     1       0.241   8.835  21.903  0.00  0.00    +0.000 A 
ENDBRANCH  17  19
ENDBRANCH   1  18
TORSDOF 4
ENDMDL
MODEL 2
REMARK VINA RESULT:      -7.8      0.185      1.006
REMARK  Name = 
REMARK  5 active torsions:
REMARK  status: ('A' for Active; 'I' for Inactive)
REMARK    1  A    between atoms: C_1  and  C_2
REMARK    2  A    between atoms: C_2  and  C_18
REMARK    3  A    between atoms: N_3  and  N_4
REMARK    4  A    between atoms: C_5  and  C_7
REMARK    5  A    between atoms: C_10  and  N_11
REMARK                            x       y       z     vdW  Elec       q    Type
REMARK                         _______ _______ _______ _____ _____    ______ ____
ROOT
ATOM      1  N   UNL     1       2.385   7.421  18.699  0.00  0.00    +0.000 N 
ATOM      2  C   UNL     1       3.215   6.330  18.912  0.00  0.00    +0.000 C 
ATOM      3  O   UNL     1       3.420   5.799  19.997  0.00  0.00    +0.000 OA
ATOM      4  H   UNL     1       2.315   7.841  17.787  0.00  0.00    +0.000 HD
ENDROOT
BRANCH   2   5
ATOM      5  C   UNL     1       3.938   5.818  17.711  0.00  0.00    +0.000 A 
ATOM      6  C   UNL     1       4.599   6.749  16.904  0.00  0.00    +0.000 A 
ATOM      7  C   UNL     1       5.278   6.341  15.751  0.00  0.00    +0.000 A 
ATOM      8  C   UNL     1       5.311   4.989  15.388  0.00  0.00    +0.000 A 
ATOM      9  C   UNL     1       4.658   4.053  16.205  0.00  0.00    +0.000 A 
ATOM     10  C   UNL     1       3.984   4.463  17.365  0.00  0.00    +0.000 A 
BRANCH   8  11
ATOM     11  N   UNL     1       6.014   4.574  14.215  0.00  0.00    +0.000 N 
ATOM     12  C   UNL     1       5.571   3.676  13.259  0.00  0.00    +0.000 A 
ATOM     13  C   UNL     1       6.512   3.567  12.259  0.00  0.00    +0.000 A 
ATOM     14  C   UNL     1       7.588   4.401  12.612  0.00  0.00    +0.000 A 
ATOM     15  C   UNL     1       7.266   5.000  13.810  0.00  0.00    +0.000 A 
ENDBRANCH   8  11
ENDBRANCH   2   5
BRANCH   1  18
ATOM     16  C   UNL     1       0.964   9.915  18.371  0.00  0.00    +0.000 C 
ATOM     17  C   UNL     1       1.101   9.105  19.647  0.00  0.00    +0.000 C 
ATOM     18  N   UNL     1       1.751   7.985  19.762  0.00  0.00    +0.000 NA
BRANCH  17  19
ATOM     19  C   UNL     1       0.413   9.652  20.871  0.00  0.00    +0.000 A 
ATOM     20  C   UNL     1       0.466   8.975  22.097  0.00  0.00    +0.000 A 
ATOM     21  C   UNL     1      -0.169   9.496  23.226  0.00  0.00    +0.000 A 
ATOM     22  C   UNL     1      -0.863  10.700  23.143  0.00  0.00    +0.000 A 
ATOM     23  C   UNL     1      -0.925  11.384  21.930  0.00  0.00    +0.000 A 
ATOM     24  C   UNL     1      -0.291  10.863  20.796  0.00  0.00    +0.000 A 
ENDBRANCH  17  19
ENDBRANCH   1  18
TORSDOF 4
ENDMDL
MODEL 3
REMARK VINA RESULT:      -7.6      0.254      1.421
REMARK  Name = 
REMARK  5 active torsions:
REMARK  status: ('A' for Active; 'I' for Inactive)
REMARK    1  A    between atoms: C_1  and  C_2
REMARK    2  A    between atoms: C_2  and  C_18
REMARK    3  A    between atoms: N_3  and  N_4
REMARK    4  A    between atoms: C_5  and  C_7
REMARK    5  A    between atoms: C_10  and  N_11
REMARK                            x       y       z     vdW  Elec       q    Type
REMARK                         _______ _______ _______ _____ _____    ______ ____
ROOT
ATOM      1  N   UNL     1       2.441   7.545  18.577  0.00  0.00    +0.000 N 
ATOM      2  C   UNL     1       3.265   6.438  18.722  0.00  0.00    +0.000 C 
ATOM      3  O   UNL     1       3.466   5.839  19.772  0.00  0.00    +0.000 OA
ATOM      4  H   UNL     1       2.375   8.021  17.693  0.00  0.00    +0.000 HD
ENDROOT
BRANCH   2   5
ATOM      5  C   UNL     1       3.988   5.999  17.492  0.00  0.00    +0.000 A 
ATOM      6  C   UNL     1       4.030   4.628  17.217  0.00  0.00    +0.000 A 
ATOM      7  C   UNL     1       4.708   4.145  16.094  0.00  0.00    +0.000 A 
ATOM      8  C   UNL     1       5.355   5.030  15.221  0.00  0.00    +0.000 A 
ATOM      9  C   UNL     1       5.301   6.406  15.489  0.00  0.00    +0.000 A 
ATOM     10  C   UNL     1       4.613   6.889  16.613  0.00  0.00    +0.000 A 
BRANCH   8  11
ATOM     11  N   UNL     1       6.039   4.534  14.068  0.00  0.00    +0.000 N 
ATOM     12  C   UNL     1       5.590   3.559  13.194  0.00  0.00    +0.000 A 
ATOM     13  C   UNL     1       6.511   3.386  12.185  0.00  0.00    +0.000 A 
ATOM     14  C   UNL     1       7.583   4.258  12.449  0.00  0.00    +0.000 A 
ATOM     15  C   UNL     1       7.276   4.944  13.605  0.00  0.00    +0.000 A 
ENDBRANCH   8  11
ENDBRANCH   2   5
BRANCH   1  18
ATOM     16  C   UNL     1       1.014  10.050  18.397  0.00  0.00    +0.000 C 
ATOM     17  C   UNL     1       1.156   9.168  19.624  0.00  0.00    +0.000 C 
ATOM     18  N   UNL     1       1.808   8.044  19.672  0.00  0.00    +0.000 NA
BRANCH  17  19
ATOM     19  C   UNL     1       0.469   9.641  20.880  0.00  0.00    +0.000 A 
ATOM     20  C   UNL     1       0.653   8.978  22.101  0.00  0.00    +0.000 A 
ATOM     21  C   UNL     1       0.017   9.430  23.259  0.00  0.00    +0.000 A 
ATOM     22  C   UNL     1      -0.807  10.551  23.209  0.00  0.00    +0.000 A 
ATOM     23  C   UNL     1      -1.000  11.220  22.002  0.00  0.00    +0.000 A 
ATOM     24  C   UNL     1      -0.366  10.767  20.839  0.00  0.00    +0.000 A 
ENDBRANCH  17  19
ENDBRANCH   1  18
TORSDOF 4
ENDMDL
MODEL 4
REMARK VINA RESULT:      -7.6      0.218      1.029
REMARK  Name = 
REMARK  5 active torsions:
REMARK  status: ('A' for Active; 'I' for Inactive)
REMARK    1  A    between atoms: C_1  and  C_2
REMARK    2  A    between atoms: C_2  and  C_18
REMARK    3  A    between atoms: N_3  and  N_4
REMARK    4  A    between atoms: C_5  and  C_7
REMARK    5  A    between atoms: C_10  and  N_11
REMARK                            x       y       z     vdW  Elec       q    Type
REMARK                         _______ _______ _______ _____ _____    ______ ____
ROOT
ATOM      1  N   UNL     1       2.446   7.600  18.594  0.00  0.00    +0.000 N 
ATOM      2  C   UNL     1       3.273   6.496  18.747  0.00  0.00    +0.000 C 
ATOM      3  O   UNL     1       3.481   5.910  19.803  0.00  0.00    +0.000 OA
ATOM      4  H   UNL     1       2.373   8.065  17.706  0.00  0.00    +0.000 HD
ENDROOT
BRANCH   2   5
ATOM      5  C   UNL     1       3.988   6.042  17.518  0.00  0.00    +0.000 A 
ATOM      6  C   UNL     1       4.050   4.667  17.272  0.00  0.00    +0.000 A 
ATOM      7  C   UNL     1       4.723   4.172  16.151  0.00  0.00    +0.000 A 
ATOM      8  C   UNL     1       5.343   5.048  15.251  0.00  0.00    +0.000 A 
ATOM      9  C   UNL     1       5.269   6.429  15.491  0.00  0.00    +0.000 A 
ATOM     10  C   UNL     1       4.587   6.925  16.612  0.00  0.00    +0.000 A 
BRANCH   8  11
ATOM     11  N   UNL     1       6.022   4.540  14.100  0.00  0.00    +0.000 N 
ATOM     12  C   UNL     1       5.547   3.592  13.211  0.00  0.00    +0.000 A 
ATOM     13  C   UNL     1       6.472   3.395  12.210  0.00  0.00    +0.000 A 
ATOM     14  C   UNL     1       7.572   4.224  12.496  0.00  0.00    +0.000 A 
ATOM     15  C   UNL     1       7.278   4.908  13.655  0.00  0.00    +0.000 A 
ENDBRANCH   8  11
ENDBRANCH   2   5
BRANCH   1  18
ATOM     16  C   UNL     1       0.877  10.013  18.356  0.00  0.00    +0.000 C 
ATOM     17  C   UNL     1       1.105   9.195  19.614  0.00  0.00    +0.000 C 
ATOM     18  N   UNL     1       1.820   8.111  19.688  0.00  0.00    +0.000 NA
BRANCH  17  19
ATOM     19  C   UNL     1       0.431   9.684  20.870  0.00  0.00    +0.000 A 
ATOM     20  C   UNL     1      -0.301  10.880  20.883  0.00  0.00    +0.000 A 
ATOM     21  C   UNL     1      -0.927  11.318  22.051  0.00  0.00    +0.000 A 
ATOM     22  C   UNL     1      -0.830  10.566  23.219  0.00  0.00    +0.000 A 
ATOM     23  C   UNL     1      -0.105   9.376  23.222  0.00  0.00    +0.000 A 
ATOM     24  C   UNL     1       0.525   8.935  22.052  0.00  0.00    +0.000 A 
ENDBRANCH  17  19
ENDBRANCH   1  18
TORSDOF 4
ENDMDL
MODEL 5
REMARK VINA RESULT:      -7.2      2.431      4.366
REMARK  Name = 
REMARK  5 active torsions:
REMARK  status: ('A' for Active; 'I' for Inactive)
REMARK    1  A    between atoms: C_1  and  C_2
REMARK    2  A    between atoms: C_2  and  C_18
REMARK    3  A    between atoms: N_3  and  N_4
REMARK    4  A    between atoms: C_5  and  C_7
REMARK    5  A    between atoms: C_10  and  N_11
REMARK                            x       y       z     vdW  Elec       q    Type
REMARK                         _______ _______ _______ _____ _____    ______ ____
ROOT
ATOM      1  N   UNL     1       0.852  10.291  21.189  0.00  0.00    +0.000 N 
ATOM      2  C   UNL     1       0.539   8.947  21.049  0.00  0.00    +0.000 C 
ATOM      3  O   UNL     1      -0.372   8.370  21.631  0.00  0.00    +0.000 OA
ATOM      4  H   UNL     1       1.655  10.681  20.724  0.00  0.00    +0.000 HD
ENDROOT
BRANCH   2   5
ATOM      5  C   UNL     1       1.432   8.160  20.150  0.00  0.00    +0.000 A 
ATOM      6  C   UNL     1       1.802   8.739  18.931  0.00  0.00    +0.000 A 
ATOM      7  C   UNL     1       2.619   8.049  18.031  0.00  0.00    +0.000 A 
ATOM      8  C   UNL     1       3.086   6.764  18.337  0.00  0.00    +0.000 A 
ATOM      9  C   UNL     1       2.726   6.188  19.566  0.00  0.00    +0.000 A 
ATOM     10  C   UNL     1       1.912   6.886  20.472  0.00  0.00    +0.000 A 
BRANCH   8  11
ATOM     11  N   UNL     1       3.929   6.065  17.419  0.00  0.00    +0.000 N 
ATOM     12  C   UNL     1       4.824   6.626  16.526  0.00  0.00    +0.000 A 
ATOM     13  C   UNL     1       5.482   5.626  15.844  0.00  0.00    +0.000 A 
ATOM     14  C   UNL     1       4.963   4.402  16.304  0.00  0.00    +0.000 A 
ATOM     15  C   UNL     1       4.014   4.694  17.259  0.00  0.00    +0.000 A 
ENDBRANCH   8  11
ENDBRANCH   2   5
BRANCH   1  18
ATOM     16  C   UNL     1      -1.241  12.006  20.176  0.00  0.00    +0.000 C 
ATOM     17  C   UNL     1      -0.826  11.833  21.626  0.00  0.00    +0.000 C 
ATOM     18  N   UNL     1       0.124  11.052  22.049  0.00  0.00    +0.000 NA
BRANCH  17  19
ATOM     19  C   UNL     1      -1.595  12.630  22.648  0.00  0.00    +0.000 A 
ATOM     20  C   UNL     1      -2.855  12.211  23.096  0.00  0.00    +0.000 A 
ATOM     21  C   UNL     1      -3.554  12.953  24.050  0.00  0.00    +0.000 A 
ATOM     22  C   UNL     1      -3.001  14.121  24.568  0.00  0.00    +0.000 A 
ATOM     23  C   UNL     1      -1.749  14.550  24.131  0.00  0.00    +0.000 A 
ATOM     24  C   UNL     1      -1.046  13.809  23.174  0.00  0.00    +0.000 A 
ENDBRANCH  17  19
ENDBRANCH   1  18
TORSDOF 4
ENDMDL
MODEL 6
REMARK VINA RESULT:      -7.2      2.513      4.476
REMARK  Name = 
REMARK  5 active torsions:
REMARK  status: ('A' for Active; 'I' for Inactive)
REMARK    1  A    between atoms: C_1  and  C_2
REMARK    2  A    between atoms: C_2  and  C_18
REMARK    3  A    between atoms: N_3  and  N_4
REMARK    4  A    between atoms: C_5  and  C_7
REMARK    5  A    between atoms: C_10  and  N_11
REMARK                            x       y       z     vdW  Elec       q    Type
REMARK                         _______ _______ _______ _____ _____    ______ ____
ROOT
ATOM      1  N   UNL     1       0.702  10.505  21.072  0.00  0.00    +0.000 N 
ATOM      2  C   UNL     1       0.513   9.131  21.029  0.00  0.00    +0.000 C 
ATOM      3  O   UNL     1      -0.264   8.502  21.736  0.00  0.00    +0.000 OA
ATOM      4  H   UNL     1       1.405  10.943  20.501  0.00  0.00    +0.000 HD
ENDROOT
BRANCH   2   5
ATOM      5  C   UNL     1       1.377   8.385  20.067  0.00  0.00    +0.000 A 
ATOM      6  C   UNL     1       1.833   7.120  20.449  0.00  0.00    +0.000 A 
ATOM      7  C   UNL     1       2.664   6.375  19.606  0.00  0.00    +0.000 A 
ATOM      8  C   UNL     1       3.050   6.885  18.359  0.00  0.00    +0.000 A 
ATOM      9  C   UNL     1       2.581   8.149  17.970  0.00  0.00    +0.000 A 
ATOM     10  C   UNL     1       1.741   8.891  18.814  0.00  0.00    +0.000 A 
BRANCH   8  11
ATOM     11  N   UNL     1       3.891   6.117  17.495  0.00  0.00    +0.000 N 
ATOM     12  C   UNL     1       3.914   4.739  17.373  0.00  0.00    +0.000 A 
ATOM     13  C   UNL     1       4.829   4.378  16.408  0.00  0.00    +0.000 A 
ATOM     14  C   UNL     1       5.417   5.563  15.932  0.00  0.00    +0.000 A 
ATOM     15  C   UNL     1       4.834   6.610  16.612  0.00  0.00    +0.000 A 
ENDBRANCH   8  11
ENDBRANCH   2   5
BRANCH   1  18
ATOM     16  C   UNL     1      -1.659  11.945  20.236  0.00  0.00    +0.000 C 
ATOM     17  C   UNL     1      -1.067  11.897  21.633  0.00  0.00    +0.000 C 
ATOM     18  N   UNL     1       0.000  11.239  21.976  0.00  0.00    +0.000 NA
BRANCH  17  19
ATOM     19  C   UNL     1      -1.795  12.672  22.701  0.00  0.00    +0.000 A 
ATOM     20  C   UNL     1      -1.228  13.813  23.284  0.00  0.00    +0.000 A 
ATOM     21  C   UNL     1      -1.915  14.527  24.267  0.00  0.00    +0.000 A 
ATOM     22  C   UNL     1      -3.178  14.108  24.678  0.00  0.00    +0.000 A 
ATOM     23  C   UNL     1      -3.755  12.975  24.108  0.00  0.00    +0.000 A 
ATOM     24  C   UNL     1      -3.067  12.257  23.123  0.00  0.00    +0.000 A 
ENDBRANCH  17  19
ENDBRANCH   1  18
TORSDOF 4
ENDMDL
MODEL 7
REMARK VINA RESULT:      -7.1      2.639      4.764
REMARK  Name = 
REMARK  5 active torsions:
REMARK  status: ('A' for Active; 'I' for Inactive)
REMARK    1  A    between atoms: C_1  and  C_2
REMARK    2  A    between atoms: C_2  and  C_18
REMARK    3  A    between atoms: N_3  and  N_4
REMARK    4  A    between atoms: C_5  and  C_7
REMARK    5  A    between atoms: C_10  and  N_11
REMARK                            x       y       z     vdW  Elec       q    Type
REMARK                         _______ _______ _______ _____ _____    ______ ____
ROOT
ATOM      1  N   UNL     1       0.778  10.840  20.876  0.00  0.00    +0.000 N 
ATOM      2  C   UNL     1       0.296  10.105  19.803  0.00  0.00    +0.000 C 
ATOM      3  O   UNL     1      -0.832  10.198  19.333  0.00  0.00    +0.000 OA
ATOM      4  H   UNL     1       1.697  10.664  21.245  0.00  0.00    +0.000 HD
ENDROOT
BRANCH   2   5
ATOM      5  C   UNL     1       1.234   9.096  19.231  0.00  0.00    +0.000 A 
ATOM      6  C   UNL     1       1.576   7.999  20.029  0.00  0.00    +0.000 A 
ATOM      7  C   UNL     1       2.467   7.027  19.564  0.00  0.00    +0.000 A 
ATOM      8  C   UNL     1       3.030   7.134  18.286  0.00  0.00    +0.000 A 
ATOM      9  C   UNL     1       2.677   8.227  17.480  0.00  0.00    +0.000 A 
ATOM     10  C   UNL     1       1.777   9.197  17.945  0.00  0.00    +0.000 A 
BRANCH   8  11
ATOM     11  N   UNL     1       3.933   6.133  17.810  0.00  0.00    +0.000 N 
ATOM     12  C   UNL     1       4.100   4.858  18.321  0.00  0.00    +0.000 A 
ATOM     13  C   UNL     1       5.031   4.178  17.567  0.00  0.00    +0.000 A 
ATOM     14  C   UNL     1       5.482   5.063  16.571  0.00  0.00    +0.000 A 
ATOM     15  C   UNL     1       4.804   6.250  16.741  0.00  0.00    +0.000 A 
ENDBRANCH   8  11
ENDBRANCH   2   5
BRANCH   1  18
ATOM     16  C   UNL     1      -0.749  10.017  23.186  0.00  0.00    +0.000 C 
ATOM     17  C   UNL     1      -0.748  11.388  22.535  0.00  0.00    +0.000 C 
ATOM     18  N   UNL     1      -0.048  11.727  21.493  0.00  0.00    +0.000 NA
BRANCH  17  19
ATOM     19  C   UNL     1      -1.626  12.437  23.168  0.00  0.00    +0.000 A 
ATOM     20  C   UNL     1      -1.151  13.734  23.407  0.00  0.00    +0.000 A 
ATOM     21  C   UNL     1      -1.977  14.699  23.986  0.00  0.00    +0.000 A 
ATOM     22  C   UNL     1      -3.287  14.379  24.331  0.00  0.00    +0.000 A 
ATOM     23  C   UNL     1      -3.773  13.094  24.101  0.00  0.00    +0.000 A 
ATOM     24  C   UNL     1      -2.947  12.124  23.522  0.00  0.00    +0.000 A 
ENDBRANCH  17  19
ENDBRANCH   1  18
TORSDOF 4
ENDMDL
MODEL 8
REMARK VINA RESULT:      -7.1      2.529     10.394
REMARK  Name = 
REMARK  5 active torsions:
REMARK  status: ('A' for Active; 'I' for Inactive)
REMARK    1  A    between atoms: C_1  and  C_2
REMARK    2  A    between atoms: C_2  and  C_18
REMARK    3  A    between atoms: N_3  and  N_4
REMARK    4  A    between atoms: C_5  and  C_7
REMARK    5  A    between atoms: C_10  and  N_11
REMARK                            x       y       z     vdW  Elec       q    Type
REMARK                         _______ _______ _______ _____ _____    ______ ____
ROOT
ATOM      1  N   UNL     1       1.596   8.563  19.700  0.00  0.00    +0.000 N 
ATOM      2  C   UNL     1       0.696   9.504  19.220  0.00  0.00    +0.000 C 
ATOM      3  O   UNL     1       0.515   9.770  18.038  0.00  0.00    +0.000 OA
ATOM      4  H   UNL     1       1.733   8.444  20.689  0.00  0.00    +0.000 HD
ENDROOT
BRANCH   2   5
ATOM      5  C   UNL     1      -0.058  10.271  20.256  0.00  0.00    +0.000 A 
ATOM      6  C   UNL     1      -0.766  11.402  19.840  0.00  0.00    +0.000 A 
ATOM      7  C   UNL     1      -1.477  12.179  20.761  0.00  0.00    +0.000 A 
ATOM      8  C   UNL     1      -1.493  11.832  22.118  0.00  0.00    +0.000 A 
ATOM      9  C   UNL     1      -0.792  10.689  22.533  0.00  0.00    +0.000 A 
ATOM     10  C   UNL     1      -0.087   9.907  21.606  0.00  0.00    +0.000 A 
BRANCH   8  11
ATOM     11  N   UNL     1      -2.228  12.623  23.055  0.00  0.00    +0.000 N 
ATOM     12  C   UNL     1      -3.413  12.277  23.679  0.00  0.00    +0.000 A 
ATOM     13  C   UNL     1      -3.788  13.281  24.545  0.00  0.00    +0.000 A 
ATOM     14  C   UNL     1      -2.823  14.299  24.439  0.00  0.00    +0.000 A 
ATOM     15  C   UNL     1      -1.885  13.879  23.521  0.00  0.00    +0.000 A 
ENDBRANCH   8  11
ENDBRANCH   2   5
BRANCH   1  18
ATOM     16  C   UNL     1       2.149   5.761  20.136  0.00  0.00    +0.000 C 
ATOM     17  C   UNL     1       2.635   6.617  18.981  0.00  0.00    +0.000 C 
ATOM     18  N   UNL     1       2.369   7.879  18.814  0.00  0.00    +0.000 NA
BRANCH  17  19
ATOM     19  C   UNL     1       3.486   5.931  17.943  0.00  0.00    +0.000 A 
ATOM     20  C   UNL     1       4.355   6.660  17.120  0.00  0.00    +0.000 A 
ATOM     21  C   UNL     1       5.144   6.012  16.168  0.00  0.00    +0.000 A 
ATOM     22  C   UNL     1       5.075   4.629  16.029  0.00  0.00    +0.000 A 
ATOM     23  C   UNL     1       4.215   3.891  16.840  0.00  0.00    +0.000 A 
ATOM     24  C   UNL     1       3.421   4.538  17.794  0.00  0.00    +0.000 A 
ENDBRANCH  17  19
ENDBRANCH   1  18
TORSDOF 4
ENDMDL
MODEL 9
REMARK VINA RESULT:      -7.1      2.518      4.581
REMARK  Name = 
REMARK  5 active torsions:
REMARK  status: ('A' for Active; 'I' for Inactive)
REMARK    1  A    between atoms: C_1  and  C_2
REMARK    2  A    between atoms: C_2  and  C_18
REMARK    3  A    between atoms: N_3  and  N_4
REMARK    4  A    between atoms: C_5  and  C_7
REMARK    5  A    between atoms: C_10  and  N_11
REMARK                            x       y       z     vdW  Elec       q    Type
REMARK                         _______ _______ _______ _____ _____    ______ ____
ROOT
ATOM      1  N   UNL     1       0.729  10.554  21.041  0.00  0.00    +0.000 N 
ATOM      2  C   UNL     1       0.528   9.182  20.995  0.00  0.00    +0.000 C 
ATOM      3  O   UNL     1      -0.255   8.558  21.702  0.00  0.00    +0.000 OA
ATOM      4  H   UNL     1       1.436  10.987  20.470  0.00  0.00    +0.000 HD
ENDROOT
BRANCH   2   5
ATOM      5  C   UNL     1       1.384   8.430  20.031  0.00  0.00    +0.000 A 
ATOM      6  C   UNL     1       1.863   7.177  20.427  0.00  0.00    +0.000 A 
ATOM      7  C   UNL     1       2.688   6.428  19.582  0.00  0.00    +0.000 A 
ATOM      8  C   UNL     1       3.045   6.921  18.320  0.00  0.00    +0.000 A 
ATOM      9  C   UNL     1       2.553   8.172  17.917  0.00  0.00    +0.000 A 
ATOM     10  C   UNL     1       1.719   8.918  18.763  0.00  0.00    +0.000 A 
BRANCH   8  11
ATOM     11  N   UNL     1       3.881   6.149  17.454  0.00  0.00    +0.000 N 
ATOM     12  C   UNL     1       4.829   6.634  16.570  0.00  0.00    +0.000 A 
ATOM     13  C   UNL     1       5.457   5.580  15.945  0.00  0.00    +0.000 A 
ATOM     14  C   UNL     1       4.866   4.399  16.431  0.00  0.00    +0.000 A 
ATOM     15  C   UNL     1       3.904   4.770  17.345  0.00  0.00    +0.000 A 
ENDBRANCH   8  11
ENDBRANCH   2   5
BRANCH   1  18
ATOM     16  C   UNL     1      -1.639  11.988  20.218  0.00  0.00    +0.000 C 
ATOM     17  C   UNL     1      -1.036  11.948  21.610  0.00  0.00    +0.000 C 
ATOM     18  N   UNL     1       0.035  11.292  21.948  0.00  0.00    +0.000 NA
BRANCH  17  19
ATOM     19  C   UNL     1      -1.754  12.728  22.681  0.00  0.00    +0.000 A 
ATOM     20  C   UNL     1      -3.013  12.327  23.150  0.00  0.00    +0.000 A 
ATOM     21  C   UNL     1      -3.665  13.053  24.148  0.00  0.00    +0.000 A 
ATOM     22  C   UNL     1      -3.066  14.187  24.690  0.00  0.00    +0.000 A 
ATOM     23  C   UNL     1      -1.815  14.598  24.234  0.00  0.00    +0.000 A 
ATOM     24  C   UNL     1      -1.160  13.873  23.232  0.00  0.00    +0.000 A 
ENDBRANCH  17  19
ENDBRANCH   1  18
TORSDOF 4
ENDMDL
