MODEL 1
REMARK VINA RESULT:      -7.6      0.000      0.000
REMARK  Name = 
REMARK  4 active torsions:
REMARK  status: ('A' for Active; 'I' for Inactive)
REMARK    1  A    between atoms: C_1  and  C_2
REMARK    2  A    between atoms: C_2  and  N_3
REMARK    3  A    between atoms: N_14  and  C_15
REMARK    4  A    between atoms: C_18  and  C_19
REMARK                            x       y       z     vdW  Elec       q    Type
REMARK                         _______ _______ _______ _____ _____    ______ ____
ROOT
ATOM      1  N   UNL     1       2.186  13.259  17.642  0.00  0.00    +0.000 N 
ATOM      2  C   UNL     1       2.097  12.118  18.403  0.00  0.00    +0.000 C 
ATOM      3  O   UNL     1       2.166  12.131  19.627  0.00  0.00    +0.000 OA
ATOM      4  N   UNL     1       1.980  10.985  17.625  0.00  0.00    +0.000 N 
ATOM      5  C   UNL     1       1.968   9.716  18.220  0.00  0.00    +0.000 A 
ATOM      6  C   UNL     1       1.136   9.439  19.293  0.00  0.00    +0.000 A 
ATOM      7  C   UNL     1       1.255   8.199  19.912  0.00  0.00    +0.000 A 
ATOM      8  C   UNL     1       2.202   7.295  19.477  0.00  0.00    +0.000 A 
ATOM      9  N   UNL     1       2.375   6.139  20.157  0.00  0.00    +0.000 NA
ATOM     10  C   UNL     1       3.357   5.338  19.692  0.00  0.00    +0.000 A 
ATOM     11  C   UNL     1       4.106   5.629  18.556  0.00  0.00    +0.000 A 
ATOM     12  N   UNL     1       5.139   4.750  18.143  0.00  0.00    +0.000 N 
ATOM     13  N   UNL     1       3.898   6.795  17.899  0.00  0.00    +0.000 NA
ATOM     14  C   UNL     1       2.970   7.643  18.342  0.00  0.00    +0.000 A 
ATOM     15  N   UNL     1       2.814   8.813  17.700  0.00  0.00    +0.000 NA
ATOM     16  H   UNL     1       1.769  13.235  16.722  0.00  0.00    +0.000 HD
ATOM     17  H   UNL     1       2.538  11.007  16.782  0.00  0.00    +0.000 HD
ATOM     18  H   UNL     1       4.999   3.811  18.501  0.00  0.00    +0.000 HD
ENDROOT
BRANCH  12  19
ATOM     19  C   UNL     1       5.606   4.655  16.807  0.00  0.00    +0.000 A 
ATOM     20  C   UNL     1       6.915   5.042  16.506  0.00  0.00    +0.000 A 
ATOM     21  C   UNL     1       7.398   4.958  15.193  0.00  0.00    +0.000 A 
ATOM     22  C   UNL     1       6.588   4.454  14.170  0.00  0.00    +0.000 A 
ATOM     23  C   UNL     1       7.053   4.411  12.747  0.00  0.00    +0.000 C 
ATOM     24  C   UNL     1       5.302   4.004  14.483  0.00  0.00    +0.000 A 
ATOM     25  C   UNL     1       4.825   4.095  15.789  0.00  0.00    +0.000 A 
ENDBRANCH  12  19
BRANCH   1  27
ATOM     26  C   UNL     1       3.664  15.244  17.710  0.00  0.00    +0.000 C 
ATOM     27  C   UNL     1       2.430  14.549  18.258  0.00  0.00    +0.000 C 
ENDBRANCH   1  27
TORSDOF 2
ENDMDL
MODEL 2
REMARK VINA RESULT:      -7.3      2.103      3.464
REMARK  Name = 
REMARK  4 active torsions:
REMARK  status: ('A' for Active; 'I' for Inactive)
REMARK    1  A    between atoms: C_1  and  C_2
REMARK    2  A    between atoms: C_2  and  N_3
REMARK    3  A    between atoms: N_14  and  C_15
REMARK    4  A    between atoms: C_18  and  C_19
REMARK                            x       y       z     vdW  Elec       q    Type
REMARK                         _______ _______ _______ _____ _____    ______ ____
ROOT
ATOM      1  N   UNL     1       3.154  14.584  17.353  0.00  0.00    +0.000 N 
ATOM      2  C   UNL     1       2.439  13.860  18.279  0.00  0.00    +0.000 C 
ATOM      3  O   UNL     1       2.248  14.255  19.424  0.00  0.00    +0.000 OA
ATOM      4  N   UNL     1       2.029  12.642  17.778  0.00  0.00    +0.000 N 
ATOM      5  C   UNL     1       1.365  11.725  18.605  0.00  0.00    +0.000 A 
ATOM      6  C   UNL     1       0.288  12.116  19.384  0.00  0.00    +0.000 A 
ATOM      7  C   UNL     1      -0.253  11.188  20.266  0.00  0.00    +0.000 A 
ATOM      8  C   UNL     1       0.300   9.930  20.376  0.00  0.00    +0.000 A 
ATOM      9  N   UNL     1      -0.171   9.078  21.314  0.00  0.00    +0.000 NA
ATOM     10  C   UNL     1       0.463   7.888  21.384  0.00  0.00    +0.000 A 
ATOM     11  C   UNL     1       1.486   7.516  20.517  0.00  0.00    +0.000 A 
ATOM     12  N   UNL     1       2.121   6.258  20.668  0.00  0.00    +0.000 N 
ATOM     13  N   UNL     1       1.925   8.396  19.586  0.00  0.00    +0.000 NA
ATOM     14  C   UNL     1       1.364   9.602  19.503  0.00  0.00    +0.000 A 
ATOM     15  N   UNL     1       1.848  10.472  18.601  0.00  0.00    +0.000 NA
ATOM     16  H   UNL     1       2.969  14.398  16.378  0.00  0.00    +0.000 HD
ATOM     17  H   UNL     1       2.709  12.195  17.179  0.00  0.00    +0.000 HD
ATOM     18  H   UNL     1       1.531   5.596  21.161  0.00  0.00    +0.000 HD
ENDROOT
BRANCH  12  19
ATOM     19  C   UNL     1       2.777   5.574  19.612  0.00  0.00    +0.000 A 
ATOM     20  C   UNL     1       2.016   4.944  18.622  0.00  0.00    +0.000 A 
ATOM     21  C   UNL     1       2.642   4.262  17.570  0.00  0.00    +0.000 A 
ATOM     22  C   UNL     1       4.038   4.228  17.477  0.00  0.00    +0.000 A 
ATOM     23  C   UNL     1       4.736   3.454  16.401  0.00  0.00    +0.000 C 
ATOM     24  C   UNL     1       4.797   4.914  18.429  0.00  0.00    +0.000 A 
ATOM     25  C   UNL     1       4.170   5.587  19.476  0.00  0.00    +0.000 A 
ENDBRANCH  12  19
BRANCH   1  27
ATOM     26  C   UNL     1       2.935  17.050  17.330  0.00  0.00    +0.000 C 
ATOM     27  C   UNL     1       3.775  15.844  17.712  0.00  0.00    +0.000 C 
ENDBRANCH   1  27
TORSDOF 2
ENDMDL
MODEL 3
REMARK VINA RESULT:      -7.2      0.832      1.391
REMARK  Name = 
REMARK  4 active torsions:
REMARK  status: ('A' for Active; 'I' for Inactive)
REMARK    1  A    between atoms: C_1  and  C_2
REMARK    2  A    between atoms: C_2  and  N_3
REMARK    3  A    between atoms: N_14  and  C_15
REMARK    4  A    between atoms: C_18  and  C_19
REMARK                            x       y       z     vdW  Elec       q    Type
REMARK                         _______ _______ _______ _____ _____    ______ ____
ROOT
ATOM      1  N   UNL     1       1.471  12.927  18.093  0.00  0.00    +0.000 N 
ATOM      2  C   UNL     1       1.468  11.791  18.868  0.00  0.00    +0.000 C 
ATOM      3  O   UNL     1       1.541  11.823  20.092  0.00  0.00    +0.000 OA
ATOM      4  N   UNL     1       1.429  10.644  18.103  0.00  0.00    +0.000 N 
ATOM      5  C   UNL     1       1.510   9.385  18.713  0.00  0.00    +0.000 A 
ATOM      6  C   UNL     1       0.705   9.060  19.793  0.00  0.00    +0.000 A 
ATOM      7  C   UNL     1       0.915   7.840  20.424  0.00  0.00    +0.000 A 
ATOM      8  C   UNL     1       1.923   7.001  19.995  0.00  0.00    +0.000 A 
ATOM      9  N   UNL     1       2.182   5.868  20.686  0.00  0.00    +0.000 NA
ATOM     10  C   UNL     1       3.216   5.134  20.225  0.00  0.00    +0.000 A 
ATOM     11  C   UNL     1       3.937   5.465  19.082  0.00  0.00    +0.000 A 
ATOM     12  N   UNL     1       5.029   4.658  18.673  0.00  0.00    +0.000 N 
ATOM     13  N   UNL     1       3.643   6.606  18.414  0.00  0.00    +0.000 NA
ATOM     14  C   UNL     1       2.659   7.390  18.852  0.00  0.00    +0.000 A 
ATOM     15  N   UNL     1       2.417   8.538  18.197  0.00  0.00    +0.000 NA
ATOM     16  H   UNL     1       1.053  12.863  17.176  0.00  0.00    +0.000 HD
ATOM     17  H   UNL     1       1.980  10.696  17.257  0.00  0.00    +0.000 HD
ATOM     18  H   UNL     1       4.958   3.715  19.043  0.00  0.00    +0.000 HD
ENDROOT
BRANCH  12  19
ATOM     19  C   UNL     1       5.496   4.581  17.336  0.00  0.00    +0.000 A 
ATOM     20  C   UNL     1       4.658   4.066  16.343  0.00  0.00    +0.000 A 
ATOM     21  C   UNL     1       5.098   3.980  15.015  0.00  0.00    +0.000 A 
ATOM     22  C   UNL     1       6.371   4.439  14.658  0.00  0.00    +0.000 A 
ATOM     23  C   UNL     1       6.893   4.301  13.261  0.00  0.00    +0.000 C 
ATOM     24  C   UNL     1       7.182   5.016  15.639  0.00  0.00    +0.000 A 
ATOM     25  C   UNL     1       6.742   5.095  16.958  0.00  0.00    +0.000 A 
ENDBRANCH  12  19
BRANCH   1  27
ATOM     26  C   UNL     1       0.303  14.963  18.881  0.00  0.00    +0.000 C 
ATOM     27  C   UNL     1       1.625  14.238  18.695  0.00  0.00    +0.000 C 
ENDBRANCH   1  27
TORSDOF 2
ENDMDL
MODEL 4
REMARK VINA RESULT:      -7.0      1.455      1.612
REMARK  Name = 
REMARK  4 active torsions:
REMARK  status: ('A' for Active; 'I' for Inactive)
REMARK    1  A    between atoms: C_1  and  C_2
REMARK    2  A    between atoms: C_2  and  N_3
REMARK    3  A    between atoms: N_14  and  C_15
REMARK    4  A    between atoms: C_18  and  C_19
REMARK                            x       y       z     vdW  Elec       q    Type
REMARK                         _______ _______ _______ _____ _____    ______ ____
ROOT
ATOM      1  N   UNL     1       1.263  12.646  19.431  0.00  0.00    +0.000 N 
ATOM      2  C   UNL     1       1.212  11.419  20.052  0.00  0.00    +0.000 C 
ATOM      3  O   UNL     1       1.216  11.293  21.271  0.00  0.00    +0.000 OA
ATOM      4  N   UNL     1       1.215  10.381  19.144  0.00  0.00    +0.000 N 
ATOM      5  C   UNL     1       1.258   9.053  19.589  0.00  0.00    +0.000 A 
ATOM      6  C   UNL     1       0.392   8.600  20.572  0.00  0.00    +0.000 A 
ATOM      7  C   UNL     1       0.563   7.306  21.051  0.00  0.00    +0.000 A 
ATOM      8  C   UNL     1       1.591   6.520  20.575  0.00  0.00    +0.000 A 
ATOM      9  N   UNL     1       1.808   5.305  21.127  0.00  0.00    +0.000 NA
ATOM     10  C   UNL     1       2.865   4.627  20.635  0.00  0.00    +0.000 A 
ATOM     11  C   UNL     1       3.651   5.095  19.586  0.00  0.00    +0.000 A 
ATOM     12  N   UNL     1       4.762   4.337  19.139  0.00  0.00    +0.000 N 
ATOM     13  N   UNL     1       3.398   6.315  19.055  0.00  0.00    +0.000 NA
ATOM     14  C   UNL     1       2.392   7.046  19.534  0.00  0.00    +0.000 A 
ATOM     15  N   UNL     1       2.191   8.271  19.021  0.00  0.00    +0.000 NA
ATOM     16  H   UNL     1       0.897  12.704  18.491  0.00  0.00    +0.000 HD
ATOM     17  H   UNL     1       1.813  10.536  18.344  0.00  0.00    +0.000 HD
ATOM     18  H   UNL     1       4.668   3.355  19.379  0.00  0.00    +0.000 HD
ENDROOT
BRANCH  12  19
ATOM     19  C   UNL     1       5.305   4.428  17.831  0.00  0.00    +0.000 A 
ATOM     20  C   UNL     1       6.652   4.762  17.666  0.00  0.00    +0.000 A 
ATOM     21  C   UNL     1       7.209   4.858  16.384  0.00  0.00    +0.000 A 
ATOM     22  C   UNL     1       6.434   4.591  15.251  0.00  0.00    +0.000 A 
ATOM     23  C   UNL     1       6.984   4.749  13.867  0.00  0.00    +0.000 C 
ATOM     24  C   UNL     1       5.105   4.193  15.419  0.00  0.00    +0.000 A 
ATOM     25  C   UNL     1       4.554   4.102  16.695  0.00  0.00    +0.000 A 
ENDBRANCH  12  19
BRANCH   1  27
ATOM     26  C   UNL     1       2.828  14.269  20.453  0.00  0.00    +0.000 C 
ATOM     27  C   UNL     1       1.385  13.866  20.204  0.00  0.00    +0.000 C 
ENDBRANCH   1  27
TORSDOF 2
ENDMDL
MODEL 5
REMARK VINA RESULT:      -7.0      1.526      2.514
REMARK  Name = 
REMARK  4 active torsions:
REMARK  status: ('A' for Active; 'I' for Inactive)
REMARK    1  A    between atoms: C_1  and  C_2
REMARK    2  A    between atoms: C_2  and  N_3
REMARK    3  A    between atoms: N_14  and  C_15
REMARK    4  A    between atoms: C_18  and  C_19
REMARK                            x       y       z     vdW  Elec       q    Type
REMARK                         _______ _______ _______ _____ _____    ______ ____
ROOT
ATOM      1  N   UNL     1       2.786  14.253  17.609  0.00  0.00    +0.000 N 
ATOM      2  C   UNL     1       2.222  13.347  18.477  0.00  0.00    +0.000 C 
ATOM      3  O   UNL     1       2.028  13.596  19.661  0.00  0.00    +0.000 OA
ATOM      4  N   UNL     1       1.964  12.138  17.865  0.00  0.00    +0.000 N 
ATOM      5  C   UNL     1       1.472  11.059  18.612  0.00  0.00    +0.000 A 
ATOM      6  C   UNL     1       0.386  11.212  19.459  0.00  0.00    +0.000 A 
ATOM      7  C   UNL     1       0.019  10.135  20.258  0.00  0.00    +0.000 A 
ATOM      8  C   UNL     1       0.747   8.964  20.220  0.00  0.00    +0.000 A 
ATOM      9  N   UNL     1       0.442   7.966  21.079  0.00  0.00    +0.000 NA
ATOM     10  C   UNL     1       1.238   6.878  21.007  0.00  0.00    +0.000 A 
ATOM     11  C   UNL     1       2.264   6.744  20.076  0.00  0.00    +0.000 A 
ATOM     12  N   UNL     1       3.075   5.581  20.077  0.00  0.00    +0.000 N 
ATOM     13  N   UNL     1       2.534   7.764  19.228  0.00  0.00    +0.000 NA
ATOM     14  C   UNL     1       1.807   8.879  19.287  0.00  0.00    +0.000 A 
ATOM     15  N   UNL     1       2.124   9.894  18.465  0.00  0.00    +0.000 NA
ATOM     16  H   UNL     1       2.586  14.138  16.626  0.00  0.00    +0.000 HD
ATOM     17  H   UNL     1       2.673  11.853  17.203  0.00  0.00    +0.000 HD
ATOM     18  H   UNL     1       2.605   4.796  20.518  0.00  0.00    +0.000 HD
ENDROOT
BRANCH  12  19
ATOM     19  C   UNL     1       3.772   5.105  18.937  0.00  0.00    +0.000 A 
ATOM     20  C   UNL     1       3.077   4.405  17.947  0.00  0.00    +0.000 A 
ATOM     21  C   UNL     1       3.745   3.924  16.813  0.00  0.00    +0.000 A 
ATOM     22  C   UNL     1       5.112   4.166  16.639  0.00  0.00    +0.000 A 
ATOM     23  C   UNL     1       5.866   3.610  15.470  0.00  0.00    +0.000 C 
ATOM     24  C   UNL     1       5.793   4.923  17.596  0.00  0.00    +0.000 A 
ATOM     25  C   UNL     1       5.125   5.395  18.724  0.00  0.00    +0.000 A 
ENDBRANCH  12  19
BRANCH   1  27
ATOM     26  C   UNL     1       3.077  16.644  17.040  0.00  0.00    +0.000 C 
ATOM     27  C   UNL     1       3.241  15.548  18.077  0.00  0.00    +0.000 C 
ENDBRANCH   1  27
TORSDOF 2
ENDMDL
MODEL 6
REMARK VINA RESULT:      -6.8      1.129      1.442
REMARK  Name = 
REMARK  4 active torsions:
REMARK  status: ('A' for Active; 'I' for Inactive)
REMARK    1  A    between atoms: C_1  and  C_2
REMARK    2  A    between atoms: C_2  and  N_3
REMARK    3  A    between atoms: N_14  and  C_15
REMARK    4  A    between atoms: C_18  and  C_19
REMARK                            x       y       z     vdW  Elec       q    Type
REMARK                         _______ _______ _______ _____ _____    ______ ____
ROOT
ATOM      1  N   UNL     1       2.516  13.937  17.713  0.00  0.00    +0.000 N 
ATOM      2  C   UNL     1       2.136  12.912  18.548  0.00  0.00    +0.000 C 
ATOM      3  O   UNL     1       2.066  13.041  19.765  0.00  0.00    +0.000 OA
ATOM      4  N   UNL     1       1.906  11.741  17.856  0.00  0.00    +0.000 N 
ATOM      5  C   UNL     1       1.598  10.561  18.547  0.00  0.00    +0.000 A 
ATOM      6  C   UNL     1       0.613  10.541  19.521  0.00  0.00    +0.000 A 
ATOM      7  C   UNL     1       0.434   9.370  20.249  0.00  0.00    +0.000 A 
ATOM      8  C   UNL     1       1.246   8.279  20.017  0.00  0.00    +0.000 A 
ATOM      9  N   UNL     1       1.129   7.187  20.806  0.00  0.00    +0.000 NA
ATOM     10  C   UNL     1       1.997   6.188  20.540  0.00  0.00    +0.000 A 
ATOM     11  C   UNL     1       2.911   6.229  19.492  0.00  0.00    +0.000 A 
ATOM     12  N   UNL     1       3.809   5.150  19.290  0.00  0.00    +0.000 N 
ATOM     13  N   UNL     1       2.993   7.339  18.720  0.00  0.00    +0.000 NA
ATOM     14  C   UNL     1       2.189   8.373  18.967  0.00  0.00    +0.000 A 
ATOM     15  N   UNL     1       2.321   9.479  18.216  0.00  0.00    +0.000 NA
ATOM     16  H   UNL     1       2.209  13.889  16.752  0.00  0.00    +0.000 HD
ATOM     17  H   UNL     1       2.551  11.581  17.094  0.00  0.00    +0.000 HD
ATOM     18  H   UNL     1       3.462   4.291  19.703  0.00  0.00    +0.000 HD
ENDROOT
BRANCH  12  19
ATOM     19  C   UNL     1       4.400   4.840  18.039  0.00  0.00    +0.000 A 
ATOM     20  C   UNL     1       5.466   5.613  17.570  0.00  0.00    +0.000 A 
ATOM     21  C   UNL     1       6.066   5.326  16.337  0.00  0.00    +0.000 A 
ATOM     22  C   UNL     1       5.629   4.240  15.571  0.00  0.00    +0.000 A 
ATOM     23  C   UNL     1       6.206   3.946  14.221  0.00  0.00    +0.000 C 
ATOM     24  C   UNL     1       4.608   3.426  16.071  0.00  0.00    +0.000 A 
ATOM     25  C   UNL     1       4.011   3.719  17.295  0.00  0.00    +0.000 A 
ENDBRANCH  12  19
BRANCH   1  27
ATOM     26  C   UNL     1       4.420  15.431  18.232  0.00  0.00    +0.000 C 
ATOM     27  C   UNL     1       2.916  15.224  18.249  0.00  0.00    +0.000 C 
ENDBRANCH   1  27
TORSDOF 2
ENDMDL
MODEL 7
REMARK VINA RESULT:      -6.7      1.186      1.548
REMARK  Name = 
REMARK  4 active torsions:
REMARK  status: ('A' for Active; 'I' for Inactive)
REMARK    1  A    between atoms: C_1  and  C_2
REMARK    2  A    between atoms: C_2  and  N_3
REMARK    3  A    between atoms: N_14  and  C_15
REMARK    4  A    between atoms: C_18  and  C_19
REMARK                            x       y       z     vdW  Elec       q    Type
REMARK                         _______ _______ _______ _____ _____    ______ ____
ROOT
ATOM      1  N   UNL     1       2.620  14.098  17.689  0.00  0.00    +0.000 N 
ATOM      2  C   UNL     1       2.267  13.044  18.500  0.00  0.00    +0.000 C 
ATOM      3  O   UNL     1       2.249  13.127  19.723  0.00  0.00    +0.000 OA
ATOM      4  N   UNL     1       1.999  11.903  17.774  0.00  0.00    +0.000 N 
ATOM      5  C   UNL     1       1.709  10.699  18.432  0.00  0.00    +0.000 A 
ATOM      6  C   UNL     1       0.765  10.648  19.445  0.00  0.00    +0.000 A 
ATOM      7  C   UNL     1       0.608   9.451  20.135  0.00  0.00    +0.000 A 
ATOM      8  C   UNL     1       1.400   8.365  19.829  0.00  0.00    +0.000 A 
ATOM      9  N   UNL     1       1.307   7.244  20.580  0.00  0.00    +0.000 NA
ATOM     10  C   UNL     1       2.155   6.250  20.241  0.00  0.00    +0.000 A 
ATOM     11  C   UNL     1       3.025   6.325  19.157  0.00  0.00    +0.000 A 
ATOM     12  N   UNL     1       3.904   5.249  18.878  0.00  0.00    +0.000 N 
ATOM     13  N   UNL     1       3.084   7.463  18.425  0.00  0.00    +0.000 NA
ATOM     14  C   UNL     1       2.299   8.492  18.744  0.00  0.00    +0.000 A 
ATOM     15  N   UNL     1       2.409   9.625  18.031  0.00  0.00    +0.000 NA
ATOM     16  H   UNL     1       2.273  14.089  16.741  0.00  0.00    +0.000 HD
ATOM     17  H   UNL     1       2.610  11.767  16.981  0.00  0.00    +0.000 HD
ATOM     18  H   UNL     1       3.567   4.376  19.272  0.00  0.00    +0.000 HD
ENDROOT
BRANCH  12  19
ATOM     19  C   UNL     1       4.441   4.982  17.592  0.00  0.00    +0.000 A 
ATOM     20  C   UNL     1       4.401   3.680  17.085  0.00  0.00    +0.000 A 
ATOM     21  C   UNL     1       4.926   3.393  15.818  0.00  0.00    +0.000 A 
ATOM     22  C   UNL     1       5.468   4.411  15.027  0.00  0.00    +0.000 A 
ATOM     23  C   UNL     1       6.094   4.125  13.697  0.00  0.00    +0.000 C 
ATOM     24  C   UNL     1       5.447   5.724  15.506  0.00  0.00    +0.000 A 
ATOM     25  C   UNL     1       4.928   6.004  16.768  0.00  0.00    +0.000 A 
ENDBRANCH  12  19
BRANCH   1  27
ATOM     26  C   UNL     1       4.511  15.671  17.966  0.00  0.00    +0.000 C 
ATOM     27  C   UNL     1       3.053  15.361  18.256  0.00  0.00    +0.000 C 
ENDBRANCH   1  27
TORSDOF 2
ENDMDL
MODEL 8
REMARK VINA RESULT:      -6.7      2.064      2.634
REMARK  Name = 
REMARK  4 active torsions:
REMARK  status: ('A' for Active; 'I' for Inactive)
REMARK    1  A    between atoms: C_1  and  C_2
REMARK    2  A    between atoms: C_2  and  N_3
REMARK    3  A    between atoms: N_14  and  C_15
REMARK    4  A    between atoms: C_18  and  C_19
REMARK                            x       y       z     vdW  Elec       q    Type
REMARK                         _______ _______ _______ _____ _____    ______ ____
ROOT
ATOM      1  N   UNL     1       0.999  11.105  19.922  0.00  0.00    +0.000 N 
ATOM      2  C   UNL     1       1.257   9.831  20.370  0.00  0.00    +0.000 C 
ATOM      3  O   UNL     1       1.432   9.568  21.555  0.00  0.00    +0.000 OA
ATOM      4  N   UNL     1       1.345   8.927  19.332  0.00  0.00    +0.000 N 
ATOM      5  C   UNL     1       1.692   7.592  19.585  0.00  0.00    +0.000 A 
ATOM      6  C   UNL     1       1.052   6.863  20.575  0.00  0.00    +0.000 A 
ATOM      7  C   UNL     1       1.521   5.584  20.853  0.00  0.00    +0.000 A 
ATOM      8  C   UNL     1       2.614   5.083  20.177  0.00  0.00    +0.000 A 
ATOM      9  N   UNL     1       3.121   3.881  20.535  0.00  0.00    +0.000 NA
ATOM     10  C   UNL     1       4.219   3.493  19.854  0.00  0.00    +0.000 A 
ATOM     11  C   UNL     1       4.770   4.229  18.809  0.00  0.00    +0.000 A 
ATOM     12  N   UNL     1       5.942   3.768  18.158  0.00  0.00    +0.000 N 
ATOM     13  N   UNL     1       4.229   5.425  18.477  0.00  0.00    +0.000 NA
ATOM     14  C   UNL     1       3.169   5.877  19.147  0.00  0.00    +0.000 A 
ATOM     15  N   UNL     1       2.679   7.086  18.828  0.00  0.00    +0.000 NA
ATOM     16  H   UNL     1       0.518  11.197  19.039  0.00  0.00    +0.000 HD
ATOM     17  H   UNL     1       1.802   9.291  18.508  0.00  0.00    +0.000 HD
ATOM     18  H   UNL     1       6.064   2.767  18.269  0.00  0.00    +0.000 HD
ENDROOT
BRANCH  12  19
ATOM     19  C   UNL     1       6.295   4.118  16.829  0.00  0.00    +0.000 A 
ATOM     20  C   UNL     1       5.562   3.592  15.760  0.00  0.00    +0.000 A 
ATOM     21  C   UNL     1       5.893   3.924  14.440  0.00  0.00    +0.000 A 
ATOM     22  C   UNL     1       6.941   4.811  14.172  0.00  0.00    +0.000 A 
ATOM     23  C   UNL     1       7.359   5.134  12.770  0.00  0.00    +0.000 C 
ATOM     24  C   UNL     1       7.629   5.389  15.242  0.00  0.00    +0.000 A 
ATOM     25  C   UNL     1       7.300   5.053  16.553  0.00  0.00    +0.000 A 
ENDBRANCH  12  19
BRANCH   1  27
ATOM     26  C   UNL     1      -0.421  12.725  21.142  0.00  0.00    +0.000 C 
ATOM     27  C   UNL     1       0.982  12.228  20.840  0.00  0.00    +0.000 C 
ENDBRANCH   1  27
TORSDOF 2
ENDMDL
MODEL 9
REMARK VINA RESULT:      -6.6      1.431      1.689
REMARK  Name = 
REMARK  4 active torsions:
REMARK  status: ('A' for Active; 'I' for Inactive)
REMARK    1  A    between atoms: C_1  and  C_2
REMARK    2  A    between atoms: C_2  and  N_3
REMARK    3  A    between atoms: N_14  and  C_15
REMARK    4  A    between atoms: C_18  and  C_19
REMARK                            x       y       z     vdW  Elec       q    Type
REMARK                         _______ _______ _______ _____ _____    ______ ____
ROOT
ATOM      1  N   UNL     1       0.947  11.683  18.058  0.00  0.00    +0.000 N 
ATOM      2  C   UNL     1       1.322  10.565  18.766  0.00  0.00    +0.000 C 
ATOM      3  O   UNL     1       1.614  10.603  19.956  0.00  0.00    +0.000 OA
ATOM      4  N   UNL     1       1.377   9.442  17.968  0.00  0.00    +0.000 N 
ATOM      5  C   UNL     1       1.828   8.224  18.493  0.00  0.00    +0.000 A 
ATOM      6  C   UNL     1       1.324   7.729  19.685  0.00  0.00    +0.000 A 
ATOM      7  C   UNL     1       1.894   6.575  20.210  0.00  0.00    +0.000 A 
ATOM      8  C   UNL     1       2.954   5.971  19.567  0.00  0.00    +0.000 A 
ATOM      9  N   UNL     1       3.565   4.912  20.146  0.00  0.00    +0.000 NA
ATOM     10  C   UNL     1       4.624   4.417  19.472  0.00  0.00    +0.000 A 
ATOM     11  C   UNL     1       5.035   4.901  18.234  0.00  0.00    +0.000 A 
ATOM     12  N   UNL     1       6.173   4.345  17.597  0.00  0.00    +0.000 N 
ATOM     13  N   UNL     1       4.393   5.959  17.683  0.00  0.00    +0.000 NA
ATOM     14  C   UNL     1       3.368   6.515  18.329  0.00  0.00    +0.000 A 
ATOM     15  N   UNL     1       2.777   7.591  17.783  0.00  0.00    +0.000 NA
ATOM     16  H   UNL     1       0.387  11.539  17.229  0.00  0.00    +0.000 HD
ATOM     17  H   UNL     1       1.738   9.616  17.040  0.00  0.00    +0.000 HD
ATOM     18  H   UNL     1       6.368   3.406  17.929  0.00  0.00    +0.000 HD
ENDROOT
BRANCH  12  19
ATOM     19  C   UNL     1       6.388   4.379  16.195  0.00  0.00    +0.000 A 
ATOM     20  C   UNL     1       7.392   5.198  15.671  0.00  0.00    +0.000 A 
ATOM     21  C   UNL     1       7.622   5.248  14.290  0.00  0.00    +0.000 A 
ATOM     22  C   UNL     1       6.871   4.454  13.417  0.00  0.00    +0.000 A 
ATOM     23  C   UNL     1       7.049   4.533  11.931  0.00  0.00    +0.000 C 
ATOM     24  C   UNL     1       5.912   3.585  13.946  0.00  0.00    +0.000 A 
ATOM     25  C   UNL     1       5.684   3.543  15.319  0.00  0.00    +0.000 A 
ENDBRANCH  12  19
BRANCH   1  27
ATOM     26  C   UNL     1      -0.460  13.569  18.827  0.00  0.00    +0.000 C 
ATOM     27  C   UNL     1       0.937  12.992  18.682  0.00  0.00    +0.000 C 
ENDBRANCH   1  27
TORSDOF 2
ENDMDL
