MODEL 1
REMARK VINA RESULT:      -7.9      0.000      0.000
REMARK  Name = 
REMARK  11 active torsions:
REMARK  status: ('A' for Active; 'I' for Inactive)
REMARK    1  A    between atoms: C_1  and  O_2
REMARK    2  A    between atoms: O_2  and  C_3
REMARK    3  A    between atoms: C_3  and  C_4
REMARK    4  A    between atoms: C_4  and  N_5
REMARK    5  A    between atoms: N_5  and  C_6
REMARK    6  A    between atoms: C_8  and  C_9
REMARK    7  A    between atoms: C_12  and  C_13
REMARK    8  A    between atoms: C_13  and  C_14
REMARK    9  A    between atoms: N_22  and  C_23
REMARK   10  A    between atoms: C_23  and  C_24
REMARK   11  A    between atoms: C_23  and  C_25
REMARK                            x       y       z     vdW  Elec       q    Type
REMARK                         _______ _______ _______ _____ _____    ______ ____
ROOT
ATOM      1  C   UNL     1       6.897   5.575  16.071  0.00  0.00    +0.000 A 
ATOM      2  N   UNL     1       5.958   5.056  16.913  0.00  0.00    +0.000 NA
ATOM      3  C   UNL     1       5.127   4.095  16.451  0.00  0.00    +0.000 A 
ATOM      4  N   UNL     1       5.088   3.566  15.215  0.00  0.00    +0.000 NA
ATOM      5  C   UNL     1       6.020   4.096  14.421  0.00  0.00    +0.000 A 
ATOM      6  C   UNL     1       6.939   5.076  14.750  0.00  0.00    +0.000 A 
ATOM      7  N   UNL     1       7.747   5.358  13.667  0.00  0.00    +0.000 NA
ATOM      8  C   UNL     1       7.314   4.568  12.705  0.00  0.00    +0.000 A 
ATOM      9  N   UNL     1       6.267   3.781  13.114  0.00  0.00    +0.000 N 
ENDROOT
BRANCH   3  10
ATOM     10  C   UNL     1       4.140   3.573  17.397  0.00  0.00    +0.000 A 
ATOM     11  C   UNL     1       3.610   2.303  17.512  0.00  0.00    +0.000 A 
ATOM     12  C   UNL     1       2.705   2.182  18.615  0.00  0.00    +0.000 A 
ATOM     13  C   UNL     1       2.541   3.371  19.301  0.00  0.00    +0.000 A 
ATOM     14  S   UNL     1       3.474   4.616  18.586  0.00  0.00    +0.000 S 
BRANCH  13  15
ATOM     15  C   UNL     1       1.742   3.709  20.475  0.00  0.00    +0.000 C 
ATOM     16  C   UNL     1       1.689   2.731  21.621  0.00  0.00    +0.000 C 
ATOM     17  O   UNL     1       1.098   4.757  20.584  0.00  0.00    +0.000 OA
ENDBRANCH  13  15
ENDBRANCH   3  10
BRANCH   9  18
ATOM     18  C   UNL     1       5.570   2.787  12.307  0.00  0.00    +0.000 C 
ATOM     19  C   UNL     1       4.397   3.389  11.530  0.00  0.00    +0.000 C 
ATOM     20  C   UNL     1       6.513   2.026  11.373  0.00  0.00    +0.000 C 
ENDBRANCH   9  18
BRANCH   1  21
ATOM     21  N   UNL     1       7.755   6.586  16.506  0.00  0.00    +0.000 N 
ATOM     22  H   UNL     1       8.731   6.296  16.417  0.00  0.00    +0.000 HD
BRANCH  21  23
ATOM     23  C   UNL     1       7.458   7.219  17.788  0.00  0.00    +0.000 C 
BRANCH  23  24
ATOM     24  C   UNL     1       7.825   8.708  17.777  0.00  0.00    +0.000 C 
BRANCH  24  26
ATOM     25  C   UNL     1       9.193  10.324  18.823  0.00  0.00    +0.000 C 
ATOM     26  O   UNL     1       8.759   8.972  18.833  0.00  0.00    +0.000 OA
ENDBRANCH  24  26
ENDBRANCH  23  24
ENDBRANCH  21  23
ENDBRANCH   1  21
TORSDOF 7
ENDMDL
MODEL 2
REMARK VINA RESULT:      -7.4      1.041      1.087
REMARK  Name = 
REMARK  11 active torsions:
REMARK  status: ('A' for Active; 'I' for Inactive)
REMARK    1  A    between atoms: C_1  and  O_2
REMARK    2  A    between atoms: O_2  and  C_3
REMARK    3  A    between atoms: C_3  and  C_4
REMARK    4  A    between atoms: C_4  and  N_5
REMARK    5  A    between atoms: N_5  and  C_6
REMARK    6  A    between atoms: C_8  and  C_9
REMARK    7  A    between atoms: C_12  and  C_13
REMARK    8  A    between atoms: C_13  and  C_14
REMARK    9  A    between atoms: N_22  and  C_23
REMARK   10  A    between atoms: C_23  and  C_24
REMARK   11  A    between atoms: C_23  and  C_25
REMARK                            x       y       z     vdW  Elec       q    Type
REMARK                         _______ _______ _______ _____ _____    ______ ____
ROOT
ATOM      1  C   UNL     1       7.059   5.727  16.101  0.00  0.00    +0.000 A 
ATOM      2  N   UNL     1       6.200   5.160  16.996  0.00  0.00    +0.000 NA
ATOM      3  C   UNL     1       5.406   4.146  16.585  0.00  0.00    +0.000 A 
ATOM      4  N   UNL     1       5.334   3.603  15.357  0.00  0.00    +0.000 NA
ATOM      5  C   UNL     1       6.188   4.182  14.510  0.00  0.00    +0.000 A 
ATOM      6  C   UNL     1       7.061   5.219  14.783  0.00  0.00    +0.000 A 
ATOM      7  N   UNL     1       7.791   5.540  13.655  0.00  0.00    +0.000 NA
ATOM      8  C   UNL     1       7.356   4.715  12.723  0.00  0.00    +0.000 A 
ATOM      9  N   UNL     1       6.383   3.870  13.193  0.00  0.00    +0.000 N 
ENDROOT
BRANCH   3  10
ATOM     10  C   UNL     1       4.506   3.573  17.587  0.00  0.00    +0.000 A 
ATOM     11  C   UNL     1       4.791   3.026  18.823  0.00  0.00    +0.000 A 
ATOM     12  C   UNL     1       3.613   2.624  19.531  0.00  0.00    +0.000 A 
ATOM     13  C   UNL     1       2.456   2.847  18.807  0.00  0.00    +0.000 A 
ATOM     14  S   UNL     1       2.820   3.523  17.277  0.00  0.00    +0.000 S 
BRANCH  13  15
ATOM     15  C   UNL     1       1.052   2.609  19.130  0.00  0.00    +0.000 C 
ATOM     16  C   UNL     1       0.539   3.027  20.485  0.00  0.00    +0.000 C 
ATOM     17  O   UNL     1       0.253   2.079  18.352  0.00  0.00    +0.000 OA
ENDBRANCH  13  15
ENDBRANCH   3  10
BRANCH   9  18
ATOM     18  C   UNL     1       5.707   2.828  12.432  0.00  0.00    +0.000 C 
ATOM     19  C   UNL     1       4.482   3.358  11.683  0.00  0.00    +0.000 C 
ATOM     20  C   UNL     1       6.652   2.089  11.482  0.00  0.00    +0.000 C 
ENDBRANCH   9  18
BRANCH   1  21
ATOM     21  N   UNL     1       7.875   6.794  16.482  0.00  0.00    +0.000 N 
ATOM     22  H   UNL     1       8.861   6.564  16.340  0.00  0.00    +0.000 HD
BRANCH  21  23
ATOM     23  C   UNL     1       7.610   7.418  17.776  0.00  0.00    +0.000 C 
BRANCH  23  24
ATOM     24  C   UNL     1       8.073   8.880  17.798  0.00  0.00    +0.000 C 
BRANCH  24  26
ATOM     25  C   UNL     1       9.252  10.456  19.104  0.00  0.00    +0.000 C 
ATOM     26  O   UNL     1       8.947   9.081  18.917  0.00  0.00    +0.000 OA
ENDBRANCH  24  26
ENDBRANCH  23  24
ENDBRANCH  21  23
ENDBRANCH   1  21
TORSDOF 7
ENDMDL
MODEL 3
REMARK VINA RESULT:      -7.4      4.210      6.083
REMARK  Name = 
REMARK  11 active torsions:
REMARK  status: ('A' for Active; 'I' for Inactive)
REMARK    1  A    between atoms: C_1  and  O_2
REMARK    2  A    between atoms: O_2  and  C_3
REMARK    3  A    between atoms: C_3  and  C_4
REMARK    4  A    between atoms: C_4  and  N_5
REMARK    5  A    between atoms: N_5  and  C_6
REMARK    6  A    between atoms: C_8  and  C_9
REMARK    7  A    between atoms: C_12  and  C_13
REMARK    8  A    between atoms: C_13  and  C_14
REMARK    9  A    between atoms: N_22  and  C_23
REMARK   10  A    between atoms: C_23  and  C_24
REMARK   11  A    between atoms: C_23  and  C_25
REMARK                            x       y       z     vdW  Elec       q    Type
REMARK                         _______ _______ _______ _____ _____    ______ ____
ROOT
ATOM      1  C   UNL     1       4.524   6.335  17.108  0.00  0.00    +0.000 A 
ATOM      2  N   UNL     1       3.835   7.448  17.491  0.00  0.00    +0.000 NA
ATOM      3  C   UNL     1       2.762   7.304  18.300  0.00  0.00    +0.000 A 
ATOM      4  N   UNL     1       2.248   6.162  18.790  0.00  0.00    +0.000 NA
ATOM      5  C   UNL     1       2.947   5.096  18.395  0.00  0.00    +0.000 A 
ATOM      6  C   UNL     1       4.064   5.085  17.578  0.00  0.00    +0.000 A 
ATOM      7  N   UNL     1       4.516   3.793  17.402  0.00  0.00    +0.000 NA
ATOM      8  C   UNL     1       3.680   3.043  18.094  0.00  0.00    +0.000 A 
ATOM      9  N   UNL     1       2.711   3.788  18.716  0.00  0.00    +0.000 N 
ENDROOT
BRANCH   3  10
ATOM     10  C   UNL     1       2.061   8.531  18.682  0.00  0.00    +0.000 A 
ATOM     11  C   UNL     1       1.794   9.665  17.940  0.00  0.00    +0.000 A 
ATOM     12  C   UNL     1       1.027  10.630  18.667  0.00  0.00    +0.000 A 
ATOM     13  C   UNL     1       0.750  10.224  19.960  0.00  0.00    +0.000 A 
ATOM     14  S   UNL     1       1.438   8.689  20.272  0.00  0.00    +0.000 S 
BRANCH  13  15
ATOM     15  C   UNL     1       0.002  10.867  21.036  0.00  0.00    +0.000 C 
ATOM     16  C   UNL     1      -1.284  11.579  20.700  0.00  0.00    +0.000 C 
ATOM     17  O   UNL     1       0.365  10.863  22.217  0.00  0.00    +0.000 OA
ENDBRANCH  13  15
ENDBRANCH   3  10
BRANCH   9  18
ATOM     18  C   UNL     1       1.648   3.276  19.570  0.00  0.00    +0.000 C 
ATOM     19  C   UNL     1       0.786   2.228  18.861  0.00  0.00    +0.000 C 
ATOM     20  C   UNL     1       2.174   2.740  20.903  0.00  0.00    +0.000 C 
ENDBRANCH   9  18
BRANCH   1  21
ATOM     21  N   UNL     1       5.623   6.443  16.253  0.00  0.00    +0.000 N 
ATOM     22  H   UNL     1       5.450   5.945  15.377  0.00  0.00    +0.000 HD
BRANCH  21  23
ATOM     23  C   UNL     1       6.944   6.177  16.815  0.00  0.00    +0.000 C 
BRANCH  23  24
ATOM     24  C   UNL     1       7.524   7.422  17.499  0.00  0.00    +0.000 C 
BRANCH  24  26
ATOM     25  C   UNL     1       7.734   5.759  19.163  0.00  0.00    +0.000 C 
ATOM     26  O   UNL     1       8.178   7.032  18.714  0.00  0.00    +0.000 OA
ENDBRANCH  24  26
ENDBRANCH  23  24
ENDBRANCH  21  23
ENDBRANCH   1  21
TORSDOF 7
ENDMDL
MODEL 4
REMARK VINA RESULT:      -7.3      4.045      6.246
REMARK  Name = 
REMARK  11 active torsions:
REMARK  status: ('A' for Active; 'I' for Inactive)
REMARK    1  A    between atoms: C_1  and  O_2
REMARK    2  A    between atoms: O_2  and  C_3
REMARK    3  A    between atoms: C_3  and  C_4
REMARK    4  A    between atoms: C_4  and  N_5
REMARK    5  A    between atoms: N_5  and  C_6
REMARK    6  A    between atoms: C_8  and  C_9
REMARK    7  A    between atoms: C_12  and  C_13
REMARK    8  A    between atoms: C_13  and  C_14
REMARK    9  A    between atoms: N_22  and  C_23
REMARK   10  A    between atoms: C_23  and  C_24
REMARK   11  A    between atoms: C_23  and  C_25
REMARK                            x       y       z     vdW  Elec       q    Type
REMARK                         _______ _______ _______ _____ _____    ______ ____
ROOT
ATOM      1  C   UNL     1       4.396   5.659  17.199  0.00  0.00    +0.000 A 
ATOM      2  N   UNL     1       3.749   6.801  17.570  0.00  0.00    +0.000 NA
ATOM      3  C   UNL     1       2.778   6.725  18.508  0.00  0.00    +0.000 A 
ATOM      4  N   UNL     1       2.333   5.627  19.144  0.00  0.00    +0.000 NA
ATOM      5  C   UNL     1       2.988   4.532  18.757  0.00  0.00    +0.000 A 
ATOM      6  C   UNL     1       4.002   4.452  17.818  0.00  0.00    +0.000 A 
ATOM      7  N   UNL     1       4.438   3.148  17.695  0.00  0.00    +0.000 NA
ATOM      8  C   UNL     1       3.694   2.459  18.537  0.00  0.00    +0.000 A 
ATOM      9  N   UNL     1       2.799   3.254  19.207  0.00  0.00    +0.000 N 
ENDROOT
BRANCH   3  10
ATOM     10  C   UNL     1       2.119   7.981  18.870  0.00  0.00    +0.000 A 
ATOM     11  C   UNL     1       1.846   9.092  18.097  0.00  0.00    +0.000 A 
ATOM     12  C   UNL     1       1.130  10.101  18.816  0.00  0.00    +0.000 A 
ATOM     13  C   UNL     1       0.896   9.749  20.133  0.00  0.00    +0.000 A 
ATOM     14  S   UNL     1       1.564   8.211  20.477  0.00  0.00    +0.000 S 
BRANCH  13  15
ATOM     15  C   UNL     1       0.205  10.448  21.213  0.00  0.00    +0.000 C 
ATOM     16  C   UNL     1      -0.953  11.350  20.868  0.00  0.00    +0.000 C 
ATOM     17  O   UNL     1       0.518  10.345  22.403  0.00  0.00    +0.000 OA
ENDBRANCH  13  15
ENDBRANCH   3  10
BRANCH   9  18
ATOM     18  C   UNL     1       1.847   2.815  20.218  0.00  0.00    +0.000 C 
ATOM     19  C   UNL     1       2.230   3.293  21.622  0.00  0.00    +0.000 C 
ATOM     20  C   UNL     1       0.408   3.211  19.879  0.00  0.00    +0.000 C 
ENDBRANCH   9  18
BRANCH   1  21
ATOM     21  N   UNL     1       5.385   5.694  16.215  0.00  0.00    +0.000 N 
ATOM     22  H   UNL     1       5.275   4.916  15.562  0.00  0.00    +0.000 HD
BRANCH  21  23
ATOM     23  C   UNL     1       6.765   5.887  16.653  0.00  0.00    +0.000 C 
BRANCH  23  24
ATOM     24  C   UNL     1       7.464   4.547  16.912  0.00  0.00    +0.000 C 
BRANCH  24  26
ATOM     25  C   UNL     1       7.696   5.748  18.932  0.00  0.00    +0.000 C 
ATOM     26  O   UNL     1       7.977   4.533  18.252  0.00  0.00    +0.000 OA
ENDBRANCH  24  26
ENDBRANCH  23  24
ENDBRANCH  21  23
ENDBRANCH   1  21
TORSDOF 7
ENDMDL
MODEL 5
REMARK VINA RESULT:      -7.3      4.060      5.890
REMARK  Name = 
REMARK  11 active torsions:
REMARK  status: ('A' for Active; 'I' for Inactive)
REMARK    1  A    between atoms: C_1  and  O_2
REMARK    2  A    between atoms: O_2  and  C_3
REMARK    3  A    between atoms: C_3  and  C_4
REMARK    4  A    between atoms: C_4  and  N_5
REMARK    5  A    between atoms: N_5  and  C_6
REMARK    6  A    between atoms: C_8  and  C_9
REMARK    7  A    between atoms: C_12  and  C_13
REMARK    8  A    between atoms: C_13  and  C_14
REMARK    9  A    between atoms: N_22  and  C_23
REMARK   10  A    between atoms: C_23  and  C_24
REMARK   11  A    between atoms: C_23  and  C_25
REMARK                            x       y       z     vdW  Elec       q    Type
REMARK                         _______ _______ _______ _____ _____    ______ ____
ROOT
ATOM      1  C   UNL     1       4.574   6.233  17.006  0.00  0.00    +0.000 A 
ATOM      2  N   UNL     1       3.882   7.344  17.386  0.00  0.00    +0.000 NA
ATOM      3  C   UNL     1       2.826   7.203  18.217  0.00  0.00    +0.000 A 
ATOM      4  N   UNL     1       2.333   6.064  18.735  0.00  0.00    +0.000 NA
ATOM      5  C   UNL     1       3.035   4.999  18.344  0.00  0.00    +0.000 A 
ATOM      6  C   UNL     1       4.136   4.986  17.506  0.00  0.00    +0.000 A 
ATOM      7  N   UNL     1       4.597   3.695  17.342  0.00  0.00    +0.000 NA
ATOM      8  C   UNL     1       3.783   2.949  18.062  0.00  0.00    +0.000 A 
ATOM      9  N   UNL     1       2.819   3.694  18.691  0.00  0.00    +0.000 N 
ENDROOT
BRANCH   3  10
ATOM     10  C   UNL     1       2.120   8.429  18.593  0.00  0.00    +0.000 A 
ATOM     11  C   UNL     1       1.960   9.608  17.892  0.00  0.00    +0.000 A 
ATOM     12  C   UNL     1       1.146  10.557  18.590  0.00  0.00    +0.000 A 
ATOM     13  C   UNL     1       0.727  10.092  19.822  0.00  0.00    +0.000 A 
ATOM     14  S   UNL     1       1.340   8.522  20.118  0.00  0.00    +0.000 S 
BRANCH  13  15
ATOM     15  C   UNL     1      -0.112  10.700  20.851  0.00  0.00    +0.000 C 
ATOM     16  C   UNL     1      -0.014  10.183  22.265  0.00  0.00    +0.000 C 
ATOM     17  O   UNL     1      -0.907  11.618  20.630  0.00  0.00    +0.000 OA
ENDBRANCH  13  15
ENDBRANCH   3  10
BRANCH   9  18
ATOM     18  C   UNL     1       1.778   3.186  19.574  0.00  0.00    +0.000 C 
ATOM     19  C   UNL     1       0.887   2.148  18.885  0.00  0.00    +0.000 C 
ATOM     20  C   UNL     1       2.340   2.638  20.888  0.00  0.00    +0.000 C 
ENDBRANCH   9  18
BRANCH   1  21
ATOM     21  N   UNL     1       5.654   6.337  16.128  0.00  0.00    +0.000 N 
ATOM     22  H   UNL     1       5.437   5.895  15.233  0.00  0.00    +0.000 HD
BRANCH  21  23
ATOM     23  C   UNL     1       6.976   5.982  16.639  0.00  0.00    +0.000 C 
BRANCH  23  24
ATOM     24  C   UNL     1       7.430   6.948  17.741  0.00  0.00    +0.000 C 
BRANCH  24  26
ATOM     25  C   UNL     1       8.275   9.121  18.120  0.00  0.00    +0.000 C 
ATOM     26  O   UNL     1       7.842   8.185  17.143  0.00  0.00    +0.000 OA
ENDBRANCH  24  26
ENDBRANCH  23  24
ENDBRANCH  21  23
ENDBRANCH   1  21
TORSDOF 7
ENDMDL
MODEL 6
REMARK VINA RESULT:      -7.3      4.255      6.221
REMARK  Name = 
REMARK  11 active torsions:
REMARK  status: ('A' for Active; 'I' for Inactive)
REMARK    1  A    between atoms: C_1  and  O_2
REMARK    2  A    between atoms: O_2  and  C_3
REMARK    3  A    between atoms: C_3  and  C_4
REMARK    4  A    between atoms: C_4  and  N_5
REMARK    5  A    between atoms: N_5  and  C_6
REMARK    6  A    between atoms: C_8  and  C_9
REMARK    7  A    between atoms: C_12  and  C_13
REMARK    8  A    between atoms: C_13  and  C_14
REMARK    9  A    between atoms: N_22  and  C_23
REMARK   10  A    between atoms: C_23  and  C_24
REMARK   11  A    between atoms: C_23  and  C_25
REMARK                            x       y       z     vdW  Elec       q    Type
REMARK                         _______ _______ _______ _____ _____    ______ ____
ROOT
ATOM      1  C   UNL     1       4.249   6.331  17.344  0.00  0.00    +0.000 A 
ATOM      2  N   UNL     1       3.591   7.421  17.833  0.00  0.00    +0.000 NA
ATOM      3  C   UNL     1       2.538   7.230  18.659  0.00  0.00    +0.000 A 
ATOM      4  N   UNL     1       2.019   6.061  19.074  0.00  0.00    +0.000 NA
ATOM      5  C   UNL     1       2.688   5.019  18.577  0.00  0.00    +0.000 A 
ATOM      6  C   UNL     1       3.781   5.055  17.730  0.00  0.00    +0.000 A 
ATOM      7  N   UNL     1       4.206   3.774  17.441  0.00  0.00    +0.000 NA
ATOM      8  C   UNL     1       3.378   2.985  18.097  0.00  0.00    +0.000 A 
ATOM      9  N   UNL     1       2.439   3.694  18.803  0.00  0.00    +0.000 N 
ENDROOT
BRANCH   3  10
ATOM     10  C   UNL     1       1.870   8.434  19.156  0.00  0.00    +0.000 A 
ATOM     11  C   UNL     1       1.496   9.580  18.482  0.00  0.00    +0.000 A 
ATOM     12  C   UNL     1       0.808  10.513  19.322  0.00  0.00    +0.000 A 
ATOM     13  C   UNL     1       0.697  10.070  20.627  0.00  0.00    +0.000 A 
ATOM     14  S   UNL     1       1.443   8.541  20.814  0.00  0.00    +0.000 S 
BRANCH  13  15
ATOM     15  C   UNL     1       0.076  10.672  21.804  0.00  0.00    +0.000 C 
ATOM     16  C   UNL     1      -0.559   9.768  22.830  0.00  0.00    +0.000 C 
ATOM     17  O   UNL     1       0.037  11.889  22.008  0.00  0.00    +0.000 OA
ENDBRANCH  13  15
ENDBRANCH   3  10
BRANCH   9  18
ATOM     18  C   UNL     1       1.392   3.132  19.646  0.00  0.00    +0.000 C 
ATOM     19  C   UNL     1       0.595   2.038  18.932  0.00  0.00    +0.000 C 
ATOM     20  C   UNL     1       1.927   2.631  20.989  0.00  0.00    +0.000 C 
ENDBRANCH   9  18
BRANCH   1  21
ATOM     21  N   UNL     1       5.325   6.489  16.468  0.00  0.00    +0.000 N 
ATOM     22  H   UNL     1       5.242   5.850  15.674  0.00  0.00    +0.000 HD
BRANCH  21  23
ATOM     23  C   UNL     1       6.666   6.519  17.044  0.00  0.00    +0.000 C 
BRANCH  23  24
ATOM     24  C   UNL     1       7.337   5.142  16.978  0.00  0.00    +0.000 C 
BRANCH  24  26
ATOM     25  C   UNL     1       7.717   5.725  19.235  0.00  0.00    +0.000 C 
ATOM     26  O   UNL     1       7.555   4.659  18.311  0.00  0.00    +0.000 OA
ENDBRANCH  24  26
ENDBRANCH  23  24
ENDBRANCH  21  23
ENDBRANCH   1  21
TORSDOF 7
ENDMDL
MODEL 7
REMARK VINA RESULT:      -7.3      3.996      6.322
REMARK  Name = 
REMARK  11 active torsions:
REMARK  status: ('A' for Active; 'I' for Inactive)
REMARK    1  A    between atoms: C_1  and  O_2
REMARK    2  A    between atoms: O_2  and  C_3
REMARK    3  A    between atoms: C_3  and  C_4
REMARK    4  A    between atoms: C_4  and  N_5
REMARK    5  A    between atoms: N_5  and  C_6
REMARK    6  A    between atoms: C_8  and  C_9
REMARK    7  A    between atoms: C_12  and  C_13
REMARK    8  A    between atoms: C_13  and  C_14
REMARK    9  A    between atoms: N_22  and  C_23
REMARK   10  A    between atoms: C_23  and  C_24
REMARK   11  A    between atoms: C_23  and  C_25
REMARK                            x       y       z     vdW  Elec       q    Type
REMARK                         _______ _______ _______ _____ _____    ______ ____
ROOT
ATOM      1  C   UNL     1       5.373   5.360  18.950  0.00  0.00    +0.000 A 
ATOM      2  N   UNL     1       4.571   6.456  18.831  0.00  0.00    +0.000 NA
ATOM      3  C   UNL     1       3.244   6.320  19.052  0.00  0.00    +0.000 A 
ATOM      4  N   UNL     1       2.575   5.200  19.376  0.00  0.00    +0.000 NA
ATOM      5  C   UNL     1       3.391   4.150  19.484  0.00  0.00    +0.000 A 
ATOM      6  C   UNL     1       4.761   4.134  19.294  0.00  0.00    +0.000 A 
ATOM      7  N   UNL     1       5.259   2.864  19.505  0.00  0.00    +0.000 NA
ATOM      8  C   UNL     1       4.205   2.132  19.808  0.00  0.00    +0.000 A 
ATOM      9  N   UNL     1       3.047   2.867  19.810  0.00  0.00    +0.000 N 
ENDROOT
BRANCH   3  10
ATOM     10  C   UNL     1       2.430   7.529  18.913  0.00  0.00    +0.000 A 
ATOM     11  C   UNL     1       2.191   8.311  17.799  0.00  0.00    +0.000 A 
ATOM     12  C   UNL     1       1.285   9.386  18.066  0.00  0.00    +0.000 A 
ATOM     13  C   UNL     1       0.874   9.419  19.386  0.00  0.00    +0.000 A 
ATOM     14  S   UNL     1       1.607   8.156  20.280  0.00  0.00    +0.000 S 
BRANCH  13  15
ATOM     15  C   UNL     1      -0.039  10.312  20.094  0.00  0.00    +0.000 C 
ATOM     16  C   UNL     1      -0.311  10.060  21.555  0.00  0.00    +0.000 C 
ATOM     17  O   UNL     1      -0.608  11.270  19.561  0.00  0.00    +0.000 OA
ENDBRANCH  13  15
ENDBRANCH   3  10
BRANCH   9  18
ATOM     18  C   UNL     1       1.713   2.372  20.121  0.00  0.00    +0.000 C 
ATOM     19  C   UNL     1       1.219   2.853  21.487  0.00  0.00    +0.000 C 
ATOM     20  C   UNL     1       0.697   2.699  19.025  0.00  0.00    +0.000 C 
ENDBRANCH   9  18
BRANCH   1  21
ATOM     21  N   UNL     1       6.744   5.456  18.703  0.00  0.00    +0.000 N 
ATOM     22  H   UNL     1       7.230   5.853  19.510  0.00  0.00    +0.000 HD
BRANCH  21  23
ATOM     23  C   UNL     1       7.161   6.045  17.434  0.00  0.00    +0.000 C 
BRANCH  23  24
ATOM     24  C   UNL     1       6.709   5.191  16.243  0.00  0.00    +0.000 C 
BRANCH  24  26
ATOM     25  C   UNL     1       7.104   4.798  13.948  0.00  0.00    +0.000 C 
ATOM     26  O   UNL     1       7.558   5.461  15.119  0.00  0.00    +0.000 OA
ENDBRANCH  24  26
ENDBRANCH  23  24
ENDBRANCH  21  23
ENDBRANCH   1  21
TORSDOF 7
ENDMDL
MODEL 8
REMARK VINA RESULT:      -7.1      4.038      5.977
REMARK  Name = 
REMARK  11 active torsions:
REMARK  status: ('A' for Active; 'I' for Inactive)
REMARK    1  A    between atoms: C_1  and  O_2
REMARK    2  A    between atoms: O_2  and  C_3
REMARK    3  A    between atoms: C_3  and  C_4
REMARK    4  A    between atoms: C_4  and  N_5
REMARK    5  A    between atoms: N_5  and  C_6
REMARK    6  A    between atoms: C_8  and  C_9
REMARK    7  A    between atoms: C_12  and  C_13
REMARK    8  A    between atoms: C_13  and  C_14
REMARK    9  A    between atoms: N_22  and  C_23
REMARK   10  A    between atoms: C_23  and  C_24
REMARK   11  A    between atoms: C_23  and  C_25
REMARK                            x       y       z     vdW  Elec       q    Type
REMARK                         _______ _______ _______ _____ _____    ______ ____
ROOT
ATOM      1  C   UNL     1       4.542   6.170  17.087  0.00  0.00    +0.000 A 
ATOM      2  N   UNL     1       3.802   7.246  17.483  0.00  0.00    +0.000 NA
ATOM      3  C   UNL     1       2.802   7.058  18.372  0.00  0.00    +0.000 A 
ATOM      4  N   UNL     1       2.408   5.902  18.935  0.00  0.00    +0.000 NA
ATOM      5  C   UNL     1       3.154   4.874  18.526  0.00  0.00    +0.000 A 
ATOM      6  C   UNL     1       4.208   4.910  17.631  0.00  0.00    +0.000 A 
ATOM      7  N   UNL     1       4.739   3.647  17.465  0.00  0.00    +0.000 NA
ATOM      8  C   UNL     1       4.011   2.868  18.240  0.00  0.00    +0.000 A 
ATOM      9  N   UNL     1       3.036   3.566  18.906  0.00  0.00    +0.000 N 
ENDROOT
BRANCH   3  10
ATOM     10  C   UNL     1       2.042   8.246  18.763  0.00  0.00    +0.000 A 
ATOM     11  C   UNL     1       1.584   9.297  17.992  0.00  0.00    +0.000 A 
ATOM     12  C   UNL     1       0.825  10.245  18.750  0.00  0.00    +0.000 A 
ATOM     13  C   UNL     1       0.745   9.912  20.090  0.00  0.00    +0.000 A 
ATOM     14  S   UNL     1       1.604   8.466  20.407  0.00  0.00    +0.000 S 
BRANCH  13  15
ATOM     15  C   UNL     1       0.076  10.566  21.211  0.00  0.00    +0.000 C 
ATOM     16  C   UNL     1      -1.046  11.531  20.923  0.00  0.00    +0.000 C 
ATOM     17  O   UNL     1       0.380  10.376  22.393  0.00  0.00    +0.000 OA
ENDBRANCH  13  15
ENDBRANCH   3  10
BRANCH   9  18
ATOM     18  C   UNL     1       2.076   3.013  19.853  0.00  0.00    +0.000 C 
ATOM     19  C   UNL     1       2.132   3.714  21.213  0.00  0.00    +0.000 C 
ATOM     20  C   UNL     1       0.649   3.003  19.301  0.00  0.00    +0.000 C 
ENDBRANCH   9  18
BRANCH   1  21
ATOM     21  N   UNL     1       5.566   6.322  16.151  0.00  0.00    +0.000 N 
ATOM     22  H   UNL     1       5.292   5.931  15.247  0.00  0.00    +0.000 HD
BRANCH  21  23
ATOM     23  C   UNL     1       6.915   5.938  16.559  0.00  0.00    +0.000 C 
BRANCH  23  24
ATOM     24  C   UNL     1       7.453   6.861  17.659  0.00  0.00    +0.000 C 
BRANCH  24  26
ATOM     25  C   UNL     1       8.234   9.059  18.027  0.00  0.00    +0.000 C 
ATOM     26  O   UNL     1       7.486   8.209  17.170  0.00  0.00    +0.000 OA
ENDBRANCH  24  26
ENDBRANCH  23  24
ENDBRANCH  21  23
ENDBRANCH   1  21
TORSDOF 7
ENDMDL
MODEL 9
REMARK VINA RESULT:      -7.1      4.331      6.399
REMARK  Name = 
REMARK  11 active torsions:
REMARK  status: ('A' for Active; 'I' for Inactive)
REMARK    1  A    between atoms: C_1  and  O_2
REMARK    2  A    between atoms: O_2  and  C_3
REMARK    3  A    between atoms: C_3  and  C_4
REMARK    4  A    between atoms: C_4  and  N_5
REMARK    5  A    between atoms: N_5  and  C_6
REMARK    6  A    between atoms: C_8  and  C_9
REMARK    7  A    between atoms: C_12  and  C_13
REMARK    8  A    between atoms: C_13  and  C_14
REMARK    9  A    between atoms: N_22  and  C_23
REMARK   10  A    between atoms: C_23  and  C_24
REMARK   11  A    between atoms: C_23  and  C_25
REMARK                            x       y       z     vdW  Elec       q    Type
REMARK                         _______ _______ _______ _____ _____    ______ ____
ROOT
ATOM      1  C   UNL     1       4.224   6.488  17.201  0.00  0.00    +0.000 A 
ATOM      2  N   UNL     1       3.559   7.558  17.724  0.00  0.00    +0.000 NA
ATOM      3  C   UNL     1       2.536   7.335  18.579  0.00  0.00    +0.000 A 
ATOM      4  N   UNL     1       2.053   6.151  18.994  0.00  0.00    +0.000 NA
ATOM      5  C   UNL     1       2.728   5.129  18.464  0.00  0.00    +0.000 A 
ATOM      6  C   UNL     1       3.794   5.198  17.584  0.00  0.00    +0.000 A 
ATOM      7  N   UNL     1       4.235   3.929  17.266  0.00  0.00    +0.000 NA
ATOM      8  C   UNL     1       3.443   3.116  17.936  0.00  0.00    +0.000 A 
ATOM      9  N   UNL     1       2.512   3.796  18.679  0.00  0.00    +0.000 N 
ENDROOT
BRANCH   3  10
ATOM     10  C   UNL     1       1.859   8.519  19.111  0.00  0.00    +0.000 A 
ATOM     11  C   UNL     1       1.477   9.682  18.471  0.00  0.00    +0.000 A 
ATOM     12  C   UNL     1       0.783  10.585  19.339  0.00  0.00    +0.000 A 
ATOM     13  C   UNL     1       0.676  10.103  20.631  0.00  0.00    +0.000 A 
ATOM     14  S   UNL     1       1.433   8.574  20.771  0.00  0.00    +0.000 S 
BRANCH  13  15
ATOM     15  C   UNL     1       0.051  10.665  21.824  0.00  0.00    +0.000 C 
ATOM     16  C   UNL     1      -0.548   9.725  22.840  0.00  0.00    +0.000 C 
ATOM     17  O   UNL     1      -0.019  11.877  22.052  0.00  0.00    +0.000 OA
ENDBRANCH  13  15
ENDBRANCH   3  10
BRANCH   9  18
ATOM     18  C   UNL     1       1.502   3.204  19.546  0.00  0.00    +0.000 C 
ATOM     19  C   UNL     1       0.659   2.151  18.821  0.00  0.00    +0.000 C 
ATOM     20  C   UNL     1       2.098   2.634  20.835  0.00  0.00    +0.000 C 
ENDBRANCH   9  18
BRANCH   1  21
ATOM     21  N   UNL     1       5.269   6.678  16.295  0.00  0.00    +0.000 N 
ATOM     22  H   UNL     1       5.016   6.324  15.371  0.00  0.00    +0.000 HD
BRANCH  21  23
ATOM     23  C   UNL     1       6.609   6.279  16.717  0.00  0.00    +0.000 C 
BRANCH  23  24
ATOM     24  C   UNL     1       7.253   5.321  15.708  0.00  0.00    +0.000 C 
BRANCH  24  26
ATOM     25  C   UNL     1       6.169   3.964  14.107  0.00  0.00    +0.000 C 
ATOM     26  O   UNL     1       6.461   5.293  14.512  0.00  0.00    +0.000 OA
ENDBRANCH  24  26
ENDBRANCH  23  24
ENDBRANCH  21  23
ENDBRANCH   1  21
TORSDOF 7
ENDMDL
