MODEL 1
REMARK VINA RESULT:      -8.4      0.000      0.000
REMARK  Name = 
REMARK  10 active torsions:
REMARK  status: ('A' for Active; 'I' for Inactive)
REMARK    1  A    between atoms: O_1  and  C_2
REMARK    2  A    between atoms: C_5  and  C_6
REMARK    3  A    between atoms: C_7  and  C_8
REMARK    4  A    between atoms: C_10  and  O_11
REMARK    5  A    between atoms: C_13  and  O_14
REMARK    6  A    between atoms: C_15  and  O_16
REMARK    7  A    between atoms: O_16  and  C_17
REMARK    8  A    between atoms: C_20  and  O_21
REMARK    9  A    between atoms: C_22  and  O_23
REMARK   10  A    between atoms: C_24  and  O_25
REMARK                            x       y       z     vdW  Elec       q    Type
REMARK                         _______ _______ _______ _____ _____    ______ ____
ROOT
ATOM      1  C   UNL     1       2.155   5.113  19.903  0.00  0.00    +0.000 A 
ATOM      2  C   UNL     1       1.006   4.311  19.853  0.00  0.00    +0.000 A 
ATOM      3  C   UNL     1       1.133   2.942  19.656  0.00  0.00    +0.000 A 
ATOM      4  C   UNL     1       2.384   2.357  19.509  0.00  0.00    +0.000 A 
ATOM      5  C   UNL     1       3.534   3.150  19.574  0.00  0.00    +0.000 A 
ATOM      6  C   UNL     1       3.437   4.539  19.752  0.00  0.00    +0.000 A 
ENDROOT
BRANCH   1   8
ATOM      7  C   UNL     1       1.019   7.048  20.931  0.00  0.00    +0.000 C 
ATOM      8  C   UNL     1       1.982   6.555  20.134  0.00  0.00    +0.000 C 
BRANCH   7  12
ATOM      9  C   UNL     1       0.294  11.211  21.582  0.00  0.00    +0.000 A 
ATOM     10  C   UNL     1       0.806  10.796  20.359  0.00  0.00    +0.000 A 
ATOM     11  C   UNL     1       1.048   9.437  20.140  0.00  0.00    +0.000 A 
ATOM     12  C   UNL     1       0.798   8.489  21.143  0.00  0.00    +0.000 A 
ATOM     13  C   UNL     1       0.265   8.930  22.364  0.00  0.00    +0.000 A 
ATOM     14  C   UNL     1       0.018  10.291  22.582  0.00  0.00    +0.000 A 
BRANCH   9  15
ATOM     15  O   UNL     1       0.040  12.525  21.836  0.00  0.00    +0.000 OA
ATOM     16  H   UNL     1      -0.425  12.593  22.685  0.00  0.00    +0.000 HD
ENDBRANCH   9  15
ENDBRANCH   7  12
ENDBRANCH   1   8
BRANCH   3  17
ATOM     17  O   UNL     1       0.045   2.120  19.623  0.00  0.00    +0.000 OA
ATOM     18  H   UNL     1      -0.556   2.428  18.923  0.00  0.00    +0.000 HD
ENDBRANCH   3  17
BRANCH   5  19
ATOM     19  O   UNL     1       4.748   2.517  19.506  0.00  0.00    +0.000 OA
ATOM     20  H   UNL     1       4.739   1.783  20.145  0.00  0.00    +0.000 HD
ENDBRANCH   5  19
BRANCH   6  21
ATOM     21  O   UNL     1       4.485   5.413  19.874  0.00  0.00    +0.000 OA
BRANCH  21  22
ATOM     22  C   UNL     1       5.349   5.669  18.754  0.00  0.00    +0.000 C 
ATOM     23  O   UNL     1       4.699   5.562  17.486  0.00  0.00    +0.000 OA
ATOM     24  C   UNL     1       5.557   5.699  16.367  0.00  0.00    +0.000 C 
ATOM     25  C   UNL     1       6.706   4.697  16.395  0.00  0.00    +0.000 C 
ATOM     26  C   UNL     1       7.533   4.930  17.663  0.00  0.00    +0.000 C 
ATOM     27  C   UNL     1       6.656   4.848  18.921  0.00  0.00    +0.000 C 
BRANCH  25  28
ATOM     28  O   UNL     1       7.492   4.843  15.210  0.00  0.00    +0.000 OA
ATOM     29  H   UNL     1       7.033   5.453  14.605  0.00  0.00    +0.000 HD
ENDBRANCH  25  28
BRANCH  26  30
ATOM     30  O   UNL     1       8.623   4.001  17.727  0.00  0.00    +0.000 OA
ATOM     31  H   UNL     1       9.339   4.412  18.248  0.00  0.00    +0.000 HD
ENDBRANCH  26  30
BRANCH  27  32
ATOM     32  O   UNL     1       7.413   5.298  20.066  0.00  0.00    +0.000 OA
ATOM     33  H   UNL     1       8.239   5.707  19.757  0.00  0.00    +0.000 HD
ENDBRANCH  27  32
ENDBRANCH  21  22
ENDBRANCH   6  21
TORSDOF 10
ENDMDL
MODEL 2
REMARK VINA RESULT:      -8.2      1.614      2.112
REMARK  Name = 
REMARK  10 active torsions:
REMARK  status: ('A' for Active; 'I' for Inactive)
REMARK    1  A    between atoms: O_1  and  C_2
REMARK    2  A    between atoms: C_5  and  C_6
REMARK    3  A    between atoms: C_7  and  C_8
REMARK    4  A    between atoms: C_10  and  O_11
REMARK    5  A    between atoms: C_13  and  O_14
REMARK    6  A    between atoms: C_15  and  O_16
REMARK    7  A    between atoms: O_16  and  C_17
REMARK    8  A    between atoms: C_20  and  O_21
REMARK    9  A    between atoms: C_22  and  O_23
REMARK   10  A    between atoms: C_24  and  O_25
REMARK                            x       y       z     vdW  Elec       q    Type
REMARK                         _______ _______ _______ _____ _____    ______ ____
ROOT
ATOM      1  C   UNL     1       2.691   5.293  20.036  0.00  0.00    +0.000 A 
ATOM      2  C   UNL     1       1.863   4.567  20.904  0.00  0.00    +0.000 A 
ATOM      3  C   UNL     1       2.194   3.260  21.236  0.00  0.00    +0.000 A 
ATOM      4  C   UNL     1       3.336   2.662  20.719  0.00  0.00    +0.000 A 
ATOM      5  C   UNL     1       4.174   3.386  19.866  0.00  0.00    +0.000 A 
ATOM      6  C   UNL     1       3.856   4.702  19.497  0.00  0.00    +0.000 A 
ENDROOT
BRANCH   1   8
ATOM      7  C   UNL     1       1.648   7.460  20.589  0.00  0.00    +0.000 C 
ATOM      8  C   UNL     1       2.319   6.681  19.725  0.00  0.00    +0.000 C 
BRANCH   7  12
ATOM      9  C   UNL     1       0.502  11.471  19.655  0.00  0.00    +0.000 A 
ATOM     10  C   UNL     1       0.405  11.028  20.968  0.00  0.00    +0.000 A 
ATOM     11  C   UNL     1       0.775   9.717  21.280  0.00  0.00    +0.000 A 
ATOM     12  C   UNL     1       1.227   8.838  20.284  0.00  0.00    +0.000 A 
ATOM     13  C   UNL     1       1.333   9.315  18.969  0.00  0.00    +0.000 A 
ATOM     14  C   UNL     1       0.966  10.629  18.656  0.00  0.00    +0.000 A 
BRANCH   9  15
ATOM     15  O   UNL     1       0.155  12.742  19.308  0.00  0.00    +0.000 OA
ATOM     16  H   UNL     1      -0.690  12.714  18.830  0.00  0.00    +0.000 HD
ENDBRANCH   9  15
ENDBRANCH   7  12
ENDBRANCH   1   8
BRANCH   3  17
ATOM     17  O   UNL     1       1.431   2.524  22.094  0.00  0.00    +0.000 OA
ATOM     18  H   UNL     1       0.548   2.406  21.702  0.00  0.00    +0.000 HD
ENDBRANCH   3  17
BRANCH   5  19
ATOM     19  O   UNL     1       5.332   2.783  19.448  0.00  0.00    +0.000 OA
ATOM     20  H   UNL     1       5.897   3.465  19.046  0.00  0.00    +0.000 HD
ENDBRANCH   5  19
BRANCH   6  21
ATOM     21  O   UNL     1       4.613   5.526  18.706  0.00  0.00    +0.000 OA
BRANCH  21  22
ATOM     22  C   UNL     1       4.756   5.253  17.302  0.00  0.00    +0.000 C 
ATOM     23  O   UNL     1       4.439   3.907  16.940  0.00  0.00    +0.000 OA
ATOM     24  C   UNL     1       4.681   3.586  15.581  0.00  0.00    +0.000 C 
ATOM     25  C   UNL     1       6.125   3.859  15.172  0.00  0.00    +0.000 C 
ATOM     26  C   UNL     1       6.420   5.348  15.372  0.00  0.00    +0.000 C 
ATOM     27  C   UNL     1       6.132   5.783  16.816  0.00  0.00    +0.000 C 
BRANCH  25  28
ATOM     28  O   UNL     1       6.317   3.453  13.815  0.00  0.00    +0.000 OA
ATOM     29  H   UNL     1       7.079   3.939  13.450  0.00  0.00    +0.000 HD
ENDBRANCH  25  28
BRANCH  26  30
ATOM     30  O   UNL     1       7.774   5.643  15.001  0.00  0.00    +0.000 OA
ATOM     31  H   UNL     1       7.908   6.606  15.091  0.00  0.00    +0.000 HD
ENDBRANCH  26  30
BRANCH  27  32
ATOM     32  O   UNL     1       6.198   7.223  16.908  0.00  0.00    +0.000 OA
ATOM     33  H   UNL     1       6.735   7.465  17.681  0.00  0.00    +0.000 HD
ENDBRANCH  27  32
ENDBRANCH  21  22
ENDBRANCH   6  21
TORSDOF 10
ENDMDL
MODEL 3
REMARK VINA RESULT:      -8.2      1.739      2.033
REMARK  Name = 
REMARK  10 active torsions:
REMARK  status: ('A' for Active; 'I' for Inactive)
REMARK    1  A    between atoms: O_1  and  C_2
REMARK    2  A    between atoms: C_5  and  C_6
REMARK    3  A    between atoms: C_7  and  C_8
REMARK    4  A    between atoms: C_10  and  O_11
REMARK    5  A    between atoms: C_13  and  O_14
REMARK    6  A    between atoms: C_15  and  O_16
REMARK    7  A    between atoms: O_16  and  C_17
REMARK    8  A    between atoms: C_20  and  O_21
REMARK    9  A    between atoms: C_22  and  O_23
REMARK   10  A    between atoms: C_24  and  O_25
REMARK                            x       y       z     vdW  Elec       q    Type
REMARK                         _______ _______ _______ _____ _____    ______ ____
ROOT
ATOM      1  C   UNL     1       1.886   4.488  19.515  0.00  0.00    +0.000 A 
ATOM      2  C   UNL     1       1.293   4.126  20.733  0.00  0.00    +0.000 A 
ATOM      3  C   UNL     1       1.425   2.825  21.201  0.00  0.00    +0.000 A 
ATOM      4  C   UNL     1       2.138   1.878  20.478  0.00  0.00    +0.000 A 
ATOM      5  C   UNL     1       2.744   2.237  19.270  0.00  0.00    +0.000 A 
ATOM      6  C   UNL     1       2.612   3.538  18.762  0.00  0.00    +0.000 A 
ENDROOT
BRANCH   1   8
ATOM      7  C   UNL     1       1.932   6.928  19.880  0.00  0.00    +0.000 C 
ATOM      8  C   UNL     1       1.742   5.879  19.062  0.00  0.00    +0.000 C 
BRANCH   7  12
ATOM      9  C   UNL     1       1.318  10.988  18.690  0.00  0.00    +0.000 A 
ATOM     10  C   UNL     1       2.007  10.131  17.841  0.00  0.00    +0.000 A 
ATOM     11  C   UNL     1       2.213   8.803  18.225  0.00  0.00    +0.000 A 
ATOM     12  C   UNL     1       1.751   8.329  19.462  0.00  0.00    +0.000 A 
ATOM     13  C   UNL     1       1.043   9.209  20.294  0.00  0.00    +0.000 A 
ATOM     14  C   UNL     1       0.832  10.538  19.908  0.00  0.00    +0.000 A 
BRANCH   9  15
ATOM     15  O   UNL     1       1.092  12.289  18.354  0.00  0.00    +0.000 OA
ATOM     16  H   UNL     1       1.935  12.769  18.386  0.00  0.00    +0.000 HD
ENDBRANCH   9  15
ENDBRANCH   7  12
ENDBRANCH   1   8
BRANCH   3  17
ATOM     17  O   UNL     1       0.885   2.435  22.391  0.00  0.00    +0.000 OA
ATOM     18  H   UNL     1       1.265   1.575  22.638  0.00  0.00    +0.000 HD
ENDBRANCH   3  17
BRANCH   5  19
ATOM     19  O   UNL     1       3.505   1.291  18.634  0.00  0.00    +0.000 OA
ATOM     20  H   UNL     1       3.705   1.618  17.740  0.00  0.00    +0.000 HD
ENDBRANCH   5  19
BRANCH   6  21
ATOM     21  O   UNL     1       3.191   4.022  17.617  0.00  0.00    +0.000 OA
BRANCH  21  22
ATOM     22  C   UNL     1       4.320   4.909  17.696  0.00  0.00    +0.000 C 
ATOM     23  O   UNL     1       4.284   5.975  16.744  0.00  0.00    +0.000 OA
ATOM     24  C   UNL     1       5.440   6.794  16.728  0.00  0.00    +0.000 C 
ATOM     25  C   UNL     1       6.714   5.990  16.491  0.00  0.00    +0.000 C 
ATOM     26  C   UNL     1       6.868   4.966  17.619  0.00  0.00    +0.000 C 
ATOM     27  C   UNL     1       5.626   4.071  17.731  0.00  0.00    +0.000 C 
BRANCH  25  28
ATOM     28  O   UNL     1       7.831   6.880  16.420  0.00  0.00    +0.000 OA
ATOM     29  H   UNL     1       8.164   6.888  15.505  0.00  0.00    +0.000 HD
ENDBRANCH  25  28
BRANCH  26  30
ATOM     30  O   UNL     1       8.055   4.185  17.427  0.00  0.00    +0.000 OA
ATOM     31  H   UNL     1       7.914   3.314  17.845  0.00  0.00    +0.000 HD
ENDBRANCH  26  30
BRANCH  27  32
ATOM     32  O   UNL     1       5.707   3.282  18.938  0.00  0.00    +0.000 OA
ATOM     33  H   UNL     1       6.179   3.793  19.618  0.00  0.00    +0.000 HD
ENDBRANCH  27  32
ENDBRANCH  21  22
ENDBRANCH   6  21
TORSDOF 10
ENDMDL
MODEL 4
REMARK VINA RESULT:      -8.1      1.026      1.388
REMARK  Name = 
REMARK  10 active torsions:
REMARK  status: ('A' for Active; 'I' for Inactive)
REMARK    1  A    between atoms: O_1  and  C_2
REMARK    2  A    between atoms: C_5  and  C_6
REMARK    3  A    between atoms: C_7  and  C_8
REMARK    4  A    between atoms: C_10  and  O_11
REMARK    5  A    between atoms: C_13  and  O_14
REMARK    6  A    between atoms: C_15  and  O_16
REMARK    7  A    between atoms: O_16  and  C_17
REMARK    8  A    between atoms: C_20  and  O_21
REMARK    9  A    between atoms: C_22  and  O_23
REMARK   10  A    between atoms: C_24  and  O_25
REMARK                            x       y       z     vdW  Elec       q    Type
REMARK                         _______ _______ _______ _____ _____    ______ ____
ROOT
ATOM      1  C   UNL     1       2.179   5.087  19.668  0.00  0.00    +0.000 A 
ATOM      2  C   UNL     1       1.037   4.280  19.556  0.00  0.00    +0.000 A 
ATOM      3  C   UNL     1       1.180   2.905  19.424  0.00  0.00    +0.000 A 
ATOM      4  C   UNL     1       2.438   2.319  19.401  0.00  0.00    +0.000 A 
ATOM      5  C   UNL     1       3.580   3.117  19.527  0.00  0.00    +0.000 A 
ATOM      6  C   UNL     1       3.469   4.511  19.643  0.00  0.00    +0.000 A 
ENDROOT
BRANCH   1   8
ATOM      7  C   UNL     1       1.803   7.361  18.784  0.00  0.00    +0.000 C 
ATOM      8  C   UNL     1       1.988   6.536  19.828  0.00  0.00    +0.000 C 
BRANCH   7  12
ATOM      9  C   UNL     1       1.281  11.585  19.186  0.00  0.00    +0.000 A 
ATOM     10  C   UNL     1       1.959  11.089  18.079  0.00  0.00    +0.000 A 
ATOM     11  C   UNL     1       2.136   9.709  17.943  0.00  0.00    +0.000 A 
ATOM     12  C   UNL     1       1.655   8.820  18.916  0.00  0.00    +0.000 A 
ATOM     13  C   UNL     1       0.958   9.344  20.015  0.00  0.00    +0.000 A 
ATOM     14  C   UNL     1       0.777  10.726  20.151  0.00  0.00    +0.000 A 
BRANCH   9  15
ATOM     15  O   UNL     1       1.084  12.922  19.357  0.00  0.00    +0.000 OA
ATOM     16  H   UNL     1       0.667  13.066  20.221  0.00  0.00    +0.000 HD
ENDBRANCH   9  15
ENDBRANCH   7  12
ENDBRANCH   1   8
BRANCH   3  17
ATOM     17  O   UNL     1       0.098   2.080  19.335  0.00  0.00    +0.000 OA
ATOM     18  H   UNL     1       0.339   1.210  19.697  0.00  0.00    +0.000 HD
ENDBRANCH   3  17
BRANCH   5  19
ATOM     19  O   UNL     1       4.795   2.485  19.582  0.00  0.00    +0.000 OA
ATOM     20  H   UNL     1       5.182   2.656  20.458  0.00  0.00    +0.000 HD
ENDBRANCH   5  19
BRANCH   6  21
ATOM     21  O   UNL     1       4.504   5.393  19.815  0.00  0.00    +0.000 OA
BRANCH  21  22
ATOM     22  C   UNL     1       5.356   5.734  18.709  0.00  0.00    +0.000 C 
ATOM     23  O   UNL     1       4.677   5.795  17.453  0.00  0.00    +0.000 OA
ATOM     24  C   UNL     1       5.517   6.018  16.334  0.00  0.00    +0.000 C 
ATOM     25  C   UNL     1       6.622   4.972  16.224  0.00  0.00    +0.000 C 
ATOM     26  C   UNL     1       7.483   5.029  17.490  0.00  0.00    +0.000 C 
ATOM     27  C   UNL     1       6.629   4.845  18.752  0.00  0.00    +0.000 C 
BRANCH  25  28
ATOM     28  O   UNL     1       7.389   5.215  15.043  0.00  0.00    +0.000 OA
ATOM     29  H   UNL     1       6.878   4.912  14.272  0.00  0.00    +0.000 HD
ENDBRANCH  25  28
BRANCH  26  30
ATOM     30  O   UNL     1       8.532   4.054  17.425  0.00  0.00    +0.000 OA
ATOM     31  H   UNL     1       8.215   3.242  17.866  0.00  0.00    +0.000 HD
ENDBRANCH  26  30
BRANCH  27  32
ATOM     32  O   UNL     1       7.427   5.135  19.921  0.00  0.00    +0.000 OA
ATOM     33  H   UNL     1       7.231   6.038  20.220  0.00  0.00    +0.000 HD
ENDBRANCH  27  32
ENDBRANCH  21  22
ENDBRANCH   6  21
TORSDOF 10
ENDMDL
MODEL 5
REMARK VINA RESULT:      -8.0      1.811      2.369
REMARK  Name = 
REMARK  10 active torsions:
REMARK  status: ('A' for Active; 'I' for Inactive)
REMARK    1  A    between atoms: O_1  and  C_2
REMARK    2  A    between atoms: C_5  and  C_6
REMARK    3  A    between atoms: C_7  and  C_8
REMARK    4  A    between atoms: C_10  and  O_11
REMARK    5  A    between atoms: C_13  and  O_14
REMARK    6  A    between atoms: C_15  and  O_16
REMARK    7  A    between atoms: O_16  and  C_17
REMARK    8  A    between atoms: C_20  and  O_21
REMARK    9  A    between atoms: C_22  and  O_23
REMARK   10  A    between atoms: C_24  and  O_25
REMARK                            x       y       z     vdW  Elec       q    Type
REMARK                         _______ _______ _______ _____ _____    ______ ____
ROOT
ATOM      1  C   UNL     1       2.189   4.465  19.538  0.00  0.00    +0.000 A 
ATOM      2  C   UNL     1       1.617   4.036  20.744  0.00  0.00    +0.000 A 
ATOM      3  C   UNL     1       1.885   2.757  21.214  0.00  0.00    +0.000 A 
ATOM      4  C   UNL     1       2.713   1.898  20.505  0.00  0.00    +0.000 A 
ATOM      5  C   UNL     1       3.299   2.325  19.310  0.00  0.00    +0.000 A 
ATOM      6  C   UNL     1       3.032   3.604  18.799  0.00  0.00    +0.000 A 
ENDROOT
BRANCH   1   8
ATOM      7  C   UNL     1       2.130   6.912  19.847  0.00  0.00    +0.000 C 
ATOM      8  C   UNL     1       1.899   5.833  19.082  0.00  0.00    +0.000 C 
BRANCH   7  12
ATOM      9  C   UNL     1       1.105  10.890  18.663  0.00  0.00    +0.000 A 
ATOM     10  C   UNL     1       1.881  10.110  17.814  0.00  0.00    +0.000 A 
ATOM     11  C   UNL     1       2.222   8.810  18.196  0.00  0.00    +0.000 A 
ATOM     12  C   UNL     1       1.807   8.288  19.431  0.00  0.00    +0.000 A 
ATOM     13  C   UNL     1       1.010   9.089  20.262  0.00  0.00    +0.000 A 
ATOM     14  C   UNL     1       0.665  10.391  19.878  0.00  0.00    +0.000 A 
BRANCH   9  15
ATOM     15  O   UNL     1       0.748  12.162  18.328  0.00  0.00    +0.000 OA
ATOM     16  H   UNL     1       0.952  12.305  17.390  0.00  0.00    +0.000 HD
ENDBRANCH   9  15
ENDBRANCH   7  12
ENDBRANCH   1   8
BRANCH   3  17
ATOM     17  O   UNL     1       1.369   2.307  22.394  0.00  0.00    +0.000 OA
ATOM     18  H   UNL     1       0.995   3.062  22.879  0.00  0.00    +0.000 HD
ENDBRANCH   3  17
BRANCH   5  19
ATOM     19  O   UNL     1       4.174   1.471  18.689  0.00  0.00    +0.000 OA
ATOM     20  H   UNL     1       4.459   0.809  19.341  0.00  0.00    +0.000 HD
ENDBRANCH   5  19
BRANCH   6  21
ATOM     21  O   UNL     1       3.575   4.153  17.667  0.00  0.00    +0.000 OA
BRANCH  21  22
ATOM     22  C   UNL     1       4.911   4.684  17.688  0.00  0.00    +0.000 C 
ATOM     23  O   UNL     1       5.003   5.994  18.254  0.00  0.00    +0.000 OA
ATOM     24  C   UNL     1       6.290   6.581  18.181  0.00  0.00    +0.000 C 
ATOM     25  C   UNL     1       6.815   6.646  16.751  0.00  0.00    +0.000 C 
ATOM     26  C   UNL     1       6.907   5.222  16.195  0.00  0.00    +0.000 C 
ATOM     27  C   UNL     1       5.555   4.501  16.287  0.00  0.00    +0.000 C 
BRANCH  25  28
ATOM     28  O   UNL     1       8.083   7.307  16.741  0.00  0.00    +0.000 OA
ATOM     29  H   UNL     1       8.683   6.819  16.150  0.00  0.00    +0.000 HD
ENDBRANCH  25  28
BRANCH  26  30
ATOM     30  O   UNL     1       7.394   5.242  14.846  0.00  0.00    +0.000 OA
ATOM     31  H   UNL     1       6.625   5.191  14.248  0.00  0.00    +0.000 HD
ENDBRANCH  26  30
BRANCH  27  32
ATOM     32  O   UNL     1       5.732   3.102  15.974  0.00  0.00    +0.000 OA
ATOM     33  H   UNL     1       5.098   2.580  16.494  0.00  0.00    +0.000 HD
ENDBRANCH  27  32
ENDBRANCH  21  22
ENDBRANCH   6  21
TORSDOF 10
ENDMDL
MODEL 6
REMARK VINA RESULT:      -7.9      1.807      2.740
REMARK  Name = 
REMARK  10 active torsions:
REMARK  status: ('A' for Active; 'I' for Inactive)
REMARK    1  A    between atoms: O_1  and  C_2
REMARK    2  A    between atoms: C_5  and  C_6
REMARK    3  A    between atoms: C_7  and  C_8
REMARK    4  A    between atoms: C_10  and  O_11
REMARK    5  A    between atoms: C_13  and  O_14
REMARK    6  A    between atoms: C_15  and  O_16
REMARK    7  A    between atoms: O_16  and  C_17
REMARK    8  A    between atoms: C_20  and  O_21
REMARK    9  A    between atoms: C_22  and  O_23
REMARK   10  A    between atoms: C_24  and  O_25
REMARK                            x       y       z     vdW  Elec       q    Type
REMARK                         _______ _______ _______ _____ _____    ______ ____
ROOT
ATOM      1  C   UNL     1       2.534   4.639  19.662  0.00  0.00    +0.000 A 
ATOM      2  C   UNL     1       1.860   4.227  20.822  0.00  0.00    +0.000 A 
ATOM      3  C   UNL     1       2.048   2.938  21.302  0.00  0.00    +0.000 A 
ATOM      4  C   UNL     1       2.894   2.051  20.650  0.00  0.00    +0.000 A 
ATOM      5  C   UNL     1       3.581   2.461  19.503  0.00  0.00    +0.000 A 
ATOM      6  C   UNL     1       3.397   3.751  18.982  0.00  0.00    +0.000 A 
ENDROOT
BRANCH   1   8
ATOM      7  C   UNL     1       1.905   7.000  20.008  0.00  0.00    +0.000 C 
ATOM      8  C   UNL     1       2.328   6.018  19.195  0.00  0.00    +0.000 C 
BRANCH   7  12
ATOM      9  C   UNL     1       1.252  11.006  18.667  0.00  0.00    +0.000 A 
ATOM     10  C   UNL     1       0.763  10.620  19.909  0.00  0.00    +0.000 A 
ATOM     11  C   UNL     1       0.971   9.311  20.353  0.00  0.00    +0.000 A 
ATOM     12  C   UNL     1       1.649   8.378  19.555  0.00  0.00    +0.000 A 
ATOM     13  C   UNL     1       2.149   8.797  18.312  0.00  0.00    +0.000 A 
ATOM     14  C   UNL     1       1.944  10.109  17.869  0.00  0.00    +0.000 A 
BRANCH   9  15
ATOM     15  O   UNL     1       1.074  12.273  18.198  0.00  0.00    +0.000 OA
ATOM     16  H   UNL     1       0.196  12.332  17.789  0.00  0.00    +0.000 HD
ENDBRANCH   9  15
ENDBRANCH   7  12
ENDBRANCH   1   8
BRANCH   3  17
ATOM     17  O   UNL     1       1.431   2.502  22.438  0.00  0.00    +0.000 OA
ATOM     18  H   UNL     1       1.837   1.661  22.709  0.00  0.00    +0.000 HD
ENDBRANCH   3  17
BRANCH   5  19
ATOM     19  O   UNL     1       4.467   1.578  18.942  0.00  0.00    +0.000 OA
ATOM     20  H   UNL     1       4.761   1.949  18.092  0.00  0.00    +0.000 HD
ENDBRANCH   5  19
BRANCH   6  21
ATOM     21  O   UNL     1       4.041   4.283  17.895  0.00  0.00    +0.000 OA
BRANCH  21  22
ATOM     22  C   UNL     1       5.417   4.687  17.994  0.00  0.00    +0.000 C 
ATOM     23  O   UNL     1       5.915   4.720  19.334  0.00  0.00    +0.000 OA
ATOM     24  C   UNL     1       7.232   5.225  19.464  0.00  0.00    +0.000 C 
ATOM     25  C   UNL     1       7.377   6.622  18.871  0.00  0.00    +0.000 C 
ATOM     26  C   UNL     1       7.032   6.563  17.380  0.00  0.00    +0.000 C 
ATOM     27  C   UNL     1       5.631   5.977  17.156  0.00  0.00    +0.000 C 
BRANCH  25  28
ATOM     28  O   UNL     1       8.707   7.097  19.095  0.00  0.00    +0.000 OA
ATOM     29  H   UNL     1       8.669   8.051  19.284  0.00  0.00    +0.000 HD
ENDBRANCH  25  28
BRANCH  26  30
ATOM     30  O   UNL     1       7.152   7.863  16.788  0.00  0.00    +0.000 OA
ATOM     31  H   UNL     1       6.443   8.427  17.152  0.00  0.00    +0.000 HD
ENDBRANCH  26  30
BRANCH  27  32
ATOM     32  O   UNL     1       5.434   5.723  15.748  0.00  0.00    +0.000 OA
ATOM     33  H   UNL     1       5.262   4.774  15.621  0.00  0.00    +0.000 HD
ENDBRANCH  27  32
ENDBRANCH  21  22
ENDBRANCH   6  21
TORSDOF 10
ENDMDL
MODEL 7
REMARK VINA RESULT:      -7.9      2.074      4.863
REMARK  Name = 
REMARK  10 active torsions:
REMARK  status: ('A' for Active; 'I' for Inactive)
REMARK    1  A    between atoms: O_1  and  C_2
REMARK    2  A    between atoms: C_5  and  C_6
REMARK    3  A    between atoms: C_7  and  C_8
REMARK    4  A    between atoms: C_10  and  O_11
REMARK    5  A    between atoms: C_13  and  O_14
REMARK    6  A    between atoms: C_15  and  O_16
REMARK    7  A    between atoms: O_16  and  C_17
REMARK    8  A    between atoms: C_20  and  O_21
REMARK    9  A    between atoms: C_22  and  O_23
REMARK   10  A    between atoms: C_24  and  O_25
REMARK                            x       y       z     vdW  Elec       q    Type
REMARK                         _______ _______ _______ _____ _____    ______ ____
ROOT
ATOM      1  C   UNL     1       4.337   6.104  17.394  0.00  0.00    +0.000 A 
ATOM      2  C   UNL     1       5.516   6.860  17.330  0.00  0.00    +0.000 A 
ATOM      3  C   UNL     1       6.671   6.287  16.813  0.00  0.00    +0.000 A 
ATOM      4  C   UNL     1       6.672   4.976  16.357  0.00  0.00    +0.000 A 
ATOM      5  C   UNL     1       5.495   4.223  16.402  0.00  0.00    +0.000 A 
ATOM      6  C   UNL     1       4.317   4.766  16.937  0.00  0.00    +0.000 A 
ENDROOT
BRANCH   1   8
ATOM      7  C   UNL     1       2.997   8.084  18.004  0.00  0.00    +0.000 C 
ATOM      8  C   UNL     1       3.129   6.750  17.928  0.00  0.00    +0.000 C 
BRANCH   7  12
ATOM      9  C   UNL     1      -0.406  10.107  19.618  0.00  0.00    +0.000 A 
ATOM     10  C   UNL     1       0.394   9.348  20.463  0.00  0.00    +0.000 A 
ATOM     11  C   UNL     1       1.507   8.682  19.942  0.00  0.00    +0.000 A 
ATOM     12  C   UNL     1       1.816   8.754  18.575  0.00  0.00    +0.000 A 
ATOM     13  C   UNL     1       1.003   9.541  17.745  0.00  0.00    +0.000 A 
ATOM     14  C   UNL     1      -0.109  10.212  18.268  0.00  0.00    +0.000 A 
BRANCH   9  15
ATOM     15  O   UNL     1      -1.498  10.775  20.085  0.00  0.00    +0.000 OA
ATOM     16  H   UNL     1      -1.442  10.822  21.053  0.00  0.00    +0.000 HD
ENDBRANCH   9  15
ENDBRANCH   7  12
ENDBRANCH   1   8
BRANCH   3  17
ATOM     17  O   UNL     1       7.834   6.992  16.711  0.00  0.00    +0.000 OA
ATOM     18  H   UNL     1       7.993   7.197  15.774  0.00  0.00    +0.000 HD
ENDBRANCH   3  17
BRANCH   5  19
ATOM     19  O   UNL     1       5.525   2.962  15.864  0.00  0.00    +0.000 OA
ATOM     20  H   UNL     1       4.765   2.468  16.216  0.00  0.00    +0.000 HD
ENDBRANCH   5  19
BRANCH   6  21
ATOM     21  O   UNL     1       3.096   4.148  16.998  0.00  0.00    +0.000 OA
BRANCH  21  22
ATOM     22  C   UNL     1       2.641   3.563  18.231  0.00  0.00    +0.000 C 
ATOM     23  O   UNL     1       1.855   4.445  19.034  0.00  0.00    +0.000 OA
ATOM     24  C   UNL     1       1.493   3.927  20.302  0.00  0.00    +0.000 C 
ATOM     25  C   UNL     1       2.707   3.499  21.119  0.00  0.00    +0.000 C 
ATOM     26  C   UNL     1       3.457   2.405  20.352  0.00  0.00    +0.000 C 
ATOM     27  C   UNL     1       3.840   2.878  18.942  0.00  0.00    +0.000 C 
BRANCH  25  28
ATOM     28  O   UNL     1       2.278   3.050  22.407  0.00  0.00    +0.000 OA
ATOM     29  H   UNL     1       1.976   2.127  22.330  0.00  0.00    +0.000 HD
ENDBRANCH  25  28
BRANCH  26  30
ATOM     30  O   UNL     1       4.610   1.979  21.089  0.00  0.00    +0.000 OA
ATOM     31  H   UNL     1       5.403   2.221  20.573  0.00  0.00    +0.000 HD
ENDBRANCH  26  30
BRANCH  27  32
ATOM     32  O   UNL     1       4.332   1.758  18.175  0.00  0.00    +0.000 OA
ATOM     33  H   UNL     1       3.938   1.787  17.287  0.00  0.00    +0.000 HD
ENDBRANCH  27  32
ENDBRANCH  21  22
ENDBRANCH   6  21
TORSDOF 10
ENDMDL
MODEL 8
REMARK VINA RESULT:      -7.8      1.628      4.961
REMARK  Name = 
REMARK  10 active torsions:
REMARK  status: ('A' for Active; 'I' for Inactive)
REMARK    1  A    between atoms: O_1  and  C_2
REMARK    2  A    between atoms: C_5  and  C_6
REMARK    3  A    between atoms: C_7  and  C_8
REMARK    4  A    between atoms: C_10  and  O_11
REMARK    5  A    between atoms: C_13  and  O_14
REMARK    6  A    between atoms: C_15  and  O_16
REMARK    7  A    between atoms: O_16  and  C_17
REMARK    8  A    between atoms: C_20  and  O_21
REMARK    9  A    between atoms: C_22  and  O_23
REMARK   10  A    between atoms: C_24  and  O_25
REMARK                            x       y       z     vdW  Elec       q    Type
REMARK                         _______ _______ _______ _____ _____    ______ ____
ROOT
ATOM      1  C   UNL     1       4.654   6.075  17.054  0.00  0.00    +0.000 A 
ATOM      2  C   UNL     1       5.040   6.234  15.716  0.00  0.00    +0.000 A 
ATOM      3  C   UNL     1       6.203   5.624  15.261  0.00  0.00    +0.000 A 
ATOM      4  C   UNL     1       6.986   4.860  16.114  0.00  0.00    +0.000 A 
ATOM      5  C   UNL     1       6.597   4.685  17.446  0.00  0.00    +0.000 A 
ATOM      6  C   UNL     1       5.439   5.303  17.940  0.00  0.00    +0.000 A 
ENDROOT
BRANCH   1   8
ATOM      7  C   UNL     1       3.380   7.939  18.051  0.00  0.00    +0.000 C 
ATOM      8  C   UNL     1       3.406   6.717  17.494  0.00  0.00    +0.000 C 
BRANCH   7  12
ATOM      9  C   UNL     1      -0.166   9.890  19.429  0.00  0.00    +0.000 A 
ATOM     10  C   UNL     1       0.582   9.134  20.323  0.00  0.00    +0.000 A 
ATOM     11  C   UNL     1       1.740   8.491  19.879  0.00  0.00    +0.000 A 
ATOM     12  C   UNL     1       2.149   8.584  18.540  0.00  0.00    +0.000 A 
ATOM     13  C   UNL     1       1.387   9.368  17.660  0.00  0.00    +0.000 A 
ATOM     14  C   UNL     1       0.229  10.016  18.105  0.00  0.00    +0.000 A 
BRANCH   9  15
ATOM     15  O   UNL     1      -1.300  10.536  19.820  0.00  0.00    +0.000 OA
ATOM     16  H   UNL     1      -1.768  10.849  19.029  0.00  0.00    +0.000 HD
ENDBRANCH   9  15
ENDBRANCH   7  12
ENDBRANCH   1   8
BRANCH   3  17
ATOM     17  O   UNL     1       6.605   5.733  13.962  0.00  0.00    +0.000 OA
ATOM     18  H   UNL     1       6.365   6.616  13.634  0.00  0.00    +0.000 HD
ENDBRANCH   3  17
BRANCH   5  19
ATOM     19  O   UNL     1       7.358   3.855  18.228  0.00  0.00    +0.000 OA
ATOM     20  H   UNL     1       8.290   3.978  17.977  0.00  0.00    +0.000 HD
ENDBRANCH   5  19
BRANCH   6  21
ATOM     21  O   UNL     1       4.931   5.176  19.207  0.00  0.00    +0.000 OA
BRANCH  21  22
ATOM     22  C   UNL     1       4.131   4.033  19.555  0.00  0.00    +0.000 C 
ATOM     23  O   UNL     1       4.235   2.950  18.628  0.00  0.00    +0.000 OA
ATOM     24  C   UNL     1       3.369   1.860  18.890  0.00  0.00    +0.000 C 
ATOM     25  C   UNL     1       1.906   2.287  18.956  0.00  0.00    +0.000 C 
ATOM     26  C   UNL     1       1.743   3.311  20.084  0.00  0.00    +0.000 C 
ATOM     27  C   UNL     1       2.691   4.504  19.894  0.00  0.00    +0.000 C 
BRANCH  25  28
ATOM     28  O   UNL     1       1.084   1.135  19.156  0.00  0.00    +0.000 OA
ATOM     29  H   UNL     1       0.570   0.975  18.345  0.00  0.00    +0.000 HD
ENDBRANCH  25  28
BRANCH  26  30
ATOM     30  O   UNL     1       0.378   3.741  20.174  0.00  0.00    +0.000 OA
ATOM     31  H   UNL     1       0.339   4.678  19.903  0.00  0.00    +0.000 HD
ENDBRANCH  26  30
BRANCH  27  32
ATOM     32  O   UNL     1       2.676   5.325  21.082  0.00  0.00    +0.000 OA
ATOM     33  H   UNL     1       1.975   5.993  20.994  0.00  0.00    +0.000 HD
ENDBRANCH  27  32
ENDBRANCH  21  22
ENDBRANCH   6  21
TORSDOF 10
ENDMDL
MODEL 9
REMARK VINA RESULT:      -7.6      1.315      2.050
REMARK  Name = 
REMARK  10 active torsions:
REMARK  status: ('A' for Active; 'I' for Inactive)
REMARK    1  A    between atoms: O_1  and  C_2
REMARK    2  A    between atoms: C_5  and  C_6
REMARK    3  A    between atoms: C_7  and  C_8
REMARK    4  A    between atoms: C_10  and  O_11
REMARK    5  A    between atoms: C_13  and  O_14
REMARK    6  A    between atoms: C_15  and  O_16
REMARK    7  A    between atoms: O_16  and  C_17
REMARK    8  A    between atoms: C_20  and  O_21
REMARK    9  A    between atoms: C_22  and  O_23
REMARK   10  A    between atoms: C_24  and  O_25
REMARK                            x       y       z     vdW  Elec       q    Type
REMARK                         _______ _______ _______ _____ _____    ______ ____
ROOT
ATOM      1  C   UNL     1       2.686   4.984  20.460  0.00  0.00    +0.000 A 
ATOM      2  C   UNL     1       1.677   4.265  21.115  0.00  0.00    +0.000 A 
ATOM      3  C   UNL     1       1.858   2.913  21.378  0.00  0.00    +0.000 A 
ATOM      4  C   UNL     1       3.026   2.265  20.999  0.00  0.00    +0.000 A 
ATOM      5  C   UNL     1       4.043   2.981  20.360  0.00  0.00    +0.000 A 
ATOM      6  C   UNL     1       3.881   4.343  20.063  0.00  0.00    +0.000 A 
ENDROOT
BRANCH   1   8
ATOM      7  C   UNL     1       1.459   7.101  20.784  0.00  0.00    +0.000 C 
ATOM      8  C   UNL     1       2.468   6.418  20.218  0.00  0.00    +0.000 C 
BRANCH   7  12
ATOM      9  C   UNL     1       0.608  11.229  20.072  0.00  0.00    +0.000 A 
ATOM     10  C   UNL     1       1.065  10.441  19.022  0.00  0.00    +0.000 A 
ATOM     11  C   UNL     1       1.347   9.092  19.249  0.00  0.00    +0.000 A 
ATOM     12  C   UNL     1       1.194   8.526  20.524  0.00  0.00    +0.000 A 
ATOM     13  C   UNL     1       0.714   9.338  21.563  0.00  0.00    +0.000 A 
ATOM     14  C   UNL     1       0.427  10.689  21.336  0.00  0.00    +0.000 A 
BRANCH   9  15
ATOM     15  O   UNL     1       0.317  12.549  19.894  0.00  0.00    +0.000 OA
ATOM     16  H   UNL     1      -0.377  12.626  19.220  0.00  0.00    +0.000 HD
ENDBRANCH   9  15
ENDBRANCH   7  12
ENDBRANCH   1   8
BRANCH   3  17
ATOM     17  O   UNL     1       0.913   2.180  22.033  0.00  0.00    +0.000 OA
ATOM     18  H   UNL     1       0.034   2.455  21.722  0.00  0.00    +0.000 HD
ENDBRANCH   3  17
BRANCH   5  19
ATOM     19  O   UNL     1       5.209   2.318  20.080  0.00  0.00    +0.000 OA
ATOM     20  H   UNL     1       5.926   2.750  20.575  0.00  0.00    +0.000 HD
ENDBRANCH   5  19
BRANCH   6  21
ATOM     21  O   UNL     1       4.815   5.160  19.481  0.00  0.00    +0.000 OA
BRANCH  21  22
ATOM     22  C   UNL     1       5.299   4.878  18.157  0.00  0.00    +0.000 C 
ATOM     23  O   UNL     1       6.690   4.551  18.107  0.00  0.00    +0.000 OA
ATOM     24  C   UNL     1       7.212   4.381  16.801  0.00  0.00    +0.000 C 
ATOM     25  C   UNL     1       6.982   5.607  15.923  0.00  0.00    +0.000 C 
ATOM     26  C   UNL     1       5.475   5.855  15.808  0.00  0.00    +0.000 C 
ATOM     27  C   UNL     1       4.828   6.000  17.192  0.00  0.00    +0.000 C 
BRANCH  25  28
ATOM     28  O   UNL     1       7.589   5.397  14.646  0.00  0.00    +0.000 OA
ATOM     29  H   UNL     1       7.817   6.262  14.263  0.00  0.00    +0.000 HD
ENDBRANCH  25  28
BRANCH  26  30
ATOM     30  O   UNL     1       5.219   7.006  14.992  0.00  0.00    +0.000 OA
ATOM     31  H   UNL     1       4.433   7.460  15.350  0.00  0.00    +0.000 HD
ENDBRANCH  26  30
BRANCH  27  32
ATOM     32  O   UNL     1       3.390   5.999  17.055  0.00  0.00    +0.000 OA
ATOM     33  H   UNL     1       3.024   6.734  17.575  0.00  0.00    +0.000 HD
ENDBRANCH  27  32
ENDBRANCH  21  22
ENDBRANCH   6  21
TORSDOF 10
ENDMDL
