MODEL 1
REMARK VINA RESULT:      -7.6      0.000      0.000
REMARK  Name = 
REMARK  8 active torsions:
REMARK  status: ('A' for Active; 'I' for Inactive)
REMARK    1  A    between atoms: C_1  and  C_2
REMARK    2  A    between atoms: C_2  and  O_3
REMARK    3  A    between atoms: O_3  and  C_4
REMARK    4  A    between atoms: C_6  and  C_7
REMARK    5  A    between atoms: C_7  and  N_8
REMARK    6  A    between atoms: C_11  and  C_12
REMARK    7  A    between atoms: C_19  and  O_20
REMARK    8  A    between atoms: C_24  and  O_25
REMARK                            x       y       z     vdW  Elec       q    Type
REMARK                         _______ _______ _______ _____ _____    ______ ____
ROOT
ATOM      1  N   UNL     1       3.317   5.959  18.691  0.00  0.00    +0.000 NA
ATOM      2  C   UNL     1       2.885   5.663  20.066  0.00  0.00    +0.000 C 
ATOM      3  C   UNL     1       1.764   6.549  20.603  0.00  0.00    +0.000 C 
ATOM      4  C   UNL     1       1.975   8.000  20.169  0.00  0.00    +0.000 C 
ATOM      5  C   UNL     1       1.900   8.092  18.634  0.00  0.00    +0.000 C 
ATOM      6  C   UNL     1       2.392   6.806  17.920  0.00  0.00    +0.000 C 
ENDROOT
BRANCH   4   7
ATOM      7  C   UNL     1       0.996   8.927  20.875  0.00  0.00    +0.000 A 
ATOM      8  C   UNL     1       0.875   8.878  22.273  0.00  0.00    +0.000 A 
ATOM      9  C   UNL     1      -0.038   9.702  22.933  0.00  0.00    +0.000 A 
ATOM     10  C   UNL     1      -0.827  10.577  22.198  0.00  0.00    +0.000 A 
ATOM     11  F   UNL     1      -1.707  11.364  22.833  0.00  0.00    +0.000 F 
ATOM     12  C   UNL     1      -0.721  10.647  20.816  0.00  0.00    +0.000 A 
ATOM     13  C   UNL     1       0.191   9.823  20.154  0.00  0.00    +0.000 A 
ENDBRANCH   4   7
BRANCH   5  14
ATOM     14  O   UNL     1       2.638   9.230  18.178  0.00  0.00    +0.000 OA
ATOM     15  H   UNL     1       3.095   8.957  17.361  0.00  0.00    +0.000 HD
ENDBRANCH   5  14
BRANCH   1  16
ATOM     16  C   UNL     1       3.594   4.713  17.944  0.00  0.00    +0.000 C 
BRANCH  16  19
ATOM     17  C   UNL     1       6.814   5.892  16.242  0.00  0.00    +0.000 A 
ATOM     18  C   UNL     1       5.782   5.727  17.174  0.00  0.00    +0.000 A 
ATOM     19  C   UNL     1       4.731   4.825  16.950  0.00  0.00    +0.000 A 
ATOM     20  C   UNL     1       4.737   4.065  15.774  0.00  0.00    +0.000 A 
ATOM     21  C   UNL     1       5.769   4.207  14.845  0.00  0.00    +0.000 A 
ATOM     22  C   UNL     1       6.807   5.115  15.079  0.00  0.00    +0.000 A 
BRANCH  22  23
ATOM     23  O   UNL     1       7.811   5.209  14.155  0.00  0.00    +0.000 OA
ATOM     24  H   UNL     1       8.661   5.284  14.618  0.00  0.00    +0.000 HD
ENDBRANCH  22  23
BRANCH  17  25
ATOM     25  O   UNL     1       7.746   6.821  16.622  0.00  0.00    +0.000 OA
BRANCH  25  27
ATOM     26  C   UNL     1       8.086   8.787  17.923  0.00  0.00    +0.000 C 
ATOM     27  C   UNL     1       7.641   7.335  17.948  0.00  0.00    +0.000 C 
ENDBRANCH  25  27
ENDBRANCH  17  25
ENDBRANCH  16  19
ENDBRANCH   1  16
TORSDOF 7
ENDMDL
MODEL 2
REMARK VINA RESULT:      -7.3      1.594      2.775
REMARK  Name = 
REMARK  8 active torsions:
REMARK  status: ('A' for Active; 'I' for Inactive)
REMARK    1  A    between atoms: C_1  and  C_2
REMARK    2  A    between atoms: C_2  and  O_3
REMARK    3  A    between atoms: O_3  and  C_4
REMARK    4  A    between atoms: C_6  and  C_7
REMARK    5  A    between atoms: C_7  and  N_8
REMARK    6  A    between atoms: C_11  and  C_12
REMARK    7  A    between atoms: C_19  and  O_20
REMARK    8  A    between atoms: C_24  and  O_25
REMARK                            x       y       z     vdW  Elec       q    Type
REMARK                         _______ _______ _______ _____ _____    ______ ____
ROOT
ATOM      1  N   UNL     1       2.632   7.061  18.745  0.00  0.00    +0.000 NA
ATOM      2  C   UNL     1       2.282   6.710  20.130  0.00  0.00    +0.000 C 
ATOM      3  C   UNL     1       1.240   7.610  20.788  0.00  0.00    +0.000 C 
ATOM      4  C   UNL     1       1.484   9.072  20.414  0.00  0.00    +0.000 C 
ATOM      5  C   UNL     1       1.310   9.249  18.895  0.00  0.00    +0.000 C 
ATOM      6  C   UNL     1       1.695   7.985  18.084  0.00  0.00    +0.000 C 
ENDROOT
BRANCH   4   7
ATOM      7  C   UNL     1       0.596   9.999  21.233  0.00  0.00    +0.000 A 
ATOM      8  C   UNL     1       0.531  11.364  20.911  0.00  0.00    +0.000 A 
ATOM      9  C   UNL     1      -0.257  12.232  21.668  0.00  0.00    +0.000 A 
ATOM     10  C   UNL     1      -0.983  11.737  22.744  0.00  0.00    +0.000 A 
ATOM     11  F   UNL     1      -1.735  12.573  23.473  0.00  0.00    +0.000 F 
ATOM     12  C   UNL     1      -0.937  10.391  23.077  0.00  0.00    +0.000 A 
ATOM     13  C   UNL     1      -0.150   9.521  22.321  0.00  0.00    +0.000 A 
ENDBRANCH   4   7
BRANCH   5  14
ATOM     14  O   UNL     1       2.064  10.380  18.446  0.00  0.00    +0.000 OA
ATOM     15  H   UNL     1       2.014  11.047  19.155  0.00  0.00    +0.000 HD
ENDBRANCH   5  14
BRANCH   1  16
ATOM     16  C   UNL     1       2.804   5.847  17.919  0.00  0.00    +0.000 C 
BRANCH  16  19
ATOM     17  C   UNL     1       5.950   4.247  16.436  0.00  0.00    +0.000 A 
ATOM     18  C   UNL     1       4.638   4.710  16.595  0.00  0.00    +0.000 A 
ATOM     19  C   UNL     1       4.244   5.414  17.743  0.00  0.00    +0.000 A 
ATOM     20  C   UNL     1       5.199   5.669  18.735  0.00  0.00    +0.000 A 
ATOM     21  C   UNL     1       6.514   5.228  18.582  0.00  0.00    +0.000 A 
ATOM     22  C   UNL     1       6.891   4.523  17.435  0.00  0.00    +0.000 A 
BRANCH  22  23
ATOM     23  O   UNL     1       8.194   4.128  17.311  0.00  0.00    +0.000 OA
ATOM     24  H   UNL     1       8.265   3.492  16.582  0.00  0.00    +0.000 HD
ENDBRANCH  22  23
BRANCH  17  25
ATOM     25  O   UNL     1       6.150   3.573  15.261  0.00  0.00    +0.000 OA
BRANCH  25  27
ATOM     26  C   UNL     1       6.034   3.613  12.883  0.00  0.00    +0.000 C 
ATOM     27  C   UNL     1       6.506   4.353  14.123  0.00  0.00    +0.000 C 
ENDBRANCH  25  27
ENDBRANCH  17  25
ENDBRANCH  16  19
ENDBRANCH   1  16
TORSDOF 7
ENDMDL
MODEL 3
REMARK VINA RESULT:      -7.3      2.848      4.080
REMARK  Name = 
REMARK  8 active torsions:
REMARK  status: ('A' for Active; 'I' for Inactive)
REMARK    1  A    between atoms: C_1  and  C_2
REMARK    2  A    between atoms: C_2  and  O_3
REMARK    3  A    between atoms: O_3  and  C_4
REMARK    4  A    between atoms: C_6  and  C_7
REMARK    5  A    between atoms: C_7  and  N_8
REMARK    6  A    between atoms: C_11  and  C_12
REMARK    7  A    between atoms: C_19  and  O_20
REMARK    8  A    between atoms: C_24  and  O_25
REMARK                            x       y       z     vdW  Elec       q    Type
REMARK                         _______ _______ _______ _____ _____    ______ ____
ROOT
ATOM      1  N   UNL     1       2.568   8.020  18.397  0.00  0.00    +0.000 NA
ATOM      2  C   UNL     1       2.252   7.466  19.722  0.00  0.00    +0.000 C 
ATOM      3  C   UNL     1       1.093   8.140  20.453  0.00  0.00    +0.000 C 
ATOM      4  C   UNL     1       1.148   9.656  20.257  0.00  0.00    +0.000 C 
ATOM      5  C   UNL     1       0.969   9.987  18.764  0.00  0.00    +0.000 C 
ATOM      6  C   UNL     1       1.526   8.887  17.823  0.00  0.00    +0.000 C 
ENDROOT
BRANCH   4   7
ATOM      7  C   UNL     1       0.138  10.357  21.153  0.00  0.00    +0.000 A 
ATOM      8  C   UNL     1      -0.097   9.872  22.450  0.00  0.00    +0.000 A 
ATOM      9  C   UNL     1      -1.041  10.487  23.275  0.00  0.00    +0.000 A 
ATOM     10  C   UNL     1      -1.745  11.588  22.807  0.00  0.00    +0.000 A 
ATOM     11  F   UNL     1      -2.654  12.174  23.599  0.00  0.00    +0.000 F 
ATOM     12  C   UNL     1      -1.525  12.088  21.531  0.00  0.00    +0.000 A 
ATOM     13  C   UNL     1      -0.583  11.475  20.704  0.00  0.00    +0.000 A 
ENDBRANCH   4   7
BRANCH   5  14
ATOM     14  O   UNL     1       1.574  11.250  18.469  0.00  0.00    +0.000 OA
ATOM     15  H   UNL     1       1.547  11.352  17.501  0.00  0.00    +0.000 HD
ENDBRANCH   5  14
BRANCH   1  16
ATOM     16  C   UNL     1       2.906   6.944  17.440  0.00  0.00    +0.000 C 
BRANCH  16  19
ATOM     17  C   UNL     1       3.152   3.461  19.010  0.00  0.00    +0.000 A 
ATOM     18  C   UNL     1       2.657   4.600  18.363  0.00  0.00    +0.000 A 
ATOM     19  C   UNL     1       3.481   5.700  18.084  0.00  0.00    +0.000 A 
ATOM     20  C   UNL     1       4.832   5.636  18.448  0.00  0.00    +0.000 A 
ATOM     21  C   UNL     1       5.342   4.501  19.079  0.00  0.00    +0.000 A 
ATOM     22  C   UNL     1       4.506   3.414  19.357  0.00  0.00    +0.000 A 
BRANCH  22  23
ATOM     23  O   UNL     1       5.049   2.311  19.955  0.00  0.00    +0.000 OA
ATOM     24  H   UNL     1       4.422   1.573  19.888  0.00  0.00    +0.000 HD
ENDBRANCH  22  23
BRANCH  17  25
ATOM     25  O   UNL     1       2.203   2.494  19.210  0.00  0.00    +0.000 OA
BRANCH  25  27
ATOM     26  C   UNL     1       1.522   2.754  21.478  0.00  0.00    +0.000 C 
ATOM     27  C   UNL     1       1.087   2.845  20.025  0.00  0.00    +0.000 C 
ENDBRANCH  25  27
ENDBRANCH  17  25
ENDBRANCH  16  19
ENDBRANCH   1  16
TORSDOF 7
ENDMDL
MODEL 4
REMARK VINA RESULT:      -7.2      1.026      1.182
REMARK  Name = 
REMARK  8 active torsions:
REMARK  status: ('A' for Active; 'I' for Inactive)
REMARK    1  A    between atoms: C_1  and  C_2
REMARK    2  A    between atoms: C_2  and  O_3
REMARK    3  A    between atoms: O_3  and  C_4
REMARK    4  A    between atoms: C_6  and  C_7
REMARK    5  A    between atoms: C_7  and  N_8
REMARK    6  A    between atoms: C_11  and  C_12
REMARK    7  A    between atoms: C_19  and  O_20
REMARK    8  A    between atoms: C_24  and  O_25
REMARK                            x       y       z     vdW  Elec       q    Type
REMARK                         _______ _______ _______ _____ _____    ______ ____
ROOT
ATOM      1  N   UNL     1       3.153   6.654  18.847  0.00  0.00    +0.000 NA
ATOM      2  C   UNL     1       2.588   6.698  20.205  0.00  0.00    +0.000 C 
ATOM      3  C   UNL     1       1.393   7.630  20.385  0.00  0.00    +0.000 C 
ATOM      4  C   UNL     1       1.609   8.931  19.610  0.00  0.00    +0.000 C 
ATOM      5  C   UNL     1       1.692   8.623  18.104  0.00  0.00    +0.000 C 
ATOM      6  C   UNL     1       2.291   7.225  17.799  0.00  0.00    +0.000 C 
ENDROOT
BRANCH   4   7
ATOM      7  C   UNL     1       0.536   9.954  19.955  0.00  0.00    +0.000 A 
ATOM      8  C   UNL     1       0.566  10.601  21.201  0.00  0.00    +0.000 A 
ATOM      9  C   UNL     1      -0.425  11.522  21.544  0.00  0.00    +0.000 A 
ATOM     10  C   UNL     1      -1.444  11.799  20.642  0.00  0.00    +0.000 A 
ATOM     11  F   UNL     1      -2.398  12.680  20.975  0.00  0.00    +0.000 F 
ATOM     12  C   UNL     1      -1.491  11.175  19.403  0.00  0.00    +0.000 A 
ATOM     13  C   UNL     1      -0.501  10.254  19.058  0.00  0.00    +0.000 A 
ENDBRANCH   4   7
BRANCH   5  14
ATOM     14  O   UNL     1       2.443   9.644  17.439  0.00  0.00    +0.000 OA
ATOM     15  H   UNL     1       3.173   9.195  16.976  0.00  0.00    +0.000 HD
ENDBRANCH   5  14
BRANCH   1  16
ATOM     16  C   UNL     1       3.541   5.275  18.480  0.00  0.00    +0.000 C 
BRANCH  16  19
ATOM     17  C   UNL     1       6.728   6.043  16.504  0.00  0.00    +0.000 A 
ATOM     18  C   UNL     1       5.737   6.057  17.492  0.00  0.00    +0.000 A 
ATOM     19  C   UNL     1       4.632   5.195  17.432  0.00  0.00    +0.000 A 
ATOM     20  C   UNL     1       4.541   4.292  16.366  0.00  0.00    +0.000 A 
ATOM     21  C   UNL     1       5.531   4.256  15.383  0.00  0.00    +0.000 A 
ATOM     22  C   UNL     1       6.624   5.126  15.453  0.00  0.00    +0.000 A 
BRANCH  22  23
ATOM     23  O   UNL     1       7.585   5.045  14.483  0.00  0.00    +0.000 OA
ATOM     24  H   UNL     1       8.423   5.382  14.838  0.00  0.00    +0.000 HD
ENDBRANCH  22  23
BRANCH  17  25
ATOM     25  O   UNL     1       7.723   6.959  16.720  0.00  0.00    +0.000 OA
BRANCH  25  27
ATOM     26  C   UNL     1       8.110   8.965  17.945  0.00  0.00    +0.000 C 
ATOM     27  C   UNL     1       7.852   7.471  18.044  0.00  0.00    +0.000 C 
ENDBRANCH  25  27
ENDBRANCH  17  25
ENDBRANCH  16  19
ENDBRANCH   1  16
TORSDOF 7
ENDMDL
MODEL 5
REMARK VINA RESULT:      -7.2      2.282      3.069
REMARK  Name = 
REMARK  8 active torsions:
REMARK  status: ('A' for Active; 'I' for Inactive)
REMARK    1  A    between atoms: C_1  and  C_2
REMARK    2  A    between atoms: C_2  and  O_3
REMARK    3  A    between atoms: O_3  and  C_4
REMARK    4  A    between atoms: C_6  and  C_7
REMARK    5  A    between atoms: C_7  and  N_8
REMARK    6  A    between atoms: C_11  and  C_12
REMARK    7  A    between atoms: C_19  and  O_20
REMARK    8  A    between atoms: C_24  and  O_25
REMARK                            x       y       z     vdW  Elec       q    Type
REMARK                         _______ _______ _______ _____ _____    ______ ____
ROOT
ATOM      1  N   UNL     1       2.262   8.134  18.665  0.00  0.00    +0.000 NA
ATOM      2  C   UNL     1       1.877   7.674  20.009  0.00  0.00    +0.000 C 
ATOM      3  C   UNL     1       0.863   8.554  20.734  0.00  0.00    +0.000 C 
ATOM      4  C   UNL     1       1.172  10.033  20.498  0.00  0.00    +0.000 C 
ATOM      5  C   UNL     1       1.028  10.354  18.999  0.00  0.00    +0.000 C 
ATOM      6  C   UNL     1       1.374   9.152  18.081  0.00  0.00    +0.000 C 
ENDROOT
BRANCH   4   7
ATOM      7  C   UNL     1       0.311  10.918  21.387  0.00  0.00    +0.000 A 
ATOM      8  C   UNL     1      -0.542  10.332  22.336  0.00  0.00    +0.000 A 
ATOM      9  C   UNL     1      -1.359  11.128  23.140  0.00  0.00    +0.000 A 
ATOM     10  C   UNL     1      -1.321  12.509  23.000  0.00  0.00    +0.000 A 
ATOM     11  F   UNL     1      -2.110  13.272  23.770  0.00  0.00    +0.000 F 
ATOM     12  C   UNL     1      -0.483  13.111  22.072  0.00  0.00    +0.000 A 
ATOM     13  C   UNL     1       0.335  12.316  21.266  0.00  0.00    +0.000 A 
ENDBRANCH   4   7
BRANCH   5  14
ATOM     14  O   UNL     1       1.835  11.487  18.664  0.00  0.00    +0.000 OA
ATOM     15  H   UNL     1       2.747  11.267  18.927  0.00  0.00    +0.000 HD
ENDBRANCH   5  14
BRANCH   1  16
ATOM     16  C   UNL     1       2.396   6.993  17.734  0.00  0.00    +0.000 C 
BRANCH  16  19
ATOM     17  C   UNL     1       5.187   4.790  19.153  0.00  0.00    +0.000 A 
ATOM     18  C   UNL     1       4.477   5.896  18.669  0.00  0.00    +0.000 A 
ATOM     19  C   UNL     1       3.123   5.799  18.316  0.00  0.00    +0.000 A 
ATOM     20  C   UNL     1       2.474   4.568  18.474  0.00  0.00    +0.000 A 
ATOM     21  C   UNL     1       3.165   3.463  18.972  0.00  0.00    +0.000 A 
ATOM     22  C   UNL     1       4.516   3.573  19.314  0.00  0.00    +0.000 A 
BRANCH  22  23
ATOM     23  O   UNL     1       5.153   2.473  19.819  0.00  0.00    +0.000 OA
ATOM     24  H   UNL     1       5.622   2.723  20.630  0.00  0.00    +0.000 HD
ENDBRANCH  22  23
BRANCH  17  25
ATOM     25  O   UNL     1       6.498   5.067  19.435  0.00  0.00    +0.000 OA
BRANCH  25  27
ATOM     26  C   UNL     1       7.903   6.713  18.441  0.00  0.00    +0.000 C 
ATOM     27  C   UNL     1       7.362   5.298  18.325  0.00  0.00    +0.000 C 
ENDBRANCH  25  27
ENDBRANCH  17  25
ENDBRANCH  16  19
ENDBRANCH   1  16
TORSDOF 7
ENDMDL
MODEL 6
REMARK VINA RESULT:      -7.1      2.881      4.265
REMARK  Name = 
REMARK  8 active torsions:
REMARK  status: ('A' for Active; 'I' for Inactive)
REMARK    1  A    between atoms: C_1  and  C_2
REMARK    2  A    between atoms: C_2  and  O_3
REMARK    3  A    between atoms: O_3  and  C_4
REMARK    4  A    between atoms: C_6  and  C_7
REMARK    5  A    between atoms: C_7  and  N_8
REMARK    6  A    between atoms: C_11  and  C_12
REMARK    7  A    between atoms: C_19  and  O_20
REMARK    8  A    between atoms: C_24  and  O_25
REMARK                            x       y       z     vdW  Elec       q    Type
REMARK                         _______ _______ _______ _____ _____    ______ ____
ROOT
ATOM      1  N   UNL     1       2.290   8.164  18.507  0.00  0.00    +0.000 NA
ATOM      2  C   UNL     1       1.967   7.696  19.864  0.00  0.00    +0.000 C 
ATOM      3  C   UNL     1       0.939   8.536  20.618  0.00  0.00    +0.000 C 
ATOM      4  C   UNL     1       1.178  10.025  20.366  0.00  0.00    +0.000 C 
ATOM      5  C   UNL     1       0.973  10.331  18.871  0.00  0.00    +0.000 C 
ATOM      6  C   UNL     1       1.341   9.141  17.947  0.00  0.00    +0.000 C 
ENDROOT
BRANCH   4   7
ATOM      7  C   UNL     1       0.308  10.878  21.278  0.00  0.00    +0.000 A 
ATOM      8  C   UNL     1       0.331  12.276  21.153  0.00  0.00    +0.000 A 
ATOM      9  C   UNL     1      -0.440  13.074  22.000  0.00  0.00    +0.000 A 
ATOM     10  C   UNL     1      -1.236  12.476  22.968  0.00  0.00    +0.000 A 
ATOM     11  F   UNL     1      -1.972  13.244  23.784  0.00  0.00    +0.000 F 
ATOM     12  C   UNL     1      -1.278  11.096  23.106  0.00  0.00    +0.000 A 
ATOM     13  C   UNL     1      -0.508  10.296  22.261  0.00  0.00    +0.000 A 
ENDBRANCH   4   7
BRANCH   5  14
ATOM     14  O   UNL     1       1.720  11.496  18.505  0.00  0.00    +0.000 OA
ATOM     15  H   UNL     1       2.438  11.194  17.919  0.00  0.00    +0.000 HD
ENDBRANCH   5  14
BRANCH   1  16
ATOM     16  C   UNL     1       2.443   7.025  17.577  0.00  0.00    +0.000 C 
BRANCH  16  19
ATOM     17  C   UNL     1       3.140   3.572  19.076  0.00  0.00    +0.000 A 
ATOM     18  C   UNL     1       2.491   4.660  18.479  0.00  0.00    +0.000 A 
ATOM     19  C   UNL     1       3.181   5.840  18.163  0.00  0.00    +0.000 A 
ATOM     20  C   UNL     1       4.553   5.910  18.438  0.00  0.00    +0.000 A 
ATOM     21  C   UNL     1       5.215   4.827  19.017  0.00  0.00    +0.000 A 
ATOM     22  C   UNL     1       4.513   3.660  19.332  0.00  0.00    +0.000 A 
BRANCH  22  23
ATOM     23  O   UNL     1       5.201   2.611  19.878  0.00  0.00    +0.000 OA
ATOM     24  H   UNL     1       4.635   2.163  20.525  0.00  0.00    +0.000 HD
ENDBRANCH  22  23
BRANCH  17  25
ATOM     25  O   UNL     1       2.308   2.512  19.323  0.00  0.00    +0.000 OA
BRANCH  25  27
ATOM     26  C   UNL     1       1.667   2.808  21.598  0.00  0.00    +0.000 C 
ATOM     27  C   UNL     1       1.180   2.760  20.159  0.00  0.00    +0.000 C 
ENDBRANCH  25  27
ENDBRANCH  17  25
ENDBRANCH  16  19
ENDBRANCH   1  16
TORSDOF 7
ENDMDL
MODEL 7
REMARK VINA RESULT:      -7.1      1.475      1.917
REMARK  Name = 
REMARK  8 active torsions:
REMARK  status: ('A' for Active; 'I' for Inactive)
REMARK    1  A    between atoms: C_1  and  C_2
REMARK    2  A    between atoms: C_2  and  O_3
REMARK    3  A    between atoms: O_3  and  C_4
REMARK    4  A    between atoms: C_6  and  C_7
REMARK    5  A    between atoms: C_7  and  N_8
REMARK    6  A    between atoms: C_11  and  C_12
REMARK    7  A    between atoms: C_19  and  O_20
REMARK    8  A    between atoms: C_24  and  O_25
REMARK                            x       y       z     vdW  Elec       q    Type
REMARK                         _______ _______ _______ _____ _____    ______ ____
ROOT
ATOM      1  N   UNL     1       3.435   4.494  18.292  0.00  0.00    +0.000 NA
ATOM      2  C   UNL     1       3.537   5.739  17.515  0.00  0.00    +0.000 C 
ATOM      3  C   UNL     1       3.224   7.019  18.285  0.00  0.00    +0.000 C 
ATOM      4  C   UNL     1       2.032   6.803  19.218  0.00  0.00    +0.000 C 
ATOM      5  C   UNL     1       2.392   5.741  20.273  0.00  0.00    +0.000 C 
ATOM      6  C   UNL     1       3.396   4.679  19.753  0.00  0.00    +0.000 C 
ENDROOT
BRANCH   4   7
ATOM      7  C   UNL     1       1.571   8.119  19.825  0.00  0.00    +0.000 A 
ATOM      8  C   UNL     1       1.412   8.227  21.216  0.00  0.00    +0.000 A 
ATOM      9  C   UNL     1       0.963   9.420  21.786  0.00  0.00    +0.000 A 
ATOM     10  C   UNL     1       0.677  10.505  20.968  0.00  0.00    +0.000 A 
ATOM     11  F   UNL     1       0.241  11.648  21.517  0.00  0.00    +0.000 F 
ATOM     12  C   UNL     1       0.832  10.423  19.592  0.00  0.00    +0.000 A 
ATOM     13  C   UNL     1       1.280   9.232  19.019  0.00  0.00    +0.000 A 
ENDBRANCH   4   7
BRANCH   5  14
ATOM     14  O   UNL     1       1.201   5.109  20.754  0.00  0.00    +0.000 OA
ATOM     15  H   UNL     1       0.620   4.986  19.982  0.00  0.00    +0.000 HD
ENDBRANCH   5  14
BRANCH   1  16
ATOM     16  C   UNL     1       4.521   3.556  17.936  0.00  0.00    +0.000 C 
BRANCH  16  19
ATOM     17  C   UNL     1       7.090   5.678  16.053  0.00  0.00    +0.000 A 
ATOM     18  C   UNL     1       6.276   5.160  17.067  0.00  0.00    +0.000 A 
ATOM     19  C   UNL     1       5.439   4.057  16.841  0.00  0.00    +0.000 A 
ATOM     20  C   UNL     1       5.443   3.458  15.575  0.00  0.00    +0.000 A 
ATOM     21  C   UNL     1       6.263   3.955  14.560  0.00  0.00    +0.000 A 
ATOM     22  C   UNL     1       7.087   5.059  14.798  0.00  0.00    +0.000 A 
BRANCH  22  23
ATOM     23  O   UNL     1       7.893   5.502  13.786  0.00  0.00    +0.000 OA
ATOM     24  H   UNL     1       7.911   4.836  13.081  0.00  0.00    +0.000 HD
ENDBRANCH  22  23
BRANCH  17  25
ATOM     25  O   UNL     1       7.830   6.761  16.450  0.00  0.00    +0.000 OA
BRANCH  25  27
ATOM     26  C   UNL     1       8.289   8.146  18.333  0.00  0.00    +0.000 C 
ATOM     27  C   UNL     1       7.216   7.656  17.375  0.00  0.00    +0.000 C 
ENDBRANCH  25  27
ENDBRANCH  17  25
ENDBRANCH  16  19
ENDBRANCH   1  16
TORSDOF 7
ENDMDL
MODEL 8
REMARK VINA RESULT:      -7.1      2.944      4.373
REMARK  Name = 
REMARK  8 active torsions:
REMARK  status: ('A' for Active; 'I' for Inactive)
REMARK    1  A    between atoms: C_1  and  C_2
REMARK    2  A    between atoms: C_2  and  O_3
REMARK    3  A    between atoms: O_3  and  C_4
REMARK    4  A    between atoms: C_6  and  C_7
REMARK    5  A    between atoms: C_7  and  N_8
REMARK    6  A    between atoms: C_11  and  C_12
REMARK    7  A    between atoms: C_19  and  O_20
REMARK    8  A    between atoms: C_24  and  O_25
REMARK                            x       y       z     vdW  Elec       q    Type
REMARK                         _______ _______ _______ _____ _____    ______ ____
ROOT
ATOM      1  N   UNL     1       1.977   7.965  18.461  0.00  0.00    +0.000 NA
ATOM      2  C   UNL     1       1.527   9.220  17.838  0.00  0.00    +0.000 C 
ATOM      3  C   UNL     1       1.000  10.277  18.804  0.00  0.00    +0.000 C 
ATOM      4  C   UNL     1       0.152   9.626  19.897  0.00  0.00    +0.000 C 
ATOM      5  C   UNL     1       1.031   8.678  20.733  0.00  0.00    +0.000 C 
ATOM      6  C   UNL     1       2.185   8.037  19.917  0.00  0.00    +0.000 C 
ENDROOT
BRANCH   4   7
ATOM      7  C   UNL     1      -0.559  10.679  20.734  0.00  0.00    +0.000 A 
ATOM      8  C   UNL     1      -0.421  10.668  22.132  0.00  0.00    +0.000 A 
ATOM      9  C   UNL     1      -1.088  11.610  22.916  0.00  0.00    +0.000 A 
ATOM     10  C   UNL     1      -1.889  12.566  22.306  0.00  0.00    +0.000 A 
ATOM     11  F   UNL     1      -2.533  13.467  23.061  0.00  0.00    +0.000 F 
ATOM     12  C   UNL     1      -2.036  12.600  20.926  0.00  0.00    +0.000 A 
ATOM     13  C   UNL     1      -1.371  11.658  20.140  0.00  0.00    +0.000 A 
ENDBRANCH   4   7
BRANCH   5  14
ATOM     14  O   UNL     1       0.220   7.663  21.333  0.00  0.00    +0.000 OA
ATOM     15  H   UNL     1       0.173   6.929  20.693  0.00  0.00    +0.000 HD
ENDBRANCH   5  14
BRANCH   1  16
ATOM     16  C   UNL     1       3.202   7.458  17.806  0.00  0.00    +0.000 C 
BRANCH  16  19
ATOM     17  C   UNL     1       3.059   3.818  18.984  0.00  0.00    +0.000 A 
ATOM     18  C   UNL     1       2.689   5.075  18.489  0.00  0.00    +0.000 A 
ATOM     19  C   UNL     1       3.637   6.087  18.280  0.00  0.00    +0.000 A 
ATOM     20  C   UNL     1       4.983   5.815  18.556  0.00  0.00    +0.000 A 
ATOM     21  C   UNL     1       5.367   4.560  19.033  0.00  0.00    +0.000 A 
ATOM     22  C   UNL     1       4.410   3.563  19.243  0.00  0.00    +0.000 A 
BRANCH  22  23
ATOM     23  O   UNL     1       4.829   2.340  19.689  0.00  0.00    +0.000 OA
ATOM     24  H   UNL     1       5.749   2.201  19.414  0.00  0.00    +0.000 HD
ENDBRANCH  22  23
BRANCH  17  25
ATOM     25  O   UNL     1       2.001   2.961  19.136  0.00  0.00    +0.000 OA
BRANCH  25  27
ATOM     26  C   UNL     1       1.509   2.753  21.457  0.00  0.00    +0.000 C 
ATOM     27  C   UNL     1       1.032   3.303  20.123  0.00  0.00    +0.000 C 
ENDBRANCH  25  27
ENDBRANCH  17  25
ENDBRANCH  16  19
ENDBRANCH   1  16
TORSDOF 7
ENDMDL
MODEL 9
REMARK VINA RESULT:      -7.1      3.084      4.533
REMARK  Name = 
REMARK  8 active torsions:
REMARK  status: ('A' for Active; 'I' for Inactive)
REMARK    1  A    between atoms: C_1  and  C_2
REMARK    2  A    between atoms: C_2  and  O_3
REMARK    3  A    between atoms: O_3  and  C_4
REMARK    4  A    between atoms: C_6  and  C_7
REMARK    5  A    between atoms: C_7  and  N_8
REMARK    6  A    between atoms: C_11  and  C_12
REMARK    7  A    between atoms: C_19  and  O_20
REMARK    8  A    between atoms: C_24  and  O_25
REMARK                            x       y       z     vdW  Elec       q    Type
REMARK                         _______ _______ _______ _____ _____    ______ ____
ROOT
ATOM      1  N   UNL     1       1.908   7.968  18.657  0.00  0.00    +0.000 NA
ATOM      2  C   UNL     1       1.622   9.197  17.901  0.00  0.00    +0.000 C 
ATOM      3  C   UNL     1       1.091  10.365  18.727  0.00  0.00    +0.000 C 
ATOM      4  C   UNL     1       0.092   9.868  19.773  0.00  0.00    +0.000 C 
ATOM      5  C   UNL     1       0.809   8.930  20.762  0.00  0.00    +0.000 C 
ATOM      6  C   UNL     1       1.980   8.143  20.118  0.00  0.00    +0.000 C 
ENDROOT
BRANCH   4   7
ATOM      7  C   UNL     1      -0.609  11.035  20.454  0.00  0.00    +0.000 A 
ATOM      8  C   UNL     1      -0.221  11.422  21.747  0.00  0.00    +0.000 A 
ATOM      9  C   UNL     1      -0.872  12.473  22.395  0.00  0.00    +0.000 A 
ATOM     10  C   UNL     1      -1.907  13.139  21.752  0.00  0.00    +0.000 A 
ATOM     11  F   UNL     1      -2.534  14.144  22.379  0.00  0.00    +0.000 F 
ATOM     12  C   UNL     1      -2.303  12.777  20.473  0.00  0.00    +0.000 A 
ATOM     13  C   UNL     1      -1.654  11.727  19.822  0.00  0.00    +0.000 A 
ENDBRANCH   4   7
BRANCH   5  14
ATOM     14  O   UNL     1      -0.135   8.029  21.350  0.00  0.00    +0.000 OA
ATOM     15  H   UNL     1      -0.499   8.480  22.134  0.00  0.00    +0.000 HD
ENDBRANCH   5  14
BRANCH   1  16
ATOM     16  C   UNL     1       3.145   7.322  18.169  0.00  0.00    +0.000 C 
BRANCH  16  19
ATOM     17  C   UNL     1       1.985   3.704  18.642  0.00  0.00    +0.000 A 
ATOM     18  C   UNL     1       2.064   5.100  18.720  0.00  0.00    +0.000 A 
ATOM     19  C   UNL     1       3.041   5.818  18.016  0.00  0.00    +0.000 A 
ATOM     20  C   UNL     1       3.939   5.114  17.204  0.00  0.00    +0.000 A 
ATOM     21  C   UNL     1       3.861   3.724  17.104  0.00  0.00    +0.000 A 
ATOM     22  C   UNL     1       2.885   3.020  17.817  0.00  0.00    +0.000 A 
BRANCH  22  23
ATOM     23  O   UNL     1       2.826   1.661  17.674  0.00  0.00    +0.000 OA
ATOM     24  H   UNL     1       3.533   1.375  17.074  0.00  0.00    +0.000 HD
ENDBRANCH  22  23
BRANCH  17  25
ATOM     25  O   UNL     1       0.979   3.172  19.404  0.00  0.00    +0.000 OA
BRANCH  25  27
ATOM     26  C   UNL     1       1.881   2.601  21.533  0.00  0.00    +0.000 C 
ATOM     27  C   UNL     1       0.952   3.539  20.781  0.00  0.00    +0.000 C 
ENDBRANCH  25  27
ENDBRANCH  17  25
ENDBRANCH  16  19
ENDBRANCH   1  16
TORSDOF 7
ENDMDL
