MODEL 1
REMARK VINA RESULT:      -8.1      0.000      0.000
REMARK  Name = 
REMARK  5 active torsions:
REMARK  status: ('A' for Active; 'I' for Inactive)
REMARK    1  A    between atoms: C_1  and  O_2
REMARK    2  A    between atoms: O_2  and  C_3
REMARK    3  A    between atoms: C_8  and  C_9
REMARK    4  A    between atoms: C_9  and  N_10
REMARK    5  A    between atoms: C_19  and  C_20
REMARK                            x       y       z     vdW  Elec       q    Type
REMARK                         _______ _______ _______ _____ _____    ______ ____
ROOT
ATOM      1  N   UNL     1       5.342   5.531  18.110  0.00  0.00    +0.000 N 
ATOM      2  C   UNL     1       4.818   5.956  16.824  0.00  0.00    +0.000 C 
ATOM      3  C   UNL     1       5.493   5.262  15.671  0.00  0.00    +0.000 A 
ATOM      4  C   UNL     1       4.746   4.426  14.824  0.00  0.00    +0.000 A 
ATOM      5  C   UNL     1       5.337   3.817  13.715  0.00  0.00    +0.000 A 
ATOM      6  C   UNL     1       6.683   4.031  13.438  0.00  0.00    +0.000 A 
ATOM      7  C   UNL     1       7.432   4.862  14.265  0.00  0.00    +0.000 A 
ATOM      8  C   UNL     1       6.844   5.466  15.381  0.00  0.00    +0.000 A 
ATOM      9  O   UNL     1       7.639   6.351  16.038  0.00  0.00    +0.000 OA
ATOM     10  C   UNL     1       7.625   6.357  17.451  0.00  0.00    +0.000 C 
ATOM     11  C   UNL     1       7.510   7.832  17.872  0.00  0.00    +0.000 C 
ATOM     12  C   UNL     1       6.698   5.546  18.391  0.00  0.00    +0.000 C 
ATOM     13  O   UNL     1       7.156   5.061  19.431  0.00  0.00    +0.000 OA
ENDROOT
BRANCH   1  14
ATOM     14  C   UNL     1       4.403   5.414  19.230  0.00  0.00    +0.000 C 
BRANCH  14  20
ATOM     15  C   UNL     1       3.607   2.994  19.323  0.00  0.00    +0.000 A 
ATOM     16  C   UNL     1       2.607   2.032  19.125  0.00  0.00    +0.000 A 
ATOM     17  C   UNL     1       1.369   2.398  18.599  0.00  0.00    +0.000 A 
ATOM     18  C   UNL     1       1.113   3.730  18.294  0.00  0.00    +0.000 A 
ATOM     19  C   UNL     1       2.083   4.700  18.546  0.00  0.00    +0.000 A 
ATOM     20  C   UNL     1       3.337   4.353  19.077  0.00  0.00    +0.000 A 
BRANCH  15  22
ATOM     21  C   UNL     1       4.932   1.644  20.742  0.00  0.00    +0.000 C 
ATOM     22  O   UNL     1       4.871   2.671  19.752  0.00  0.00    +0.000 OA
ENDBRANCH  15  22
ENDBRANCH  14  20
ENDBRANCH   1  14
TORSDOF 3
ENDMDL
MODEL 2
REMARK VINA RESULT:      -7.7      1.150      1.842
REMARK  Name = 
REMARK  5 active torsions:
REMARK  status: ('A' for Active; 'I' for Inactive)
REMARK    1  A    between atoms: C_1  and  O_2
REMARK    2  A    between atoms: O_2  and  C_3
REMARK    3  A    between atoms: C_8  and  C_9
REMARK    4  A    between atoms: C_9  and  N_10
REMARK    5  A    between atoms: C_19  and  C_20
REMARK                            x       y       z     vdW  Elec       q    Type
REMARK                         _______ _______ _______ _____ _____    ______ ____
ROOT
ATOM      1  N   UNL     1       5.543   5.313  18.168  0.00  0.00    +0.000 N 
ATOM      2  C   UNL     1       4.912   5.751  16.936  0.00  0.00    +0.000 C 
ATOM      3  C   UNL     1       5.548   5.140  15.716  0.00  0.00    +0.000 A 
ATOM      4  C   UNL     1       4.798   4.290  14.887  0.00  0.00    +0.000 A 
ATOM      5  C   UNL     1       5.348   3.758  13.719  0.00  0.00    +0.000 A 
ATOM      6  C   UNL     1       6.658   4.064  13.365  0.00  0.00    +0.000 A 
ATOM      7  C   UNL     1       7.411   4.908  14.175  0.00  0.00    +0.000 A 
ATOM      8  C   UNL     1       6.863   5.436  15.349  0.00  0.00    +0.000 A 
ATOM      9  O   UNL     1       7.647   6.344  15.988  0.00  0.00    +0.000 OA
ATOM     10  C   UNL     1       7.725   6.300  17.398  0.00  0.00    +0.000 C 
ATOM     11  C   UNL     1       7.552   7.750  17.883  0.00  0.00    +0.000 C 
ATOM     12  C   UNL     1       6.911   5.401  18.363  0.00  0.00    +0.000 C 
ATOM     13  O   UNL     1       7.465   4.909  19.351  0.00  0.00    +0.000 OA
ENDROOT
BRANCH   1  14
ATOM     14  C   UNL     1       4.688   5.100  19.340  0.00  0.00    +0.000 C 
BRANCH  14  20
ATOM     15  C   UNL     1       2.194   4.579  19.262  0.00  0.00    +0.000 A 
ATOM     16  C   UNL     1       1.145   3.661  19.114  0.00  0.00    +0.000 A 
ATOM     17  C   UNL     1       1.414   2.305  18.932  0.00  0.00    +0.000 A 
ATOM     18  C   UNL     1       2.730   1.863  18.868  0.00  0.00    +0.000 A 
ATOM     19  C   UNL     1       3.778   2.780  18.954  0.00  0.00    +0.000 A 
ATOM     20  C   UNL     1       3.529   4.151  19.137  0.00  0.00    +0.000 A 
BRANCH  15  22
ATOM     21  C   UNL     1       1.489   6.187  20.845  0.00  0.00    +0.000 C 
ATOM     22  O   UNL     1       1.981   5.908  19.535  0.00  0.00    +0.000 OA
ENDBRANCH  15  22
ENDBRANCH  14  20
ENDBRANCH   1  14
TORSDOF 3
ENDMDL
MODEL 3
REMARK VINA RESULT:      -7.7      1.619      2.057
REMARK  Name = 
REMARK  5 active torsions:
REMARK  status: ('A' for Active; 'I' for Inactive)
REMARK    1  A    between atoms: C_1  and  O_2
REMARK    2  A    between atoms: O_2  and  C_3
REMARK    3  A    between atoms: C_8  and  C_9
REMARK    4  A    between atoms: C_9  and  N_10
REMARK    5  A    between atoms: C_19  and  C_20
REMARK                            x       y       z     vdW  Elec       q    Type
REMARK                         _______ _______ _______ _____ _____    ______ ____
ROOT
ATOM      1  N   UNL     1       5.240   4.274  16.959  0.00  0.00    +0.000 N 
ATOM      2  C   UNL     1       4.724   4.772  15.696  0.00  0.00    +0.000 C 
ATOM      3  C   UNL     1       5.659   4.502  14.548  0.00  0.00    +0.000 A 
ATOM      4  C   UNL     1       5.251   3.665  13.495  0.00  0.00    +0.000 A 
ATOM      5  C   UNL     1       6.078   3.447  12.391  0.00  0.00    +0.000 A 
ATOM      6  C   UNL     1       7.326   4.055  12.326  0.00  0.00    +0.000 A 
ATOM      7  C   UNL     1       7.741   4.890  13.359  0.00  0.00    +0.000 A 
ATOM      8  C   UNL     1       6.917   5.104  14.469  0.00  0.00    +0.000 A 
ATOM      9  O   UNL     1       7.373   6.033  15.349  0.00  0.00    +0.000 OA
ATOM     10  C   UNL     1       7.242   5.779  16.733  0.00  0.00    +0.000 C 
ATOM     11  C   UNL     1       6.682   7.070  17.354  0.00  0.00    +0.000 C 
ATOM     12  C   UNL     1       6.508   4.595  17.412  0.00  0.00    +0.000 C 
ATOM     13  O   UNL     1       6.998   4.069  18.416  0.00  0.00    +0.000 OA
ENDROOT
BRANCH   1  14
ATOM     14  C   UNL     1       4.283   3.712  17.918  0.00  0.00    +0.000 C 
BRANCH  14  20
ATOM     15  C   UNL     1       2.943   4.368  19.985  0.00  0.00    +0.000 A 
ATOM     16  C   UNL     1       2.213   5.318  20.713  0.00  0.00    +0.000 A 
ATOM     17  C   UNL     1       1.989   6.590  20.187  0.00  0.00    +0.000 A 
ATOM     18  C   UNL     1       2.515   6.929  18.947  0.00  0.00    +0.000 A 
ATOM     19  C   UNL     1       3.293   6.008  18.245  0.00  0.00    +0.000 A 
ATOM     20  C   UNL     1       3.533   4.721  18.756  0.00  0.00    +0.000 A 
BRANCH  15  22
ATOM     21  C   UNL     1       2.289   2.690  21.516  0.00  0.00    +0.000 C 
ATOM     22  O   UNL     1       3.113   3.076  20.417  0.00  0.00    +0.000 OA
ENDBRANCH  15  22
ENDBRANCH  14  20
ENDBRANCH   1  14
TORSDOF 3
ENDMDL
MODEL 4
REMARK VINA RESULT:      -7.7      1.350      1.972
REMARK  Name = 
REMARK  5 active torsions:
REMARK  status: ('A' for Active; 'I' for Inactive)
REMARK    1  A    between atoms: C_1  and  O_2
REMARK    2  A    between atoms: O_2  and  C_3
REMARK    3  A    between atoms: C_8  and  C_9
REMARK    4  A    between atoms: C_9  and  N_10
REMARK    5  A    between atoms: C_19  and  C_20
REMARK                            x       y       z     vdW  Elec       q    Type
REMARK                         _______ _______ _______ _____ _____    ______ ____
ROOT
ATOM      1  N   UNL     1       5.914   4.442  17.602  0.00  0.00    +0.000 N 
ATOM      2  C   UNL     1       5.086   4.828  16.473  0.00  0.00    +0.000 C 
ATOM      3  C   UNL     1       5.756   4.563  15.152  0.00  0.00    +0.000 A 
ATOM      4  C   UNL     1       5.193   3.640  14.255  0.00  0.00    +0.000 A 
ATOM      5  C   UNL     1       5.764   3.420  12.999  0.00  0.00    +0.000 A 
ATOM      6  C   UNL     1       6.910   4.114  12.625  0.00  0.00    +0.000 A 
ATOM      7  C   UNL     1       7.475   5.035  13.502  0.00  0.00    +0.000 A 
ATOM      8  C   UNL     1       6.908   5.251  14.763  0.00  0.00    +0.000 A 
ATOM      9  O   UNL     1       7.471   6.259  15.478  0.00  0.00    +0.000 OA
ATOM     10  C   UNL     1       7.679   6.076  16.864  0.00  0.00    +0.000 C 
ATOM     11  C   UNL     1       7.166   7.355  17.547  0.00  0.00    +0.000 C 
ATOM     12  C   UNL     1       7.220   4.881  17.738  0.00  0.00    +0.000 C 
ATOM     13  O   UNL     1       7.967   4.450  18.622  0.00  0.00    +0.000 OA
ENDROOT
BRANCH   1  14
ATOM     14  C   UNL     1       5.250   3.867  18.776  0.00  0.00    +0.000 C 
BRANCH  14  20
ATOM     15  C   UNL     1       2.800   4.540  18.991  0.00  0.00    +0.000 A 
ATOM     16  C   UNL     1       1.438   4.232  18.877  0.00  0.00    +0.000 A 
ATOM     17  C   UNL     1       1.033   2.958  18.480  0.00  0.00    +0.000 A 
ATOM     18  C   UNL     1       1.985   1.995  18.168  0.00  0.00    +0.000 A 
ATOM     19  C   UNL     1       3.342   2.314  18.222  0.00  0.00    +0.000 A 
ATOM     20  C   UNL     1       3.772   3.592  18.619  0.00  0.00    +0.000 A 
BRANCH  15  22
ATOM     21  C   UNL     1       2.768   6.892  18.761  0.00  0.00    +0.000 C 
ATOM     22  O   UNL     1       3.249   5.748  19.465  0.00  0.00    +0.000 OA
ENDBRANCH  15  22
ENDBRANCH  14  20
ENDBRANCH   1  14
TORSDOF 3
ENDMDL
MODEL 5
REMARK VINA RESULT:      -7.5      3.465      5.176
REMARK  Name = 
REMARK  5 active torsions:
REMARK  status: ('A' for Active; 'I' for Inactive)
REMARK    1  A    between atoms: C_1  and  O_2
REMARK    2  A    between atoms: O_2  and  C_3
REMARK    3  A    between atoms: C_8  and  C_9
REMARK    4  A    between atoms: C_9  and  N_10
REMARK    5  A    between atoms: C_19  and  C_20
REMARK                            x       y       z     vdW  Elec       q    Type
REMARK                         _______ _______ _______ _____ _____    ______ ____
ROOT
ATOM      1  N   UNL     1       2.940   5.502  19.397  0.00  0.00    +0.000 N 
ATOM      2  C   UNL     1       4.340   5.770  19.118  0.00  0.00    +0.000 C 
ATOM      3  C   UNL     1       4.709   5.469  17.690  0.00  0.00    +0.000 A 
ATOM      4  C   UNL     1       5.145   6.505  16.847  0.00  0.00    +0.000 A 
ATOM      5  C   UNL     1       5.548   6.241  15.537  0.00  0.00    +0.000 A 
ATOM      6  C   UNL     1       5.516   4.940  15.047  0.00  0.00    +0.000 A 
ATOM      7  C   UNL     1       5.090   3.904  15.873  0.00  0.00    +0.000 A 
ATOM      8  C   UNL     1       4.679   4.167  17.183  0.00  0.00    +0.000 A 
ATOM      9  O   UNL     1       4.407   3.065  17.930  0.00  0.00    +0.000 OA
ATOM     10  C   UNL     1       3.282   3.086  18.786  0.00  0.00    +0.000 C 
ATOM     11  C   UNL     1       3.763   2.531  20.138  0.00  0.00    +0.000 C 
ATOM     12  C   UNL     1       2.351   4.285  19.096  0.00  0.00    +0.000 C 
ATOM     13  O   UNL     1       1.136   4.101  19.208  0.00  0.00    +0.000 OA
ENDROOT
BRANCH   1  14
ATOM     14  C   UNL     1       2.238   6.403  20.317  0.00  0.00    +0.000 C 
BRANCH  14  20
ATOM     15  C   UNL     1       1.236   8.737  20.536  0.00  0.00    +0.000 A 
ATOM     16  C   UNL     1       0.881   9.968  19.969  0.00  0.00    +0.000 A 
ATOM     17  C   UNL     1       1.084  10.204  18.609  0.00  0.00    +0.000 A 
ATOM     18  C   UNL     1       1.669   9.224  17.817  0.00  0.00    +0.000 A 
ATOM     19  C   UNL     1       2.080   8.019  18.388  0.00  0.00    +0.000 A 
ATOM     20  C   UNL     1       1.886   7.761  19.756  0.00  0.00    +0.000 A 
BRANCH  15  22
ATOM     21  C   UNL     1       0.246   9.411  22.574  0.00  0.00    +0.000 C 
ATOM     22  O   UNL     1       0.974   8.422  21.847  0.00  0.00    +0.000 OA
ENDBRANCH  15  22
ENDBRANCH  14  20
ENDBRANCH   1  14
TORSDOF 3
ENDMDL
MODEL 6
REMARK VINA RESULT:      -7.4      2.150      5.837
REMARK  Name = 
REMARK  5 active torsions:
REMARK  status: ('A' for Active; 'I' for Inactive)
REMARK    1  A    between atoms: C_1  and  O_2
REMARK    2  A    between atoms: O_2  and  C_3
REMARK    3  A    between atoms: C_8  and  C_9
REMARK    4  A    between atoms: C_9  and  N_10
REMARK    5  A    between atoms: C_19  and  C_20
REMARK                            x       y       z     vdW  Elec       q    Type
REMARK                         _______ _______ _______ _____ _____    ______ ____
ROOT
ATOM      1  N   UNL     1       3.439   3.802  18.565  0.00  0.00    +0.000 N 
ATOM      2  C   UNL     1       2.394   4.627  17.984  0.00  0.00    +0.000 C 
ATOM      3  C   UNL     1       2.211   5.926  18.722  0.00  0.00    +0.000 A 
ATOM      4  C   UNL     1       2.460   7.144  18.067  0.00  0.00    +0.000 A 
ATOM      5  C   UNL     1       2.241   8.362  18.713  0.00  0.00    +0.000 A 
ATOM      6  C   UNL     1       1.775   8.383  20.023  0.00  0.00    +0.000 A 
ATOM      7  C   UNL     1       1.519   7.184  20.681  0.00  0.00    +0.000 A 
ATOM      8  C   UNL     1       1.745   5.962  20.039  0.00  0.00    +0.000 A 
ATOM      9  O   UNL     1       1.341   4.867  20.734  0.00  0.00    +0.000 OA
ATOM     10  C   UNL     1       2.165   3.719  20.733  0.00  0.00    +0.000 C 
ATOM     11  C   UNL     1       1.237   2.525  20.455  0.00  0.00    +0.000 C 
ATOM     12  C   UNL     1       3.460   3.485  19.913  0.00  0.00    +0.000 C 
ATOM     13  O   UNL     1       4.414   2.899  20.433  0.00  0.00    +0.000 OA
ENDROOT
BRANCH   1  14
ATOM     14  C   UNL     1       4.281   3.019  17.656  0.00  0.00    +0.000 C 
BRANCH  14  20
ATOM     15  C   UNL     1       6.329   4.507  17.352  0.00  0.00    +0.000 A 
ATOM     16  C   UNL     1       7.163   5.279  16.532  0.00  0.00    +0.000 A 
ATOM     17  C   UNL     1       6.863   5.447  15.180  0.00  0.00    +0.000 A 
ATOM     18  C   UNL     1       5.748   4.823  14.635  0.00  0.00    +0.000 A 
ATOM     19  C   UNL     1       4.949   4.004  15.433  0.00  0.00    +0.000 A 
ATOM     20  C   UNL     1       5.232   3.820  16.797  0.00  0.00    +0.000 A 
BRANCH  15  22
ATOM     21  C   UNL     1       7.089   5.533  19.341  0.00  0.00    +0.000 C 
ATOM     22  O   UNL     1       6.528   4.385  18.705  0.00  0.00    +0.000 OA
ENDBRANCH  15  22
ENDBRANCH  14  20
ENDBRANCH   1  14
TORSDOF 3
ENDMDL
MODEL 7
REMARK VINA RESULT:      -6.9      3.551      6.166
REMARK  Name = 
REMARK  5 active torsions:
REMARK  status: ('A' for Active; 'I' for Inactive)
REMARK    1  A    between atoms: C_1  and  O_2
REMARK    2  A    between atoms: O_2  and  C_3
REMARK    3  A    between atoms: C_8  and  C_9
REMARK    4  A    between atoms: C_9  and  N_10
REMARK    5  A    between atoms: C_19  and  C_20
REMARK                            x       y       z     vdW  Elec       q    Type
REMARK                         _______ _______ _______ _____ _____    ______ ____
ROOT
ATOM      1  N   UNL     1       3.220   6.221  18.272  0.00  0.00    +0.000 N 
ATOM      2  C   UNL     1       2.157   5.235  18.358  0.00  0.00    +0.000 C 
ATOM      3  C   UNL     1       2.398   4.225  19.448  0.00  0.00    +0.000 A 
ATOM      4  C   UNL     1       1.508   4.140  20.532  0.00  0.00    +0.000 A 
ATOM      5  C   UNL     1       1.677   3.174  21.525  0.00  0.00    +0.000 A 
ATOM      6  C   UNL     1       2.741   2.281  21.454  0.00  0.00    +0.000 A 
ATOM      7  C   UNL     1       3.628   2.351  20.383  0.00  0.00    +0.000 A 
ATOM      8  C   UNL     1       3.464   3.324  19.391  0.00  0.00    +0.000 A 
ATOM      9  O   UNL     1       4.313   3.213  18.336  0.00  0.00    +0.000 OA
ATOM     10  C   UNL     1       4.878   4.390  17.793  0.00  0.00    +0.000 C 
ATOM     11  C   UNL     1       4.721   4.275  16.267  0.00  0.00    +0.000 C 
ATOM     12  C   UNL     1       4.553   5.857  18.172  0.00  0.00    +0.000 C 
ATOM     13  O   UNL     1       5.464   6.687  18.233  0.00  0.00    +0.000 OA
ENDROOT
BRANCH   1  14
ATOM     14  C   UNL     1       2.852   7.600  17.939  0.00  0.00    +0.000 C 
BRANCH  14  20
ATOM     15  C   UNL     1       1.596   9.649  18.790  0.00  0.00    +0.000 A 
ATOM     16  C   UNL     1       0.864  10.300  19.793  0.00  0.00    +0.000 A 
ATOM     17  C   UNL     1       0.626   9.671  21.014  0.00  0.00    +0.000 A 
ATOM     18  C   UNL     1       1.091   8.379  21.230  0.00  0.00    +0.000 A 
ATOM     19  C   UNL     1       1.767   7.704  20.214  0.00  0.00    +0.000 A 
ATOM     20  C   UNL     1       2.018   8.319  18.975  0.00  0.00    +0.000 A 
BRANCH  15  22
ATOM     21  C   UNL     1       2.443  11.587  17.733  0.00  0.00    +0.000 C 
ATOM     22  O   UNL     1       1.936  10.259  17.607  0.00  0.00    +0.000 OA
ENDBRANCH  15  22
ENDBRANCH  14  20
ENDBRANCH   1  14
TORSDOF 3
ENDMDL
MODEL 8
REMARK VINA RESULT:      -6.8      1.794      6.361
REMARK  Name = 
REMARK  5 active torsions:
REMARK  status: ('A' for Active; 'I' for Inactive)
REMARK    1  A    between atoms: C_1  and  O_2
REMARK    2  A    between atoms: O_2  and  C_3
REMARK    3  A    between atoms: C_8  and  C_9
REMARK    4  A    between atoms: C_9  and  N_10
REMARK    5  A    between atoms: C_19  and  C_20
REMARK                            x       y       z     vdW  Elec       q    Type
REMARK                         _______ _______ _______ _____ _____    ______ ____
ROOT
ATOM      1  N   UNL     1       4.543   4.203  18.511  0.00  0.00    +0.000 N 
ATOM      2  C   UNL     1       3.516   5.073  17.967  0.00  0.00    +0.000 C 
ATOM      3  C   UNL     1       2.668   5.701  19.041  0.00  0.00    +0.000 A 
ATOM      4  C   UNL     1       2.669   7.096  19.205  0.00  0.00    +0.000 A 
ATOM      5  C   UNL     1       1.847   7.707  20.155  0.00  0.00    +0.000 A 
ATOM      6  C   UNL     1       1.016   6.932  20.958  0.00  0.00    +0.000 A 
ATOM      7  C   UNL     1       1.002   5.549  20.801  0.00  0.00    +0.000 A 
ATOM      8  C   UNL     1       1.830   4.936  19.856  0.00  0.00    +0.000 A 
ATOM      9  O   UNL     1       1.637   3.599  19.707  0.00  0.00    +0.000 OA
ATOM     10  C   UNL     1       2.767   2.762  19.558  0.00  0.00    +0.000 C 
ATOM     11  C   UNL     1       2.451   1.823  18.381  0.00  0.00    +0.000 C 
ATOM     12  C   UNL     1       4.248   3.191  19.410  0.00  0.00    +0.000 C 
ATOM     13  O   UNL     1       5.132   2.539  19.974  0.00  0.00    +0.000 OA
ENDROOT
BRANCH   1  14
ATOM     14  C   UNL     1       5.846   4.175  17.839  0.00  0.00    +0.000 C 
BRANCH  14  20
ATOM     15  C   UNL     1       6.754   6.319  16.801  0.00  0.00    +0.000 A 
ATOM     16  C   UNL     1       7.540   7.476  16.886  0.00  0.00    +0.000 A 
ATOM     17  C   UNL     1       8.288   7.738  18.034  0.00  0.00    +0.000 A 
ATOM     18  C   UNL     1       8.233   6.862  19.111  0.00  0.00    +0.000 A 
ATOM     19  C   UNL     1       7.405   5.740  19.055  0.00  0.00    +0.000 A 
ATOM     20  C   UNL     1       6.643   5.458  17.909  0.00  0.00    +0.000 A 
BRANCH  15  22
ATOM     21  C   UNL     1       6.817   5.194  14.723  0.00  0.00    +0.000 C 
ATOM     22  O   UNL     1       6.073   5.969  15.661  0.00  0.00    +0.000 OA
ENDBRANCH  15  22
ENDBRANCH  14  20
ENDBRANCH   1  14
TORSDOF 3
ENDMDL
MODEL 9
REMARK VINA RESULT:      -6.8      1.215      1.752
REMARK  Name = 
REMARK  5 active torsions:
REMARK  status: ('A' for Active; 'I' for Inactive)
REMARK    1  A    between atoms: C_1  and  O_2
REMARK    2  A    between atoms: O_2  and  C_3
REMARK    3  A    between atoms: C_8  and  C_9
REMARK    4  A    between atoms: C_9  and  N_10
REMARK    5  A    between atoms: C_19  and  C_20
REMARK                            x       y       z     vdW  Elec       q    Type
REMARK                         _______ _______ _______ _____ _____    ______ ____
ROOT
ATOM      1  N   UNL     1       5.874   4.419  17.866  0.00  0.00    +0.000 N 
ATOM      2  C   UNL     1       5.005   4.704  16.738  0.00  0.00    +0.000 C 
ATOM      3  C   UNL     1       5.699   4.509  15.416  0.00  0.00    +0.000 A 
ATOM      4  C   UNL     1       5.241   3.525  14.524  0.00  0.00    +0.000 A 
ATOM      5  C   UNL     1       5.830   3.365  13.268  0.00  0.00    +0.000 A 
ATOM      6  C   UNL     1       6.889   4.182  12.888  0.00  0.00    +0.000 A 
ATOM      7  C   UNL     1       7.350   5.164  13.759  0.00  0.00    +0.000 A 
ATOM      8  C   UNL     1       6.765   5.321  15.020  0.00  0.00    +0.000 A 
ATOM      9  O   UNL     1       7.213   6.390  15.729  0.00  0.00    +0.000 OA
ATOM     10  C   UNL     1       7.443   6.237  17.116  0.00  0.00    +0.000 C 
ATOM     11  C   UNL     1       6.791   7.454  17.794  0.00  0.00    +0.000 C 
ATOM     12  C   UNL     1       7.123   5.003  17.997  0.00  0.00    +0.000 C 
ATOM     13  O   UNL     1       7.915   4.663  18.880  0.00  0.00    +0.000 OA
ENDROOT
BRANCH   1  14
ATOM     14  C   UNL     1       5.282   3.778  19.044  0.00  0.00    +0.000 C 
BRANCH  14  20
ATOM     15  C   UNL     1       2.818   3.569  19.668  0.00  0.00    +0.000 A 
ATOM     16  C   UNL     1       1.607   4.155  20.058  0.00  0.00    +0.000 A 
ATOM     17  C   UNL     1       1.508   5.537  20.210  0.00  0.00    +0.000 A 
ATOM     18  C   UNL     1       2.624   6.339  20.001  0.00  0.00    +0.000 A 
ATOM     19  C   UNL     1       3.847   5.756  19.671  0.00  0.00    +0.000 A 
ATOM     20  C   UNL     1       3.970   4.364  19.514  0.00  0.00    +0.000 A 
BRANCH  15  22
ATOM     21  C   UNL     1       2.521   1.808  18.119  0.00  0.00    +0.000 C 
ATOM     22  O   UNL     1       2.944   2.225  19.416  0.00  0.00    +0.000 OA
ENDBRANCH  15  22
ENDBRANCH  14  20
ENDBRANCH   1  14
TORSDOF 3
ENDMDL
