MODEL 1
REMARK VINA RESULT:      -6.2      0.000      0.000
REMARK  Name = 
REMARK  2 active torsions:
REMARK  status: ('A' for Active; 'I' for Inactive)
REMARK    1  A    between atoms: C_2  and  C_3
REMARK    2  A    between atoms: C_6  and  C_7
REMARK                            x       y       z     vdW  Elec       q    Type
REMARK                         _______ _______ _______ _____ _____    ______ ____
ROOT
ATOM      1  C   UNL     1       5.850   4.358  17.569  0.00  0.00    +0.000 A 
ATOM      2  C   UNL     1       4.969   4.243  16.516  0.00  0.00    +0.000 A 
ATOM      3  C   UNL     1       3.734   3.828  17.067  0.00  0.00    +0.000 A 
ATOM      4  C   UNL     1       3.921   3.722  18.433  0.00  0.00    +0.000 A 
ATOM      5  O   UNL     1       5.216   4.038  18.739  0.00  0.00    +0.000 OA
ENDROOT
BRANCH   4   6
ATOM      6  C   UNL     1       3.046   3.378  19.548  0.00  0.00    +0.000 A 
ATOM      7  C   UNL     1       1.689   3.718  19.535  0.00  0.00    +0.000 A 
ATOM      8  C   UNL     1       0.877   3.421  20.630  0.00  0.00    +0.000 A 
ATOM      9  C   UNL     1       1.449   2.783  21.716  0.00  0.00    +0.000 A 
ATOM     10  N   UNL     1       2.747   2.421  21.770  0.00  0.00    +0.000 NA
ATOM     11  C   UNL     1       3.511   2.726  20.689  0.00  0.00    +0.000 A 
ENDBRANCH   4   6
BRANCH   1  13
ATOM     12  O   UNL     1       8.121   4.264  16.911  0.00  0.00    +0.000 OA
ATOM     13  C   UNL     1       7.235   4.744  17.615  0.00  0.00    +0.000 C 
ENDBRANCH   1  13
TORSDOF 2
ENDMDL
MODEL 2
REMARK VINA RESULT:      -6.2      2.522      5.184
REMARK  Name = 
REMARK  2 active torsions:
REMARK  status: ('A' for Active; 'I' for Inactive)
REMARK    1  A    between atoms: C_2  and  C_3
REMARK    2  A    between atoms: C_6  and  C_7
REMARK                            x       y       z     vdW  Elec       q    Type
REMARK                         _______ _______ _______ _____ _____    ______ ____
ROOT
ATOM      1  C   UNL     1       1.843   3.267  19.796  0.00  0.00    +0.000 A 
ATOM      2  C   UNL     1       1.167   3.303  18.595  0.00  0.00    +0.000 A 
ATOM      3  C   UNL     1       2.122   3.635  17.606  0.00  0.00    +0.000 A 
ATOM      4  C   UNL     1       3.336   3.773  18.252  0.00  0.00    +0.000 A 
ATOM      5  O   UNL     1       3.164   3.557  19.591  0.00  0.00    +0.000 OA
ENDROOT
BRANCH   4   6
ATOM      6  C   UNL     1       4.693   4.068  17.802  0.00  0.00    +0.000 A 
ATOM      7  C   UNL     1       5.027   4.040  16.443  0.00  0.00    +0.000 A 
ATOM      8  C   UNL     1       6.338   4.280  16.035  0.00  0.00    +0.000 A 
ATOM      9  C   UNL     1       7.288   4.551  17.004  0.00  0.00    +0.000 A 
ATOM     10  N   UNL     1       7.012   4.605  18.324  0.00  0.00    +0.000 NA
ATOM     11  C   UNL     1       5.727   4.364  18.688  0.00  0.00    +0.000 A 
ENDBRANCH   4   6
BRANCH   1  13
ATOM     12  O   UNL     1       2.130   2.876  22.112  0.00  0.00    +0.000 OA
ATOM     13  C   UNL     1       1.395   2.984  21.133  0.00  0.00    +0.000 C 
ENDBRANCH   1  13
TORSDOF 2
ENDMDL
MODEL 3
REMARK VINA RESULT:      -5.9      1.820      2.137
REMARK  Name = 
REMARK  2 active torsions:
REMARK  status: ('A' for Active; 'I' for Inactive)
REMARK    1  A    between atoms: C_2  and  C_3
REMARK    2  A    between atoms: C_6  and  C_7
REMARK                            x       y       z     vdW  Elec       q    Type
REMARK                         _______ _______ _______ _____ _____    ______ ____
ROOT
ATOM      1  C   UNL     1       5.622   5.212  15.720  0.00  0.00    +0.000 A 
ATOM      2  C   UNL     1       5.255   6.446  16.213  0.00  0.00    +0.000 A 
ATOM      3  C   UNL     1       4.269   6.208  17.199  0.00  0.00    +0.000 A 
ATOM      4  C   UNL     1       4.092   4.839  17.266  0.00  0.00    +0.000 A 
ATOM      5  O   UNL     1       4.913   4.230  16.357  0.00  0.00    +0.000 OA
ENDROOT
BRANCH   4   6
ATOM      6  C   UNL     1       3.260   3.966  18.089  0.00  0.00    +0.000 A 
ATOM      7  C   UNL     1       1.909   3.762  17.790  0.00  0.00    +0.000 A 
ATOM      8  C   UNL     1       1.118   2.961  18.613  0.00  0.00    +0.000 A 
ATOM      9  C   UNL     1       1.707   2.375  19.719  0.00  0.00    +0.000 A 
ATOM     10  N   UNL     1       3.008   2.528  20.040  0.00  0.00    +0.000 NA
ATOM     11  C   UNL     1       3.750   3.316  19.220  0.00  0.00    +0.000 A 
ENDBRANCH   4   6
BRANCH   1  13
ATOM     12  O   UNL     1       7.668   5.375  14.542  0.00  0.00    +0.000 OA
ATOM     13  C   UNL     1       6.577   4.835  14.713  0.00  0.00    +0.000 C 
ENDBRANCH   1  13
TORSDOF 2
ENDMDL
MODEL 4
REMARK VINA RESULT:      -5.9      1.893      2.321
REMARK  Name = 
REMARK  2 active torsions:
REMARK  status: ('A' for Active; 'I' for Inactive)
REMARK    1  A    between atoms: C_2  and  C_3
REMARK    2  A    between atoms: C_6  and  C_7
REMARK                            x       y       z     vdW  Elec       q    Type
REMARK                         _______ _______ _______ _____ _____    ______ ____
ROOT
ATOM      1  C   UNL     1       6.953   5.048  18.238  0.00  0.00    +0.000 A 
ATOM      2  C   UNL     1       7.012   4.850  16.874  0.00  0.00    +0.000 A 
ATOM      3  C   UNL     1       5.795   4.231  16.505  0.00  0.00    +0.000 A 
ATOM      4  C   UNL     1       5.049   4.093  17.660  0.00  0.00    +0.000 A 
ATOM      5  O   UNL     1       5.760   4.584  18.720  0.00  0.00    +0.000 OA
ENDROOT
BRANCH   4   6
ATOM      6  C   UNL     1       3.716   3.572  17.946  0.00  0.00    +0.000 A 
ATOM      7  C   UNL     1       2.571   4.335  17.690  0.00  0.00    +0.000 A 
ATOM      8  C   UNL     1       1.308   3.839  18.012  0.00  0.00    +0.000 A 
ATOM      9  C   UNL     1       1.223   2.580  18.580  0.00  0.00    +0.000 A 
ATOM     10  N   UNL     1       2.295   1.801  18.831  0.00  0.00    +0.000 NA
ATOM     11  C   UNL     1       3.510   2.314  18.508  0.00  0.00    +0.000 A 
ENDBRANCH   4   6
BRANCH   1  13
ATOM     12  O   UNL     1       7.898   5.442  20.371  0.00  0.00    +0.000 OA
ATOM     13  C   UNL     1       7.891   5.633  19.156  0.00  0.00    +0.000 C 
ENDBRANCH   1  13
TORSDOF 2
ENDMDL
MODEL 5
REMARK VINA RESULT:      -5.9      1.080      1.080
REMARK  Name = 
REMARK  2 active torsions:
REMARK  status: ('A' for Active; 'I' for Inactive)
REMARK    1  A    between atoms: C_2  and  C_3
REMARK    2  A    between atoms: C_6  and  C_7
REMARK                            x       y       z     vdW  Elec       q    Type
REMARK                         _______ _______ _______ _____ _____    ______ ____
ROOT
ATOM      1  C   UNL     1       5.779   4.903  16.984  0.00  0.00    +0.000 A 
ATOM      2  C   UNL     1       5.020   6.010  16.667  0.00  0.00    +0.000 A 
ATOM      3  C   UNL     1       3.850   5.936  17.459  0.00  0.00    +0.000 A 
ATOM      4  C   UNL     1       3.959   4.794  18.229  0.00  0.00    +0.000 A 
ATOM      5  O   UNL     1       5.134   4.158  17.933  0.00  0.00    +0.000 OA
ENDROOT
BRANCH   4   6
ATOM      6  C   UNL     1       3.121   4.181  19.254  0.00  0.00    +0.000 A 
ATOM      7  C   UNL     1       1.814   4.628  19.482  0.00  0.00    +0.000 A 
ATOM      8  C   UNL     1       1.042   4.062  20.496  0.00  0.00    +0.000 A 
ATOM      9  C   UNL     1       1.601   3.051  21.258  0.00  0.00    +0.000 A 
ATOM     10  N   UNL     1       2.848   2.575  21.067  0.00  0.00    +0.000 NA
ATOM     11  C   UNL     1       3.574   3.149  20.073  0.00  0.00    +0.000 A 
ENDBRANCH   4   6
BRANCH   1  13
ATOM     12  O   UNL     1       8.042   4.251  17.210  0.00  0.00    +0.000 OA
ATOM     13  C   UNL     1       7.057   4.456  16.502  0.00  0.00    +0.000 C 
ENDBRANCH   1  13
TORSDOF 2
ENDMDL
MODEL 6
REMARK VINA RESULT:      -5.9      1.990      2.236
REMARK  Name = 
REMARK  2 active torsions:
REMARK  status: ('A' for Active; 'I' for Inactive)
REMARK    1  A    between atoms: C_2  and  C_3
REMARK    2  A    between atoms: C_6  and  C_7
REMARK                            x       y       z     vdW  Elec       q    Type
REMARK                         _______ _______ _______ _____ _____    ______ ____
ROOT
ATOM      1  C   UNL     1       5.558   5.318  16.344  0.00  0.00    +0.000 A 
ATOM      2  C   UNL     1       5.204   6.611  16.668  0.00  0.00    +0.000 A 
ATOM      3  C   UNL     1       4.036   6.521  17.460  0.00  0.00    +0.000 A 
ATOM      4  C   UNL     1       3.742   5.177  17.590  0.00  0.00    +0.000 A 
ATOM      5  O   UNL     1       4.667   4.442  16.901  0.00  0.00    +0.000 OA
ENDROOT
BRANCH   4   6
ATOM      6  C   UNL     1       2.705   4.433  18.297  0.00  0.00    +0.000 A 
ATOM      7  C   UNL     1       2.139   4.926  19.478  0.00  0.00    +0.000 A 
ATOM      8  C   UNL     1       1.182   4.180  20.166  0.00  0.00    +0.000 A 
ATOM      9  C   UNL     1       0.809   2.952  19.646  0.00  0.00    +0.000 A 
ATOM     10  N   UNL     1       1.314   2.442  18.504  0.00  0.00    +0.000 NA
ATOM     11  C   UNL     1       2.245   3.192  17.860  0.00  0.00    +0.000 A 
ENDBRANCH   4   6
BRANCH   1  13
ATOM     12  O   UNL     1       7.506   5.481  15.010  0.00  0.00    +0.000 OA
ATOM     13  C   UNL     1       6.651   4.796  15.568  0.00  0.00    +0.000 C 
ENDBRANCH   1  13
TORSDOF 2
ENDMDL
MODEL 7
REMARK VINA RESULT:      -5.9      2.663      5.353
REMARK  Name = 
REMARK  2 active torsions:
REMARK  status: ('A' for Active; 'I' for Inactive)
REMARK    1  A    between atoms: C_2  and  C_3
REMARK    2  A    between atoms: C_6  and  C_7
REMARK                            x       y       z     vdW  Elec       q    Type
REMARK                         _______ _______ _______ _____ _____    ______ ____
ROOT
ATOM      1  C   UNL     1       2.041   4.062  20.521  0.00  0.00    +0.000 A 
ATOM      2  C   UNL     1       1.811   5.420  20.474  0.00  0.00    +0.000 A 
ATOM      3  C   UNL     1       2.835   5.974  19.670  0.00  0.00    +0.000 A 
ATOM      4  C   UNL     1       3.632   4.924  19.256  0.00  0.00    +0.000 A 
ATOM      5  O   UNL     1       3.151   3.756  19.783  0.00  0.00    +0.000 OA
ENDROOT
BRANCH   4   6
ATOM      6  C   UNL     1       4.807   4.824  18.398  0.00  0.00    +0.000 A 
ATOM      7  C   UNL     1       4.682   4.746  17.006  0.00  0.00    +0.000 A 
ATOM      8  C   UNL     1       5.814   4.605  16.204  0.00  0.00    +0.000 A 
ATOM      9  C   UNL     1       7.052   4.552  16.820  0.00  0.00    +0.000 A 
ATOM     10  N   UNL     1       7.225   4.639  18.155  0.00  0.00    +0.000 NA
ATOM     11  C   UNL     1       6.103   4.773  18.908  0.00  0.00    +0.000 A 
ENDBRANCH   4   6
BRANCH   1  13
ATOM     12  O   UNL     1       1.691   2.452  22.219  0.00  0.00    +0.000 OA
ATOM     13  C   UNL     1       1.331   2.998  21.178  0.00  0.00    +0.000 C 
ENDBRANCH   1  13
TORSDOF 2
ENDMDL
MODEL 8
REMARK VINA RESULT:      -5.9      2.707      5.300
REMARK  Name = 
REMARK  2 active torsions:
REMARK  status: ('A' for Active; 'I' for Inactive)
REMARK    1  A    between atoms: C_2  and  C_3
REMARK    2  A    between atoms: C_6  and  C_7
REMARK                            x       y       z     vdW  Elec       q    Type
REMARK                         _______ _______ _______ _____ _____    ______ ____
ROOT
ATOM      1  C   UNL     1       1.993   3.354  20.015  0.00  0.00    +0.000 A 
ATOM      2  C   UNL     1       1.211   3.673  18.925  0.00  0.00    +0.000 A 
ATOM      3  C   UNL     1       2.098   4.051  17.891  0.00  0.00    +0.000 A 
ATOM      4  C   UNL     1       3.379   3.933  18.397  0.00  0.00    +0.000 A 
ATOM      5  O   UNL     1       3.314   3.515  19.698  0.00  0.00    +0.000 OA
ENDROOT
BRANCH   4   6
ATOM      6  C   UNL     1       4.710   4.136  17.837  0.00  0.00    +0.000 A 
ATOM      7  C   UNL     1       5.749   4.661  18.613  0.00  0.00    +0.000 A 
ATOM      8  C   UNL     1       7.004   4.892  18.048  0.00  0.00    +0.000 A 
ATOM      9  C   UNL     1       7.188   4.582  16.712  0.00  0.00    +0.000 A 
ATOM     10  N   UNL     1       6.223   4.060  15.927  0.00  0.00    +0.000 NA
ATOM     11  C   UNL     1       5.013   3.850  16.507  0.00  0.00    +0.000 A 
ENDBRANCH   4   6
BRANCH   1  13
ATOM     12  O   UNL     1       2.360   3.031  22.330  0.00  0.00    +0.000 OA
ATOM     13  C   UNL     1       1.647   2.905  21.337  0.00  0.00    +0.000 C 
ENDBRANCH   1  13
TORSDOF 2
ENDMDL
MODEL 9
REMARK VINA RESULT:      -5.9      2.998      5.499
REMARK  Name = 
REMARK  2 active torsions:
REMARK  status: ('A' for Active; 'I' for Inactive)
REMARK    1  A    between atoms: C_2  and  C_3
REMARK    2  A    between atoms: C_6  and  C_7
REMARK                            x       y       z     vdW  Elec       q    Type
REMARK                         _______ _______ _______ _____ _____    ______ ____
ROOT
ATOM      1  C   UNL     1       2.294   4.153  20.382  0.00  0.00    +0.000 A 
ATOM      2  C   UNL     1       1.904   5.470  20.499  0.00  0.00    +0.000 A 
ATOM      3  C   UNL     1       2.521   6.169  19.435  0.00  0.00    +0.000 A 
ATOM      4  C   UNL     1       3.248   5.240  18.714  0.00  0.00    +0.000 A 
ATOM      5  O   UNL     1       3.116   4.010  19.298  0.00  0.00    +0.000 OA
ENDROOT
BRANCH   4   6
ATOM      6  C   UNL     1       4.065   5.312  17.508  0.00  0.00    +0.000 A 
ATOM      7  C   UNL     1       4.436   4.155  16.815  0.00  0.00    +0.000 A 
ATOM      8  C   UNL     1       5.255   4.239  15.689  0.00  0.00    +0.000 A 
ATOM      9  C   UNL     1       5.681   5.490  15.280  0.00  0.00    +0.000 A 
ATOM     10  N   UNL     1       5.339   6.636  15.905  0.00  0.00    +0.000 NA
ATOM     11  C   UNL     1       4.542   6.519  16.999  0.00  0.00    +0.000 A 
ENDBRANCH   4   6
BRANCH   1  13
ATOM     12  O   UNL     1       2.673   2.562  22.092  0.00  0.00    +0.000 OA
ATOM     13  C   UNL     1       1.981   2.993  21.171  0.00  0.00    +0.000 C 
ENDBRANCH   1  13
TORSDOF 2
ENDMDL
