MODEL 1
REMARK VINA RESULT:      -7.8      0.000      0.000
REMARK  Name = 
REMARK  9 active torsions:
REMARK  status: ('A' for Active; 'I' for Inactive)
REMARK    1  A    between atoms: C_1  and  O_2
REMARK    2  A    between atoms: O_2  and  C_3
REMARK    3  A    between atoms: N_11  and  C_12
REMARK    4  A    between atoms: C_12  and  C_13
REMARK    5  A    between atoms: C_13  and  O_14
REMARK    6  A    between atoms: C_13  and  C_15
REMARK    7  A    between atoms: C_18  and  N_19
REMARK    8  A    between atoms: N_19  and  C_20
REMARK    9  A    between atoms: C_20  and  C_21
REMARK                            x       y       z     vdW  Elec       q    Type
REMARK                         _______ _______ _______ _____ _____    ______ ____
ROOT
ATOM      1  C   UNL     1       1.787   9.121  20.053  0.00  0.00    +0.000 C 
ATOM      2  C   UNL     1       1.215   8.920  21.459  0.00  0.00    +0.000 C 
ATOM      3  C   UNL     1      -0.309   8.854  21.465  0.00  0.00    +0.000 C 
ATOM      4  C   UNL     1      -0.944  10.032  20.707  0.00  0.00    +0.000 C 
ATOM      5  C   UNL     1      -0.230  10.247  19.351  0.00  0.00    +0.000 C 
ATOM      6  O   UNL     1       1.195  10.277  19.446  0.00  0.00    +0.000 OA
ENDROOT
BRANCH   4   7
ATOM      7  N   UNL     1      -0.879  11.209  21.594  0.00  0.00    +0.000 NA
ATOM      8  H   UNL     1       0.093  11.338  21.886  0.00  0.00    +0.000 HD
BRANCH   7   9
ATOM      9  C   UNL     1      -1.316  12.449  20.939  0.00  0.00    +0.000 C 
BRANCH   9  10
ATOM     10  C   UNL     1      -2.819  12.551  20.964  0.00  0.00    +0.000 A 
ATOM     11  C   UNL     1      -3.567  12.502  19.798  0.00  0.00    +0.000 A 
ATOM     12  C   UNL     1      -4.947  12.474  19.911  0.00  0.00    +0.000 A 
ATOM     13  C   UNL     1      -5.501  12.433  21.180  0.00  0.00    +0.000 A 
ATOM     14  N   UNL     1      -4.756  12.490  22.299  0.00  0.00    +0.000 NA
ATOM     15  N   UNL     1      -3.402  12.569  22.188  0.00  0.00    +0.000 NA
ATOM     16  O   UNL     1      -6.850  12.291  21.377  0.00  0.00    +0.000 OA
ATOM     17  C   UNL     1      -7.548  12.950  20.328  0.00  0.00    +0.000 C 
ATOM     18  C   UNL     1      -7.087  12.495  18.947  0.00  0.00    +0.000 C 
ATOM     19  O   UNL     1      -5.669  12.493  18.754  0.00  0.00    +0.000 OA
ENDBRANCH   9  10
ENDBRANCH   7   9
ENDBRANCH   4   7
BRANCH   1  20
ATOM     20  C   UNL     1       1.748   7.850  19.156  0.00  0.00    +0.000 C 
BRANCH  20  21
ATOM     21  O   UNL     1       1.970   8.150  17.771  0.00  0.00    +0.000 OA
ATOM     22  H   UNL     1       2.270   9.080  17.714  0.00  0.00    +0.000 HD
ENDBRANCH  20  21
BRANCH  20  23
ATOM     23  C   UNL     1       2.760   6.794  19.651  0.00  0.00    +0.000 C 
BRANCH  23  32
ATOM     24  C   UNL     1       5.660   6.227  16.819  0.00  0.00    +0.000 A 
ATOM     25  C   UNL     1       5.743   5.130  15.978  0.00  0.00    +0.000 A 
ATOM     26  C   UNL     1       4.759   4.149  16.076  0.00  0.00    +0.000 A 
ATOM     27  C   UNL     1       3.748   4.292  17.025  0.00  0.00    +0.000 A 
ATOM     28  C   UNL     1       2.726   3.265  17.218  0.00  0.00    +0.000 A 
ATOM     29  C   UNL     1       1.869   3.373  18.229  0.00  0.00    +0.000 A 
ATOM     30  C   UNL     1       1.891   4.541  19.142  0.00  0.00    +0.000 A 
ATOM     31  O   UNL     1       1.176   4.535  20.146  0.00  0.00    +0.000 OA
ATOM     32  N   UNL     1       2.753   5.578  18.829  0.00  0.00    +0.000 N 
ATOM     33  C   UNL     1       3.734   5.443  17.818  0.00  0.00    +0.000 A 
ATOM     34  N   UNL     1       4.666   6.415  17.707  0.00  0.00    +0.000 NA
BRANCH  24  36
ATOM     35  C   UNL     1       7.590   7.042  17.849  0.00  0.00    +0.000 C 
ATOM     36  O   UNL     1       6.687   7.145  16.749  0.00  0.00    +0.000 OA
ENDBRANCH  24  36
ENDBRANCH  23  32
ENDBRANCH  20  23
ENDBRANCH   1  20
TORSDOF 8
ENDMDL
MODEL 2
REMARK VINA RESULT:      -7.8      2.005      2.096
REMARK  Name = 
REMARK  9 active torsions:
REMARK  status: ('A' for Active; 'I' for Inactive)
REMARK    1  A    between atoms: C_1  and  O_2
REMARK    2  A    between atoms: O_2  and  C_3
REMARK    3  A    between atoms: N_11  and  C_12
REMARK    4  A    between atoms: C_12  and  C_13
REMARK    5  A    between atoms: C_13  and  O_14
REMARK    6  A    between atoms: C_13  and  C_15
REMARK    7  A    between atoms: C_18  and  N_19
REMARK    8  A    between atoms: N_19  and  C_20
REMARK    9  A    between atoms: C_20  and  C_21
REMARK                            x       y       z     vdW  Elec       q    Type
REMARK                         _______ _______ _______ _____ _____    ______ ____
ROOT
ATOM      1  C   UNL     1       1.750   9.208  19.990  0.00  0.00    +0.000 C 
ATOM      2  C   UNL     1       1.292   9.064  21.445  0.00  0.00    +0.000 C 
ATOM      3  C   UNL     1      -0.225   8.972  21.573  0.00  0.00    +0.000 C 
ATOM      4  C   UNL     1      -0.942  10.100  20.812  0.00  0.00    +0.000 C 
ATOM      5  C   UNL     1      -0.339  10.263  19.397  0.00  0.00    +0.000 C 
ATOM      6  O   UNL     1       1.088  10.323  19.378  0.00  0.00    +0.000 OA
ENDROOT
BRANCH   4   7
ATOM      7  N   UNL     1      -0.834  11.320  21.635  0.00  0.00    +0.000 NA
ATOM      8  H   UNL     1      -1.376  12.061  21.185  0.00  0.00    +0.000 HD
BRANCH   7   9
ATOM      9  C   UNL     1      -1.360  11.146  22.995  0.00  0.00    +0.000 C 
BRANCH   9  10
ATOM     10  C   UNL     1      -2.458  12.142  23.263  0.00  0.00    +0.000 A 
ATOM     11  C   UNL     1      -2.424  13.418  22.723  0.00  0.00    +0.000 A 
ATOM     12  C   UNL     1      -3.530  14.233  22.909  0.00  0.00    +0.000 A 
ATOM     13  C   UNL     1      -4.629  13.706  23.567  0.00  0.00    +0.000 A 
ATOM     14  N   UNL     1      -4.636  12.467  24.091  0.00  0.00    +0.000 NA
ATOM     15  N   UNL     1      -3.532  11.685  23.953  0.00  0.00    +0.000 NA
ATOM     16  O   UNL     1      -5.801  14.407  23.694  0.00  0.00    +0.000 OA
ATOM     17  C   UNL     1      -5.506  15.792  23.815  0.00  0.00    +0.000 C 
ATOM     18  C   UNL     1      -4.617  16.300  22.685  0.00  0.00    +0.000 C 
ATOM     19  O   UNL     1      -3.453  15.507  22.429  0.00  0.00    +0.000 OA
ENDBRANCH   9  10
ENDBRANCH   7   9
ENDBRANCH   4   7
BRANCH   1  20
ATOM     20  C   UNL     1       1.670   7.895  19.159  0.00  0.00    +0.000 C 
BRANCH  20  21
ATOM     21  O   UNL     1       1.905   8.116  17.762  0.00  0.00    +0.000 OA
ATOM     22  H   UNL     1       1.697   9.053  17.571  0.00  0.00    +0.000 HD
ENDBRANCH  20  21
BRANCH  20  23
ATOM     23  C   UNL     1       2.643   6.832  19.712  0.00  0.00    +0.000 C 
BRANCH  23  32
ATOM     24  C   UNL     1       5.530   6.273  16.865  0.00  0.00    +0.000 A 
ATOM     25  C   UNL     1       5.625   5.165  16.039  0.00  0.00    +0.000 A 
ATOM     26  C   UNL     1       4.660   4.168  16.160  0.00  0.00    +0.000 A 
ATOM     27  C   UNL     1       3.654   4.307  17.116  0.00  0.00    +0.000 A 
ATOM     28  C   UNL     1       2.653   3.266  17.333  0.00  0.00    +0.000 A 
ATOM     29  C   UNL     1       1.802   3.374  18.350  0.00  0.00    +0.000 A 
ATOM     30  C   UNL     1       1.811   4.556  19.245  0.00  0.00    +0.000 A 
ATOM     31  O   UNL     1       1.103   4.553  20.255  0.00  0.00    +0.000 OA
ATOM     32  N   UNL     1       2.651   5.603  18.909  0.00  0.00    +0.000 N 
ATOM     33  C   UNL     1       3.626   5.470  17.892  0.00  0.00    +0.000 A 
ATOM     34  N   UNL     1       4.539   6.457  17.758  0.00  0.00    +0.000 NA
BRANCH  24  36
ATOM     35  C   UNL     1       7.558   7.012  17.751  0.00  0.00    +0.000 C 
ATOM     36  O   UNL     1       6.540   7.208  16.772  0.00  0.00    +0.000 OA
ENDBRANCH  24  36
ENDBRANCH  23  32
ENDBRANCH  20  23
ENDBRANCH   1  20
TORSDOF 8
ENDMDL
MODEL 3
REMARK VINA RESULT:      -7.7      1.068      1.528
REMARK  Name = 
REMARK  9 active torsions:
REMARK  status: ('A' for Active; 'I' for Inactive)
REMARK    1  A    between atoms: C_1  and  O_2
REMARK    2  A    between atoms: O_2  and  C_3
REMARK    3  A    between atoms: N_11  and  C_12
REMARK    4  A    between atoms: C_12  and  C_13
REMARK    5  A    between atoms: C_13  and  O_14
REMARK    6  A    between atoms: C_13  and  C_15
REMARK    7  A    between atoms: C_18  and  N_19
REMARK    8  A    between atoms: N_19  and  C_20
REMARK    9  A    between atoms: C_20  and  C_21
REMARK                            x       y       z     vdW  Elec       q    Type
REMARK                         _______ _______ _______ _____ _____    ______ ____
ROOT
ATOM      1  C   UNL     1       1.826   9.034  20.266  0.00  0.00    +0.000 C 
ATOM      2  C   UNL     1       1.312   8.814  21.692  0.00  0.00    +0.000 C 
ATOM      3  C   UNL     1      -0.212   8.773  21.762  0.00  0.00    +0.000 C 
ATOM      4  C   UNL     1      -0.858   9.977  21.056  0.00  0.00    +0.000 C 
ATOM      5  C   UNL     1      -0.199  10.208  19.675  0.00  0.00    +0.000 C 
ATOM      6  O   UNL     1       1.229  10.212  19.708  0.00  0.00    +0.000 OA
ENDROOT
BRANCH   4   7
ATOM      7  N   UNL     1      -0.734  11.134  21.961  0.00  0.00    +0.000 NA
ATOM      8  H   UNL     1       0.253  11.253  22.199  0.00  0.00    +0.000 HD
BRANCH   7   9
ATOM      9  C   UNL     1      -1.204  12.389  21.361  0.00  0.00    +0.000 C 
BRANCH   9  10
ATOM     10  C   UNL     1      -2.706  12.471  21.426  0.00  0.00    +0.000 A 
ATOM     11  C   UNL     1      -3.380  12.444  22.638  0.00  0.00    +0.000 A 
ATOM     12  C   UNL     1      -4.750  12.651  22.625  0.00  0.00    +0.000 A 
ATOM     13  C   UNL     1      -5.359  12.937  21.414  0.00  0.00    +0.000 A 
ATOM     14  N   UNL     1      -4.687  12.950  20.249  0.00  0.00    +0.000 NA
ATOM     15  N   UNL     1      -3.350  12.696  20.254  0.00  0.00    +0.000 NA
ATOM     16  O   UNL     1      -6.688  13.265  21.331  0.00  0.00    +0.000 OA
ATOM     17  C   UNL     1      -7.408  12.552  22.329  0.00  0.00    +0.000 C 
ATOM     18  C   UNL     1      -6.822  12.750  23.723  0.00  0.00    +0.000 C 
ATOM     19  O   UNL     1      -5.407  12.555  23.816  0.00  0.00    +0.000 OA
ENDBRANCH   9  10
ENDBRANCH   7   9
ENDBRANCH   4   7
BRANCH   1  20
ATOM     20  C   UNL     1       1.727   7.783  19.347  0.00  0.00    +0.000 C 
BRANCH  20  21
ATOM     21  O   UNL     1       1.943   8.100  17.965  0.00  0.00    +0.000 OA
ATOM     22  H   UNL     1       2.536   8.877  17.929  0.00  0.00    +0.000 HD
ENDBRANCH  20  21
BRANCH  20  23
ATOM     23  C   UNL     1       2.703   6.680  19.809  0.00  0.00    +0.000 C 
BRANCH  23  32
ATOM     24  C   UNL     1       5.542   6.197  16.900  0.00  0.00    +0.000 A 
ATOM     25  C   UNL     1       5.597   5.132  16.015  0.00  0.00    +0.000 A 
ATOM     26  C   UNL     1       4.606   4.157  16.095  0.00  0.00    +0.000 A 
ATOM     27  C   UNL     1       3.615   4.272  17.070  0.00  0.00    +0.000 A 
ATOM     28  C   UNL     1       2.588   3.248  17.243  0.00  0.00    +0.000 A 
ATOM     29  C   UNL     1       1.751   3.325  18.275  0.00  0.00    +0.000 A 
ATOM     30  C   UNL     1       1.803   4.456  19.232  0.00  0.00    +0.000 A 
ATOM     31  O   UNL     1       1.107   4.418  20.248  0.00  0.00    +0.000 OA
ATOM     32  N   UNL     1       2.668   5.496  18.941  0.00  0.00    +0.000 N 
ATOM     33  C   UNL     1       3.628   5.392  17.906  0.00  0.00    +0.000 A 
ATOM     34  N   UNL     1       4.567   6.359  17.814  0.00  0.00    +0.000 NA
BRANCH  24  36
ATOM     35  C   UNL     1       7.516   6.933  17.903  0.00  0.00    +0.000 C 
ATOM     36  O   UNL     1       6.576   7.108  16.845  0.00  0.00    +0.000 OA
ENDBRANCH  24  36
ENDBRANCH  23  32
ENDBRANCH  20  23
ENDBRANCH   1  20
TORSDOF 8
ENDMDL
MODEL 4
REMARK VINA RESULT:      -7.7      2.575     10.730
REMARK  Name = 
REMARK  9 active torsions:
REMARK  status: ('A' for Active; 'I' for Inactive)
REMARK    1  A    between atoms: C_1  and  O_2
REMARK    2  A    between atoms: O_2  and  C_3
REMARK    3  A    between atoms: N_11  and  C_12
REMARK    4  A    between atoms: C_12  and  C_13
REMARK    5  A    between atoms: C_13  and  O_14
REMARK    6  A    between atoms: C_13  and  C_15
REMARK    7  A    between atoms: C_18  and  N_19
REMARK    8  A    between atoms: N_19  and  C_20
REMARK    9  A    between atoms: C_20  and  C_21
REMARK                            x       y       z     vdW  Elec       q    Type
REMARK                         _______ _______ _______ _____ _____    ______ ____
ROOT
ATOM      1  C   UNL     1      -0.561  11.800  21.921  0.00  0.00    +0.000 C 
ATOM      2  C   UNL     1      -0.119  11.406  20.508  0.00  0.00    +0.000 C 
ATOM      3  C   UNL     1      -0.492   9.967  20.160  0.00  0.00    +0.000 C 
ATOM      4  C   UNL     1      -0.043   8.973  21.244  0.00  0.00    +0.000 C 
ATOM      5  C   UNL     1      -0.417   9.502  22.649  0.00  0.00    +0.000 C 
ATOM      6  O   UNL     1      -0.043  10.862  22.874  0.00  0.00    +0.000 OA
ENDROOT
BRANCH   4   7
ATOM      7  N   UNL     1       1.406   8.759  21.069  0.00  0.00    +0.000 NA
ATOM      8  H   UNL     1       1.696   7.998  21.688  0.00  0.00    +0.000 HD
BRANCH   7   9
ATOM      9  C   UNL     1       1.772   8.382  19.697  0.00  0.00    +0.000 C 
BRANCH   9  10
ATOM     10  C   UNL     1       2.307   6.974  19.666  0.00  0.00    +0.000 A 
ATOM     11  C   UNL     1       1.936   6.038  20.620  0.00  0.00    +0.000 A 
ATOM     12  C   UNL     1       2.369   4.733  20.452  0.00  0.00    +0.000 A 
ATOM     13  C   UNL     1       3.091   4.422  19.312  0.00  0.00    +0.000 A 
ATOM     14  N   UNL     1       3.446   5.348  18.404  0.00  0.00    +0.000 NA
ATOM     15  N   UNL     1       3.066   6.641  18.593  0.00  0.00    +0.000 NA
ATOM     16  O   UNL     1       3.458   3.135  19.016  0.00  0.00    +0.000 OA
ATOM     17  C   UNL     1       3.718   2.433  20.226  0.00  0.00    +0.000 C 
ATOM     18  C   UNL     1       2.557   2.520  21.210  0.00  0.00    +0.000 C 
ATOM     19  O   UNL     1       2.052   3.840  21.434  0.00  0.00    +0.000 OA
ENDBRANCH   9  10
ENDBRANCH   7   9
ENDBRANCH   4   7
BRANCH   1  20
ATOM     20  C   UNL     1      -2.087  12.065  22.065  0.00  0.00    +0.000 C 
BRANCH  20  21
ATOM     21  O   UNL     1      -2.425  12.644  23.333  0.00  0.00    +0.000 OA
ATOM     22  H   UNL     1      -3.390  12.813  23.332  0.00  0.00    +0.000 HD
ENDBRANCH  20  21
BRANCH  20  23
ATOM     23  C   UNL     1      -2.605  12.949  20.910  0.00  0.00    +0.000 C 
BRANCH  23  32
ATOM     24  C   UNL     1      -6.322  13.230  22.601  0.00  0.00    +0.000 A 
ATOM     25  C   UNL     1      -7.482  12.702  22.058  0.00  0.00    +0.000 A 
ATOM     26  C   UNL     1      -7.388  12.000  20.859  0.00  0.00    +0.000 A 
ATOM     27  C   UNL     1      -6.145  11.876  20.239  0.00  0.00    +0.000 A 
ATOM     28  C   UNL     1      -5.996  11.208  18.948  0.00  0.00    +0.000 A 
ATOM     29  C   UNL     1      -4.821  11.238  18.325  0.00  0.00    +0.000 A 
ATOM     30  C   UNL     1      -3.638  11.894  18.933  0.00  0.00    +0.000 A 
ATOM     31  O   UNL     1      -2.610  12.022  18.265  0.00  0.00    +0.000 OA
ATOM     32  N   UNL     1      -3.766  12.363  20.229  0.00  0.00    +0.000 N 
ATOM     33  C   UNL     1      -5.026  12.425  20.871  0.00  0.00    +0.000 A 
ATOM     34  N   UNL     1      -5.102  13.078  22.051  0.00  0.00    +0.000 NA
BRANCH  24  36
ATOM     35  C   UNL     1      -6.696  15.360  23.479  0.00  0.00    +0.000 C 
ATOM     36  O   UNL     1      -6.457  13.981  23.751  0.00  0.00    +0.000 OA
ENDBRANCH  24  36
ENDBRANCH  23  32
ENDBRANCH  20  23
ENDBRANCH   1  20
TORSDOF 8
ENDMDL
MODEL 5
REMARK VINA RESULT:      -7.6      1.175      1.425
REMARK  Name = 
REMARK  9 active torsions:
REMARK  status: ('A' for Active; 'I' for Inactive)
REMARK    1  A    between atoms: C_1  and  O_2
REMARK    2  A    between atoms: O_2  and  C_3
REMARK    3  A    between atoms: N_11  and  C_12
REMARK    4  A    between atoms: C_12  and  C_13
REMARK    5  A    between atoms: C_13  and  O_14
REMARK    6  A    between atoms: C_13  and  C_15
REMARK    7  A    between atoms: C_18  and  N_19
REMARK    8  A    between atoms: N_19  and  C_20
REMARK    9  A    between atoms: C_20  and  C_21
REMARK                            x       y       z     vdW  Elec       q    Type
REMARK                         _______ _______ _______ _____ _____    ______ ____
ROOT
ATOM      1  C   UNL     1       1.862   9.013  20.123  0.00  0.00    +0.000 C 
ATOM      2  C   UNL     1       1.282   8.747  21.515  0.00  0.00    +0.000 C 
ATOM      3  C   UNL     1      -0.242   8.669  21.508  0.00  0.00    +0.000 C 
ATOM      4  C   UNL     1      -0.881   9.874  20.797  0.00  0.00    +0.000 C 
ATOM      5  C   UNL     1      -0.159  10.153  19.457  0.00  0.00    +0.000 C 
ATOM      6  O   UNL     1       1.265  10.190  19.562  0.00  0.00    +0.000 OA
ENDROOT
BRANCH   4   7
ATOM      7  N   UNL     1      -0.831  11.012  21.734  0.00  0.00    +0.000 NA
ATOM      8  H   UNL     1       0.149  11.265  21.881  0.00  0.00    +0.000 HD
BRANCH   7   9
ATOM      9  C   UNL     1      -1.530  12.202  21.233  0.00  0.00    +0.000 C 
BRANCH   9  10
ATOM     10  C   UNL     1      -2.791  12.439  22.022  0.00  0.00    +0.000 A 
ATOM     11  C   UNL     1      -3.954  12.881  21.411  0.00  0.00    +0.000 A 
ATOM     12  C   UNL     1      -5.105  12.953  22.178  0.00  0.00    +0.000 A 
ATOM     13  C   UNL     1      -5.046  12.521  23.493  0.00  0.00    +0.000 A 
ATOM     14  N   UNL     1      -3.903  12.104  24.068  0.00  0.00    +0.000 NA
ATOM     15  N   UNL     1      -2.761  12.081  23.329  0.00  0.00    +0.000 NA
ATOM     16  O   UNL     1      -6.163  12.455  24.285  0.00  0.00    +0.000 OA
ATOM     17  C   UNL     1      -7.050  13.509  23.931  0.00  0.00    +0.000 C 
ATOM     18  C   UNL     1      -7.366  13.528  22.440  0.00  0.00    +0.000 C 
ATOM     19  O   UNL     1      -6.224  13.453  21.579  0.00  0.00    +0.000 OA
ENDBRANCH   9  10
ENDBRANCH   7   9
ENDBRANCH   4   7
BRANCH   1  20
ATOM     20  C   UNL     1       1.840   7.782  19.172  0.00  0.00    +0.000 C 
BRANCH  20  21
ATOM     21  O   UNL     1       2.058   8.144  17.802  0.00  0.00    +0.000 OA
ATOM     22  H   UNL     1       2.687   8.895  17.791  0.00  0.00    +0.000 HD
ENDBRANCH  20  21
BRANCH  20  23
ATOM     23  C   UNL     1       2.864   6.719  19.621  0.00  0.00    +0.000 C 
BRANCH  23  32
ATOM     24  C   UNL     1       5.539   5.818  16.657  0.00  0.00    +0.000 A 
ATOM     25  C   UNL     1       5.505   4.673  15.879  0.00  0.00    +0.000 A 
ATOM     26  C   UNL     1       4.475   3.760  16.096  0.00  0.00    +0.000 A 
ATOM     27  C   UNL     1       3.537   4.017  17.095  0.00  0.00    +0.000 A 
ATOM     28  C   UNL     1       2.473   3.067  17.411  0.00  0.00    +0.000 A 
ATOM     29  C   UNL     1       1.690   3.284  18.464  0.00  0.00    +0.000 A 
ATOM     30  C   UNL     1       1.838   4.497  19.302  0.00  0.00    +0.000 A 
ATOM     31  O   UNL     1       1.189   4.592  20.346  0.00  0.00    +0.000 OA
ATOM     32  N   UNL     1       2.735   5.461  18.876  0.00  0.00    +0.000 N 
ATOM     33  C   UNL     1       3.640   5.210  17.817  0.00  0.00    +0.000 A 
ATOM     34  N   UNL     1       4.616   6.116  17.591  0.00  0.00    +0.000 NA
BRANCH  24  36
ATOM     35  C   UNL     1       6.834   7.522  17.589  0.00  0.00    +0.000 C 
ATOM     36  O   UNL     1       6.611   6.667  16.470  0.00  0.00    +0.000 OA
ENDBRANCH  24  36
ENDBRANCH  23  32
ENDBRANCH  20  23
ENDBRANCH   1  20
TORSDOF 8
ENDMDL
MODEL 6
REMARK VINA RESULT:      -7.6      3.206     10.722
REMARK  Name = 
REMARK  9 active torsions:
REMARK  status: ('A' for Active; 'I' for Inactive)
REMARK    1  A    between atoms: C_1  and  O_2
REMARK    2  A    between atoms: O_2  and  C_3
REMARK    3  A    between atoms: N_11  and  C_12
REMARK    4  A    between atoms: C_12  and  C_13
REMARK    5  A    between atoms: C_13  and  O_14
REMARK    6  A    between atoms: C_13  and  C_15
REMARK    7  A    between atoms: C_18  and  N_19
REMARK    8  A    between atoms: N_19  and  C_20
REMARK    9  A    between atoms: C_20  and  C_21
REMARK                            x       y       z     vdW  Elec       q    Type
REMARK                         _______ _______ _______ _____ _____    ______ ____
ROOT
ATOM      1  C   UNL     1       2.513   7.614  17.566  0.00  0.00    +0.000 C 
ATOM      2  C   UNL     1       2.002   6.329  18.223  0.00  0.00    +0.000 C 
ATOM      3  C   UNL     1       2.865   5.895  19.405  0.00  0.00    +0.000 C 
ATOM      4  C   UNL     1       4.360   5.848  19.046  0.00  0.00    +0.000 C 
ATOM      5  C   UNL     1       4.769   7.126  18.276  0.00  0.00    +0.000 C 
ATOM      6  O   UNL     1       3.891   7.461  17.200  0.00  0.00    +0.000 OA
ENDROOT
BRANCH   4   7
ATOM      7  N   UNL     1       4.587   4.608  18.279  0.00  0.00    +0.000 NA
ATOM      8  H   UNL     1       4.207   4.738  17.338  0.00  0.00    +0.000 HD
BRANCH   7   9
ATOM      9  C   UNL     1       6.008   4.266  18.143  0.00  0.00    +0.000 C 
BRANCH   9  10
ATOM     10  C   UNL     1       6.445   4.403  16.708  0.00  0.00    +0.000 A 
ATOM     11  C   UNL     1       5.823   3.695  15.692  0.00  0.00    +0.000 A 
ATOM     12  C   UNL     1       6.195   3.969  14.386  0.00  0.00    +0.000 A 
ATOM     13  C   UNL     1       7.118   4.978  14.165  0.00  0.00    +0.000 A 
ATOM     14  N   UNL     1       7.716   5.647  15.167  0.00  0.00    +0.000 NA
ATOM     15  N   UNL     1       7.389   5.342  16.452  0.00  0.00    +0.000 NA
ATOM     16  O   UNL     1       7.455   5.386  12.900  0.00  0.00    +0.000 OA
ATOM     17  C   UNL     1       7.409   4.270  12.020  0.00  0.00    +0.000 C 
ATOM     18  C   UNL     1       6.075   3.534  12.083  0.00  0.00    +0.000 C 
ATOM     19  O   UNL     1       5.621   3.217  13.403  0.00  0.00    +0.000 OA
ENDBRANCH   9  10
ENDBRANCH   7   9
ENDBRANCH   4   7
BRANCH   1  20
ATOM     20  C   UNL     1       2.218   8.910  18.374  0.00  0.00    +0.000 C 
BRANCH  20  21
ATOM     21  O   UNL     1       1.983  10.044  17.527  0.00  0.00    +0.000 OA
ATOM     22  H   UNL     1       1.143   9.887  17.050  0.00  0.00    +0.000 HD
ENDBRANCH  20  21
BRANCH  20  23
ATOM     23  C   UNL     1       1.032   8.701  19.340  0.00  0.00    +0.000 C 
BRANCH  23  32
ATOM     24  C   UNL     1      -2.067  10.275  17.178  0.00  0.00    +0.000 A 
ATOM     25  C   UNL     1      -2.711  11.466  17.469  0.00  0.00    +0.000 A 
ATOM     26  C   UNL     1      -2.268  12.206  18.563  0.00  0.00    +0.000 A 
ATOM     27  C   UNL     1      -1.215  11.714  19.335  0.00  0.00    +0.000 A 
ATOM     28  C   UNL     1      -0.750  12.413  20.531  0.00  0.00    +0.000 A 
ATOM     29  C   UNL     1       0.156  11.838  21.317  0.00  0.00    +0.000 A 
ATOM     30  C   UNL     1       0.746  10.519  20.983  0.00  0.00    +0.000 A 
ATOM     31  O   UNL     1       1.474   9.959  21.805  0.00  0.00    +0.000 OA
ATOM     32  N   UNL     1       0.416   9.965  19.759  0.00  0.00    +0.000 N 
ATOM     33  C   UNL     1      -0.612  10.512  18.954  0.00  0.00    +0.000 A 
ATOM     34  N   UNL     1      -1.014   9.805  17.875  0.00  0.00    +0.000 NA
BRANCH  24  36
ATOM     35  C   UNL     1      -2.919  10.332  15.006  0.00  0.00    +0.000 C 
ATOM     36  O   UNL     1      -2.574   9.530  16.134  0.00  0.00    +0.000 OA
ENDBRANCH  24  36
ENDBRANCH  23  32
ENDBRANCH  20  23
ENDBRANCH   1  20
TORSDOF 8
ENDMDL
MODEL 7
REMARK VINA RESULT:      -7.6      2.236     10.024
REMARK  Name = 
REMARK  9 active torsions:
REMARK  status: ('A' for Active; 'I' for Inactive)
REMARK    1  A    between atoms: C_1  and  O_2
REMARK    2  A    between atoms: O_2  and  C_3
REMARK    3  A    between atoms: N_11  and  C_12
REMARK    4  A    between atoms: C_12  and  C_13
REMARK    5  A    between atoms: C_13  and  O_14
REMARK    6  A    between atoms: C_13  and  C_15
REMARK    7  A    between atoms: C_18  and  N_19
REMARK    8  A    between atoms: N_19  and  C_20
REMARK    9  A    between atoms: C_20  and  C_21
REMARK                            x       y       z     vdW  Elec       q    Type
REMARK                         _______ _______ _______ _____ _____    ______ ____
ROOT
ATOM      1  C   UNL     1       0.464  11.140  20.937  0.00  0.00    +0.000 C 
ATOM      2  C   UNL     1       0.138  10.128  19.834  0.00  0.00    +0.000 C 
ATOM      3  C   UNL     1      -0.320   8.784  20.393  0.00  0.00    +0.000 C 
ATOM      4  C   UNL     1       0.644   8.240  21.461  0.00  0.00    +0.000 C 
ATOM      5  C   UNL     1       1.021   9.356  22.465  0.00  0.00    +0.000 C 
ATOM      6  O   UNL     1       1.420  10.580  21.847  0.00  0.00    +0.000 OA
ENDROOT
BRANCH   4   7
ATOM      7  N   UNL     1       1.809   7.676  20.753  0.00  0.00    +0.000 NA
ATOM      8  H   UNL     1       2.649   7.889  21.295  0.00  0.00    +0.000 HD
BRANCH   7   9
ATOM      9  C   UNL     1       1.737   6.218  20.594  0.00  0.00    +0.000 C 
BRANCH   9  10
ATOM     10  C   UNL     1       2.506   5.786  19.373  0.00  0.00    +0.000 A 
ATOM     11  C   UNL     1       3.785   6.257  19.120  0.00  0.00    +0.000 A 
ATOM     12  C   UNL     1       4.477   5.718  18.048  0.00  0.00    +0.000 A 
ATOM     13  C   UNL     1       3.880   4.695  17.329  0.00  0.00    +0.000 A 
ATOM     14  N   UNL     1       2.634   4.258  17.588  0.00  0.00    +0.000 NA
ATOM     15  N   UNL     1       1.934   4.823  18.609  0.00  0.00    +0.000 NA
ATOM     16  O   UNL     1       4.540   4.032  16.327  0.00  0.00    +0.000 OA
ATOM     17  C   UNL     1       5.415   4.937  15.666  0.00  0.00    +0.000 C 
ATOM     18  C   UNL     1       6.349   5.657  16.633  0.00  0.00    +0.000 C 
ATOM     19  O   UNL     1       5.707   6.240  17.772  0.00  0.00    +0.000 OA
ENDBRANCH   9  10
ENDBRANCH   7   9
ENDBRANCH   4   7
BRANCH   1  20
ATOM     20  C   UNL     1      -0.784  11.753  21.634  0.00  0.00    +0.000 C 
BRANCH  20  21
ATOM     21  O   UNL     1      -0.501  12.210  22.963  0.00  0.00    +0.000 OA
ATOM     22  H   UNL     1      -0.188  11.439  23.480  0.00  0.00    +0.000 HD
ENDBRANCH  20  21
BRANCH  20  23
ATOM     23  C   UNL     1      -1.386  12.894  20.786  0.00  0.00    +0.000 C 
BRANCH  23  32
ATOM     24  C   UNL     1      -3.140  11.143  17.528  0.00  0.00    +0.000 A 
ATOM     25  C   UNL     1      -4.505  11.031  17.328  0.00  0.00    +0.000 A 
ATOM     26  C   UNL     1      -5.358  11.571  18.287  0.00  0.00    +0.000 A 
ATOM     27  C   UNL     1      -4.814  12.178  19.419  0.00  0.00    +0.000 A 
ATOM     28  C   UNL     1      -5.658  12.703  20.489  0.00  0.00    +0.000 A 
ATOM     29  C   UNL     1      -5.097  13.142  21.612  0.00  0.00    +0.000 A 
ATOM     30  C   UNL     1      -3.625  13.157  21.789  0.00  0.00    +0.000 A 
ATOM     31  O   UNL     1      -3.153  13.438  22.892  0.00  0.00    +0.000 OA
ATOM     32  N   UNL     1      -2.849  12.819  20.694  0.00  0.00    +0.000 N 
ATOM     33  C   UNL     1      -3.422  12.262  19.526  0.00  0.00    +0.000 A 
ATOM     34  N   UNL     1      -2.588  11.771  18.584  0.00  0.00    +0.000 NA
BRANCH  24  36
ATOM     35  C   UNL     1      -2.846  10.615  15.274  0.00  0.00    +0.000 C 
ATOM     36  O   UNL     1      -2.321  10.537  16.598  0.00  0.00    +0.000 OA
ENDBRANCH  24  36
ENDBRANCH  23  32
ENDBRANCH  20  23
ENDBRANCH   1  20
TORSDOF 8
ENDMDL
MODEL 8
REMARK VINA RESULT:      -7.6      2.517      9.959
REMARK  Name = 
REMARK  9 active torsions:
REMARK  status: ('A' for Active; 'I' for Inactive)
REMARK    1  A    between atoms: C_1  and  O_2
REMARK    2  A    between atoms: O_2  and  C_3
REMARK    3  A    between atoms: N_11  and  C_12
REMARK    4  A    between atoms: C_12  and  C_13
REMARK    5  A    between atoms: C_13  and  O_14
REMARK    6  A    between atoms: C_13  and  C_15
REMARK    7  A    between atoms: C_18  and  N_19
REMARK    8  A    between atoms: N_19  and  C_20
REMARK    9  A    between atoms: C_20  and  C_21
REMARK                            x       y       z     vdW  Elec       q    Type
REMARK                         _______ _______ _______ _____ _____    ______ ____
ROOT
ATOM      1  C   UNL     1       0.708  11.032  21.348  0.00  0.00    +0.000 C 
ATOM      2  C   UNL     1       0.848  10.900  19.829  0.00  0.00    +0.000 C 
ATOM      3  C   UNL     1       0.339   9.558  19.310  0.00  0.00    +0.000 C 
ATOM      4  C   UNL     1       0.934   8.372  20.087  0.00  0.00    +0.000 C 
ATOM      5  C   UNL     1       0.865   8.637  21.610  0.00  0.00    +0.000 C 
ATOM      6  O   UNL     1       1.348   9.925  21.996  0.00  0.00    +0.000 OA
ENDROOT
BRANCH   4   7
ATOM      7  N   UNL     1       2.309   8.169  19.592  0.00  0.00    +0.000 NA
ATOM      8  H   UNL     1       2.773   7.491  20.201  0.00  0.00    +0.000 HD
BRANCH   7   9
ATOM      9  C   UNL     1       2.357   7.645  18.221  0.00  0.00    +0.000 C 
BRANCH   9  10
ATOM     10  C   UNL     1       2.490   6.145  18.239  0.00  0.00    +0.000 A 
ATOM     11  C   UNL     1       3.470   5.514  18.991  0.00  0.00    +0.000 A 
ATOM     12  C   UNL     1       3.449   4.131  19.058  0.00  0.00    +0.000 A 
ATOM     13  C   UNL     1       2.417   3.459  18.425  0.00  0.00    +0.000 A 
ATOM     14  N   UNL     1       1.481   4.091  17.693  0.00  0.00    +0.000 NA
ATOM     15  N   UNL     1       1.530   5.446  17.585  0.00  0.00    +0.000 NA
ATOM     16  O   UNL     1       2.261   2.101  18.536  0.00  0.00    +0.000 OA
ATOM     17  C   UNL     1       3.541   1.490  18.634  0.00  0.00    +0.000 C 
ATOM     18  C   UNL     1       4.391   2.094  19.746  0.00  0.00    +0.000 C 
ATOM     19  O   UNL     1       4.459   3.524  19.746  0.00  0.00    +0.000 OA
ENDBRANCH   9  10
ENDBRANCH   7   9
ENDBRANCH   4   7
BRANCH   1  20
ATOM     20  C   UNL     1      -0.746  11.292  21.838  0.00  0.00    +0.000 C 
BRANCH  20  21
ATOM     21  O   UNL     1      -0.869  11.200  23.264  0.00  0.00    +0.000 OA
ATOM     22  H   UNL     1      -0.672  12.084  23.635  0.00  0.00    +0.000 HD
ENDBRANCH  20  21
BRANCH  20  23
ATOM     23  C   UNL     1      -1.262  12.658  21.337  0.00  0.00    +0.000 C 
BRANCH  23  32
ATOM     24  C   UNL     1      -2.906  11.523  17.764  0.00  0.00    +0.000 A 
ATOM     25  C   UNL     1      -4.261  11.521  17.480  0.00  0.00    +0.000 A 
ATOM     26  C   UNL     1      -5.142  11.957  18.468  0.00  0.00    +0.000 A 
ATOM     27  C   UNL     1      -4.635  12.354  19.705  0.00  0.00    +0.000 A 
ATOM     28  C   UNL     1      -5.514  12.759  20.799  0.00  0.00    +0.000 A 
ATOM     29  C   UNL     1      -4.998  12.990  22.004  0.00  0.00    +0.000 A 
ATOM     30  C   UNL     1      -3.540  12.894  22.254  0.00  0.00    +0.000 A 
ATOM     31  O   UNL     1      -3.120  12.978  23.410  0.00  0.00    +0.000 OA
ATOM     32  N   UNL     1      -2.719  12.681  21.161  0.00  0.00    +0.000 N 
ATOM     33  C   UNL     1      -3.250  12.341  19.894  0.00  0.00    +0.000 A 
ATOM     34  N   UNL     1      -2.386  11.951  18.931  0.00  0.00    +0.000 NA
BRANCH  24  36
ATOM     35  C   UNL     1      -2.738  10.149  15.885  0.00  0.00    +0.000 C 
ATOM     36  O   UNL     1      -2.065  11.018  16.794  0.00  0.00    +0.000 OA
ENDBRANCH  24  36
ENDBRANCH  23  32
ENDBRANCH  20  23
ENDBRANCH   1  20
TORSDOF 8
ENDMDL
MODEL 9
REMARK VINA RESULT:      -7.6      5.164      9.826
REMARK  Name = 
REMARK  9 active torsions:
REMARK  status: ('A' for Active; 'I' for Inactive)
REMARK    1  A    between atoms: C_1  and  O_2
REMARK    2  A    between atoms: O_2  and  C_3
REMARK    3  A    between atoms: N_11  and  C_12
REMARK    4  A    between atoms: C_12  and  C_13
REMARK    5  A    between atoms: C_13  and  O_14
REMARK    6  A    between atoms: C_13  and  C_15
REMARK    7  A    between atoms: C_18  and  N_19
REMARK    8  A    between atoms: N_19  and  C_20
REMARK    9  A    between atoms: C_20  and  C_21
REMARK                            x       y       z     vdW  Elec       q    Type
REMARK                         _______ _______ _______ _____ _____    ______ ____
ROOT
ATOM      1  C   UNL     1       5.736   4.812  16.669  0.00  0.00    +0.000 C 
ATOM      2  C   UNL     1       7.253   4.600  16.645  0.00  0.00    +0.000 C 
ATOM      3  C   UNL     1       7.890   4.777  18.020  0.00  0.00    +0.000 C 
ATOM      4  C   UNL     1       7.465   6.094  18.691  0.00  0.00    +0.000 C 
ATOM      5  C   UNL     1       5.935   6.294  18.565  0.00  0.00    +0.000 C 
ATOM      6  O   UNL     1       5.431   6.090  17.244  0.00  0.00    +0.000 OA
ENDROOT
BRANCH   4   7
ATOM      7  N   UNL     1       8.247   7.177  18.065  0.00  0.00    +0.000 NA
ATOM      8  H   UNL     1       8.680   6.810  17.213  0.00  0.00    +0.000 HD
BRANCH   7   9
ATOM      9  C   UNL     1       7.429   8.335  17.686  0.00  0.00    +0.000 C 
BRANCH   9  10
ATOM     10  C   UNL     1       8.120   9.615  18.078  0.00  0.00    +0.000 A 
ATOM     11  C   UNL     1       9.147   9.626  19.009  0.00  0.00    +0.000 A 
ATOM     12  C   UNL     1       9.818  10.819  19.223  0.00  0.00    +0.000 A 
ATOM     13  C   UNL     1       9.470  11.915  18.451  0.00  0.00    +0.000 A 
ATOM     14  N   UNL     1       8.463  11.884  17.559  0.00  0.00    +0.000 NA
ATOM     15  N   UNL     1       7.770  10.726  17.385  0.00  0.00    +0.000 NA
ATOM     16  O   UNL     1      10.158  13.099  18.521  0.00  0.00    +0.000 OA
ATOM     17  C   UNL     1      10.617  13.294  19.853  0.00  0.00    +0.000 C 
ATOM     18  C   UNL     1      11.409  12.101  20.377  0.00  0.00    +0.000 C 
ATOM     19  O   UNL     1      10.781  10.829  20.189  0.00  0.00    +0.000 OA
ENDBRANCH   9  10
ENDBRANCH   7   9
ENDBRANCH   4   7
BRANCH   1  20
ATOM     20  C   UNL     1       4.933   3.634  17.292  0.00  0.00    +0.000 C 
BRANCH  20  21
ATOM     21  O   UNL     1       5.356   3.329  18.629  0.00  0.00    +0.000 OA
ATOM     22  H   UNL     1       6.109   3.917  18.842  0.00  0.00    +0.000 HD
ENDBRANCH  20  21
BRANCH  20  23
ATOM     23  C   UNL     1       3.417   3.919  17.256  0.00  0.00    +0.000 C 
BRANCH  23  32
ATOM     24  C   UNL     1       2.253   7.605  18.604  0.00  0.00    +0.000 A 
ATOM     25  C   UNL     1       1.711   7.857  19.854  0.00  0.00    +0.000 A 
ATOM     26  C   UNL     1       1.567   6.790  20.736  0.00  0.00    +0.000 A 
ATOM     27  C   UNL     1       1.946   5.512  20.327  0.00  0.00    +0.000 A 
ATOM     28  C   UNL     1       1.758   4.344  21.186  0.00  0.00    +0.000 A 
ATOM     29  C   UNL     1       1.998   3.129  20.703  0.00  0.00    +0.000 A 
ATOM     30  C   UNL     1       2.502   2.929  19.323  0.00  0.00    +0.000 A 
ATOM     31  O   UNL     1       2.579   1.785  18.868  0.00  0.00    +0.000 OA
ATOM     32  N   UNL     1       2.836   4.059  18.597  0.00  0.00    +0.000 N 
ATOM     33  C   UNL     1       2.502   5.356  19.055  0.00  0.00    +0.000 A 
ATOM     34  N   UNL     1       2.677   6.391  18.204  0.00  0.00    +0.000 NA
BRANCH  24  36
ATOM     35  C   UNL     1       1.633   9.820  18.212  0.00  0.00    +0.000 C 
ATOM     36  O   UNL     1       2.317   8.667  17.726  0.00  0.00    +0.000 OA
ENDBRANCH  24  36
ENDBRANCH  23  32
ENDBRANCH  20  23
ENDBRANCH   1  20
TORSDOF 8
ENDMDL
