MODEL 1
REMARK VINA RESULT:      -7.3      0.000      0.000
REMARK  Name = 
REMARK  4 active torsions:
REMARK  status: ('A' for Active; 'I' for Inactive)
REMARK    1  A    between atoms: C_2  and  N_3
REMARK    2  A    between atoms: C_6  and  N_7
REMARK    3  A    between atoms: C_8  and  C_10
REMARK    4  A    between atoms: C_12  and  C_13
REMARK                            x       y       z     vdW  Elec       q    Type
REMARK                         _______ _______ _______ _____ _____    ______ ____
ROOT
ATOM      1  C   UNL     1       7.509   6.837  17.952  0.00  0.00    +0.000 A 
ATOM      2  C   UNL     1       8.347   7.554  18.844  0.00  0.00    +0.000 A 
ATOM      3  C   UNL     1       8.464   8.827  18.325  0.00  0.00    +0.000 A 
ATOM      4  N   UNL     1       7.709   8.806  17.182  0.00  0.00    +0.000 N 
ATOM      5  N   UNL     1       7.143   7.613  16.908  0.00  0.00    +0.000 NA
ATOM      6  H   UNL     1       7.551   9.591  16.559  0.00  0.00    +0.000 HD
ENDROOT
BRANCH   3   7
ATOM      7  C   UNL     1       9.155  10.027  18.770  0.00  0.00    +0.000 A 
ATOM      8  C   UNL     1       9.806  10.884  17.890  0.00  0.00    +0.000 A 
ATOM      9  C   UNL     1      10.463  11.998  18.404  0.00  0.00    +0.000 A 
ATOM     10  C   UNL     1      10.449  12.224  19.774  0.00  0.00    +0.000 A 
ATOM     11  C   UNL     1       9.767  11.324  20.578  0.00  0.00    +0.000 A 
ATOM     12  N   UNL     1       9.119  10.231  20.110  0.00  0.00    +0.000 NA
ENDBRANCH   3   7
BRANCH   1  14
ATOM     13  N   UNL     1       5.679   5.322  18.159  0.00  0.00    +0.000 N 
ATOM     14  C   UNL     1       7.053   5.443  18.088  0.00  0.00    +0.000 C 
ATOM     15  O   UNL     1       7.818   4.485  18.134  0.00  0.00    +0.000 OA
ATOM     16  H   UNL     1       5.190   6.172  17.884  0.00  0.00    +0.000 HD
BRANCH  13  20
ATOM     17  N   UNL     1       3.272   3.436  19.758  0.00  0.00    +0.000 N 
ATOM     18  C   UNL     1       2.701   4.363  18.764  0.00  0.00    +0.000 C 
ATOM     19  C   UNL     1       3.602   4.165  17.557  0.00  0.00    +0.000 C 
ATOM     20  C   UNL     1       5.001   4.035  18.159  0.00  0.00    +0.000 C 
ATOM     21  C   UNL     1       4.756   3.447  19.573  0.00  0.00    +0.000 C 
BRANCH  17  23
ATOM     22  N   UNL     1       2.112   2.631  21.814  0.00  0.00    +0.000 NA
ATOM     23  C   UNL     1       2.643   3.011  20.861  0.00  0.00    +0.000 C 
ENDBRANCH  17  23
ENDBRANCH  13  20
ENDBRANCH   1  14
TORSDOF 4
ENDMDL
MODEL 2
REMARK VINA RESULT:      -7.1      0.827      1.112
REMARK  Name = 
REMARK  4 active torsions:
REMARK  status: ('A' for Active; 'I' for Inactive)
REMARK    1  A    between atoms: C_2  and  N_3
REMARK    2  A    between atoms: C_6  and  N_7
REMARK    3  A    between atoms: C_8  and  C_10
REMARK    4  A    between atoms: C_12  and  C_13
REMARK                            x       y       z     vdW  Elec       q    Type
REMARK                         _______ _______ _______ _____ _____    ______ ____
ROOT
ATOM      1  C   UNL     1       7.443   6.789  17.901  0.00  0.00    +0.000 A 
ATOM      2  C   UNL     1       8.277   7.563  18.749  0.00  0.00    +0.000 A 
ATOM      3  C   UNL     1       8.286   8.838  18.221  0.00  0.00    +0.000 A 
ATOM      4  N   UNL     1       7.479   8.762  17.117  0.00  0.00    +0.000 N 
ATOM      5  N   UNL     1       6.977   7.533  16.874  0.00  0.00    +0.000 NA
ATOM      6  H   UNL     1       7.241   9.532  16.499  0.00  0.00    +0.000 HD
ENDROOT
BRANCH   3   7
ATOM      7  C   UNL     1       8.920  10.083  18.627  0.00  0.00    +0.000 A 
ATOM      8  C   UNL     1       9.590  10.218  19.838  0.00  0.00    +0.000 A 
ATOM      9  C   UNL     1      10.147  11.453  20.158  0.00  0.00    +0.000 A 
ATOM     10  C   UNL     1      10.022  12.509  19.265  0.00  0.00    +0.000 A 
ATOM     11  C   UNL     1       9.346  12.282  18.076  0.00  0.00    +0.000 A 
ATOM     12  N   UNL     1       8.792  11.095  17.735  0.00  0.00    +0.000 NA
ENDBRANCH   3   7
BRANCH   1  14
ATOM     13  N   UNL     1       5.722   5.147  18.064  0.00  0.00    +0.000 N 
ATOM     14  C   UNL     1       7.085   5.369  18.063  0.00  0.00    +0.000 C 
ATOM     15  O   UNL     1       7.914   4.474  18.185  0.00  0.00    +0.000 OA
ATOM     16  H   UNL     1       5.187   5.948  17.733  0.00  0.00    +0.000 HD
BRANCH  13  20
ATOM     17  N   UNL     1       3.074   3.264  19.228  0.00  0.00    +0.000 N 
ATOM     18  C   UNL     1       2.749   4.000  17.992  0.00  0.00    +0.000 C 
ATOM     19  C   UNL     1       3.958   3.734  17.111  0.00  0.00    +0.000 C 
ATOM     20  C   UNL     1       5.142   3.813  18.075  0.00  0.00    +0.000 C 
ATOM     21  C   UNL     1       4.548   3.390  19.444  0.00  0.00    +0.000 C 
BRANCH  17  23
ATOM     22  N   UNL     1       1.434   2.647  21.003  0.00  0.00    +0.000 NA
ATOM     23  C   UNL     1       2.189   2.927  20.175  0.00  0.00    +0.000 C 
ENDBRANCH  17  23
ENDBRANCH  13  20
ENDBRANCH   1  14
TORSDOF 4
ENDMDL
MODEL 3
REMARK VINA RESULT:      -6.9      5.394      6.946
REMARK  Name = 
REMARK  4 active torsions:
REMARK  status: ('A' for Active; 'I' for Inactive)
REMARK    1  A    between atoms: C_2  and  N_3
REMARK    2  A    between atoms: C_6  and  N_7
REMARK    3  A    between atoms: C_8  and  C_10
REMARK    4  A    between atoms: C_12  and  C_13
REMARK                            x       y       z     vdW  Elec       q    Type
REMARK                         _______ _______ _______ _____ _____    ______ ____
ROOT
ATOM      1  C   UNL     1       2.183   8.309  18.367  0.00  0.00    +0.000 A 
ATOM      2  C   UNL     1       1.618   8.491  19.657  0.00  0.00    +0.000 A 
ATOM      3  C   UNL     1       0.902   9.669  19.600  0.00  0.00    +0.000 A 
ATOM      4  N   UNL     1       1.070  10.115  18.316  0.00  0.00    +0.000 N 
ATOM      5  N   UNL     1       1.863   9.337  17.552  0.00  0.00    +0.000 NA
ATOM      6  H   UNL     1       0.655  10.952  17.919  0.00  0.00    +0.000 HD
ENDROOT
BRANCH   3   7
ATOM      7  C   UNL     1       0.087  10.388  20.567  0.00  0.00    +0.000 A 
ATOM      8  C   UNL     1       0.017  10.021  21.905  0.00  0.00    +0.000 A 
ATOM      9  C   UNL     1      -0.808  10.751  22.756  0.00  0.00    +0.000 A 
ATOM     10  C   UNL     1      -1.533  11.822  22.249  0.00  0.00    +0.000 A 
ATOM     11  C   UNL     1      -1.395  12.124  20.904  0.00  0.00    +0.000 A 
ATOM     12  N   UNL     1      -0.604  11.434  20.049  0.00  0.00    +0.000 NA
ENDBRANCH   3   7
BRANCH   1  14
ATOM     13  N   UNL     1       2.514   5.948  18.307  0.00  0.00    +0.000 N 
ATOM     14  C   UNL     1       3.006   7.175  17.910  0.00  0.00    +0.000 C 
ATOM     15  O   UNL     1       4.027   7.309  17.244  0.00  0.00    +0.000 OA
ATOM     16  H   UNL     1       1.557   5.995  18.653  0.00  0.00    +0.000 HD
BRANCH  13  20
ATOM     17  N   UNL     1       3.806   2.931  19.376  0.00  0.00    +0.000 N 
ATOM     18  C   UNL     1       2.333   2.927  19.309  0.00  0.00    +0.000 C 
ATOM     19  C   UNL     1       2.053   3.564  17.958  0.00  0.00    +0.000 C 
ATOM     20  C   UNL     1       3.084   4.687  17.858  0.00  0.00    +0.000 C 
ATOM     21  C   UNL     1       4.276   4.189  18.717  0.00  0.00    +0.000 C 
BRANCH  17  23
ATOM     22  N   UNL     1       5.175   1.566  20.952  0.00  0.00    +0.000 NA
ATOM     23  C   UNL     1       4.538   2.191  20.217  0.00  0.00    +0.000 C 
ENDBRANCH  17  23
ENDBRANCH  13  20
ENDBRANCH   1  14
TORSDOF 4
ENDMDL
MODEL 4
REMARK VINA RESULT:      -6.8      1.785      2.137
REMARK  Name = 
REMARK  4 active torsions:
REMARK  status: ('A' for Active; 'I' for Inactive)
REMARK    1  A    between atoms: C_2  and  N_3
REMARK    2  A    between atoms: C_6  and  N_7
REMARK    3  A    between atoms: C_8  and  C_10
REMARK    4  A    between atoms: C_12  and  C_13
REMARK                            x       y       z     vdW  Elec       q    Type
REMARK                         _______ _______ _______ _____ _____    ______ ____
ROOT
ATOM      1  C   UNL     1       7.647   7.673  17.746  0.00  0.00    +0.000 A 
ATOM      2  C   UNL     1       7.791   9.051  17.439  0.00  0.00    +0.000 A 
ATOM      3  C   UNL     1       8.664   9.566  18.376  0.00  0.00    +0.000 A 
ATOM      4  N   UNL     1       8.989   8.498  19.169  0.00  0.00    +0.000 N 
ATOM      5  N   UNL     1       8.370   7.346  18.839  0.00  0.00    +0.000 NA
ATOM      6  H   UNL     1       9.636   8.514  19.952  0.00  0.00    +0.000 HD
ENDROOT
BRANCH   3   7
ATOM      7  C   UNL     1       9.229  10.888  18.593  0.00  0.00    +0.000 A 
ATOM      8  C   UNL     1      10.208  11.134  19.548  0.00  0.00    +0.000 A 
ATOM      9  C   UNL     1      10.676  12.436  19.705  0.00  0.00    +0.000 A 
ATOM     10  C   UNL     1      10.159  13.447  18.907  0.00  0.00    +0.000 A 
ATOM     11  C   UNL     1       9.192  13.110  17.972  0.00  0.00    +0.000 A 
ATOM     12  N   UNL     1       8.714  11.856  17.795  0.00  0.00    +0.000 NA
ENDBRANCH   3   7
BRANCH   1  14
ATOM     13  N   UNL     1       5.614   6.439  17.585  0.00  0.00    +0.000 N 
ATOM     14  C   UNL     1       6.847   6.678  17.011  0.00  0.00    +0.000 C 
ATOM     15  O   UNL     1       7.236   6.119  15.992  0.00  0.00    +0.000 OA
ATOM     16  H   UNL     1       5.357   7.135  18.283  0.00  0.00    +0.000 HD
BRANCH  13  20
ATOM     17  N   UNL     1       3.798   3.524  17.936  0.00  0.00    +0.000 N 
ATOM     18  C   UNL     1       3.202   4.658  18.667  0.00  0.00    +0.000 C 
ATOM     19  C   UNL     1       3.251   5.783  17.647  0.00  0.00    +0.000 C 
ATOM     20  C   UNL     1       4.603   5.599  16.960  0.00  0.00    +0.000 C 
ATOM     21  C   UNL     1       4.885   4.078  17.071  0.00  0.00    +0.000 C 
BRANCH  17  23
ATOM     22  N   UNL     1       3.584   1.124  18.579  0.00  0.00    +0.000 NA
ATOM     23  C   UNL     1       3.685   2.238  18.290  0.00  0.00    +0.000 C 
ENDBRANCH  17  23
ENDBRANCH  13  20
ENDBRANCH   1  14
TORSDOF 4
ENDMDL
MODEL 5
REMARK VINA RESULT:      -6.8      1.778      1.972
REMARK  Name = 
REMARK  4 active torsions:
REMARK  status: ('A' for Active; 'I' for Inactive)
REMARK    1  A    between atoms: C_2  and  N_3
REMARK    2  A    between atoms: C_6  and  N_7
REMARK    3  A    between atoms: C_8  and  C_10
REMARK    4  A    between atoms: C_12  and  C_13
REMARK                            x       y       z     vdW  Elec       q    Type
REMARK                         _______ _______ _______ _____ _____    ______ ____
ROOT
ATOM      1  C   UNL     1       7.655   7.712  17.755  0.00  0.00    +0.000 A 
ATOM      2  C   UNL     1       7.793   9.093  17.458  0.00  0.00    +0.000 A 
ATOM      3  C   UNL     1       8.669   9.602  18.395  0.00  0.00    +0.000 A 
ATOM      4  N   UNL     1       9.000   8.529  19.180  0.00  0.00    +0.000 N 
ATOM      5  N   UNL     1       8.383   7.378  18.843  0.00  0.00    +0.000 NA
ATOM      6  H   UNL     1       9.651   8.541  19.959  0.00  0.00    +0.000 HD
ENDROOT
BRANCH   3   7
ATOM      7  C   UNL     1       9.232  10.925  18.620  0.00  0.00    +0.000 A 
ATOM      8  C   UNL     1       8.887  12.025  17.844  0.00  0.00    +0.000 A 
ATOM      9  C   UNL     1       9.493  13.249  18.113  0.00  0.00    +0.000 A 
ATOM     10  C   UNL     1      10.419  13.339  19.145  0.00  0.00    +0.000 A 
ATOM     11  C   UNL     1      10.695  12.193  19.875  0.00  0.00    +0.000 A 
ATOM     12  N   UNL     1      10.125  10.988  19.638  0.00  0.00    +0.000 NA
ENDBRANCH   3   7
BRANCH   1  14
ATOM     13  N   UNL     1       5.619   6.482  17.588  0.00  0.00    +0.000 N 
ATOM     14  C   UNL     1       6.853   6.721  17.017  0.00  0.00    +0.000 C 
ATOM     15  O   UNL     1       7.243   6.164  15.996  0.00  0.00    +0.000 OA
ATOM     16  H   UNL     1       5.363   7.175  18.288  0.00  0.00    +0.000 HD
BRANCH  13  20
ATOM     17  N   UNL     1       3.804   3.565  17.925  0.00  0.00    +0.000 N 
ATOM     18  C   UNL     1       3.208   4.695  18.662  0.00  0.00    +0.000 C 
ATOM     19  C   UNL     1       3.256   5.825  17.648  0.00  0.00    +0.000 C 
ATOM     20  C   UNL     1       4.608   5.645  16.959  0.00  0.00    +0.000 C 
ATOM     21  C   UNL     1       4.890   4.124  17.062  0.00  0.00    +0.000 C 
BRANCH  17  23
ATOM     22  N   UNL     1       3.583   1.163  18.557  0.00  0.00    +0.000 NA
ATOM     23  C   UNL     1       3.691   2.277  18.272  0.00  0.00    +0.000 C 
ENDBRANCH  17  23
ENDBRANCH  13  20
ENDBRANCH   1  14
TORSDOF 4
ENDMDL
MODEL 6
REMARK VINA RESULT:      -6.8      1.579      1.718
REMARK  Name = 
REMARK  4 active torsions:
REMARK  status: ('A' for Active; 'I' for Inactive)
REMARK    1  A    between atoms: C_2  and  N_3
REMARK    2  A    between atoms: C_6  and  N_7
REMARK    3  A    between atoms: C_8  and  C_10
REMARK    4  A    between atoms: C_12  and  C_13
REMARK                            x       y       z     vdW  Elec       q    Type
REMARK                         _______ _______ _______ _____ _____    ______ ____
ROOT
ATOM      1  C   UNL     1       7.201   7.492  17.735  0.00  0.00    +0.000 A 
ATOM      2  C   UNL     1       7.495   8.876  17.624  0.00  0.00    +0.000 A 
ATOM      3  C   UNL     1       8.551   9.114  18.480  0.00  0.00    +0.000 A 
ATOM      4  N   UNL     1       8.825   7.895  19.040  0.00  0.00    +0.000 N 
ATOM      5  N   UNL     1       8.010   6.898  18.638  0.00  0.00    +0.000 NA
ATOM      6  H   UNL     1       9.568   7.699  19.705  0.00  0.00    +0.000 HD
ENDROOT
BRANCH   3   7
ATOM      7  C   UNL     1       9.323  10.304  18.806  0.00  0.00    +0.000 A 
ATOM      8  C   UNL     1       9.946  11.078  17.835  0.00  0.00    +0.000 A 
ATOM      9  C   UNL     1      10.685  12.187  18.238  0.00  0.00    +0.000 A 
ATOM     10  C   UNL     1      10.778  12.489  19.590  0.00  0.00    +0.000 A 
ATOM     11  C   UNL     1      10.116  11.668  20.489  0.00  0.00    +0.000 A 
ATOM     12  N   UNL     1       9.390  10.583  20.131  0.00  0.00    +0.000 NA
ENDBRANCH   3   7
BRANCH   1  14
ATOM     13  N   UNL     1       5.130   6.311  17.785  0.00  0.00    +0.000 N 
ATOM     14  C   UNL     1       6.175   6.741  16.991  0.00  0.00    +0.000 C 
ATOM     15  O   UNL     1       6.242   6.519  15.787  0.00  0.00    +0.000 OA
ATOM     16  H   UNL     1       5.111   6.762  18.698  0.00  0.00    +0.000 HD
BRANCH  13  20
ATOM     17  N   UNL     1       2.664   3.989  18.448  0.00  0.00    +0.000 N 
ATOM     18  C   UNL     1       2.366   5.315  19.021  0.00  0.00    +0.000 C 
ATOM     19  C   UNL     1       2.679   6.259  17.873  0.00  0.00    +0.000 C 
ATOM     20  C   UNL     1       3.941   5.670  17.244  0.00  0.00    +0.000 C 
ATOM     21  C   UNL     1       3.846   4.152  17.547  0.00  0.00    +0.000 C 
BRANCH  17  23
ATOM     22  N   UNL     1       1.880   1.810  19.374  0.00  0.00    +0.000 NA
ATOM     23  C   UNL     1       2.244   2.823  18.954  0.00  0.00    +0.000 C 
ENDBRANCH  17  23
ENDBRANCH  13  20
ENDBRANCH   1  14
TORSDOF 4
ENDMDL
MODEL 7
REMARK VINA RESULT:      -6.7      4.470      7.005
REMARK  Name = 
REMARK  4 active torsions:
REMARK  status: ('A' for Active; 'I' for Inactive)
REMARK    1  A    between atoms: C_2  and  N_3
REMARK    2  A    between atoms: C_6  and  N_7
REMARK    3  A    between atoms: C_8  and  C_10
REMARK    4  A    between atoms: C_12  and  C_13
REMARK                            x       y       z     vdW  Elec       q    Type
REMARK                         _______ _______ _______ _____ _____    ______ ____
ROOT
ATOM      1  C   UNL     1       3.572   5.251  19.533  0.00  0.00    +0.000 A 
ATOM      2  C   UNL     1       3.231   6.588  19.200  0.00  0.00    +0.000 A 
ATOM      3  C   UNL     1       2.211   6.949  20.056  0.00  0.00    +0.000 A 
ATOM      4  N   UNL     1       2.002   5.842  20.834  0.00  0.00    +0.000 N 
ATOM      5  N   UNL     1       2.783   4.786  20.527  0.00  0.00    +0.000 NA
ATOM      6  H   UNL     1       1.332   5.766  21.594  0.00  0.00    +0.000 HD
ENDROOT
BRANCH   3   7
ATOM      7  C   UNL     1       1.451   8.176  20.241  0.00  0.00    +0.000 A 
ATOM      8  C   UNL     1       0.829   8.495  21.442  0.00  0.00    +0.000 A 
ATOM      9  C   UNL     1       0.101   9.679  21.524  0.00  0.00    +0.000 A 
ATOM     10  C   UNL     1       0.019  10.506  20.411  0.00  0.00    +0.000 A 
ATOM     11  C   UNL     1       0.679  10.116  19.257  0.00  0.00    +0.000 A 
ATOM     12  N   UNL     1       1.393   8.971  19.144  0.00  0.00    +0.000 NA
ENDBRANCH   3   7
BRANCH   1  14
ATOM     13  N   UNL     1       5.049   4.894  17.695  0.00  0.00    +0.000 N 
ATOM     14  C   UNL     1       4.632   4.428  18.926  0.00  0.00    +0.000 C 
ATOM     15  O   UNL     1       5.098   3.428  19.462  0.00  0.00    +0.000 OA
ATOM     16  H   UNL     1       4.730   5.841  17.499  0.00  0.00    +0.000 HD
BRANCH  13  20
ATOM     17  N   UNL     1       6.262   4.137  14.554  0.00  0.00    +0.000 N 
ATOM     18  C   UNL     1       6.504   5.542  14.934  0.00  0.00    +0.000 C 
ATOM     19  C   UNL     1       7.033   5.423  16.353  0.00  0.00    +0.000 C 
ATOM     20  C   UNL     1       6.176   4.321  16.976  0.00  0.00    +0.000 C 
ATOM     21  C   UNL     1       5.773   3.426  15.775  0.00  0.00    +0.000 C 
BRANCH  17  23
ATOM     22  N   UNL     1       5.961   3.337  12.211  0.00  0.00    +0.000 NA
ATOM     23  C   UNL     1       6.102   3.699  13.299  0.00  0.00    +0.000 C 
ENDBRANCH  17  23
ENDBRANCH  13  20
ENDBRANCH   1  14
TORSDOF 4
ENDMDL
MODEL 8
REMARK VINA RESULT:      -6.7      4.996      7.286
REMARK  Name = 
REMARK  4 active torsions:
REMARK  status: ('A' for Active; 'I' for Inactive)
REMARK    1  A    between atoms: C_2  and  N_3
REMARK    2  A    between atoms: C_6  and  N_7
REMARK    3  A    between atoms: C_8  and  C_10
REMARK    4  A    between atoms: C_12  and  C_13
REMARK                            x       y       z     vdW  Elec       q    Type
REMARK                         _______ _______ _______ _____ _____    ______ ____
ROOT
ATOM      1  C   UNL     1       2.450   6.980  19.133  0.00  0.00    +0.000 A 
ATOM      2  C   UNL     1       1.839   7.301  20.373  0.00  0.00    +0.000 A 
ATOM      3  C   UNL     1       1.357   8.587  20.242  0.00  0.00    +0.000 A 
ATOM      4  N   UNL     1       1.693   8.956  18.966  0.00  0.00    +0.000 N 
ATOM      5  N   UNL     1       2.382   8.023  18.278  0.00  0.00    +0.000 NA
ATOM      6  H   UNL     1       1.467   9.841  18.524  0.00  0.00    +0.000 HD
ENDROOT
BRANCH   3   7
ATOM      7  C   UNL     1       0.621   9.473  21.131  0.00  0.00    +0.000 A 
ATOM      8  C   UNL     1       0.106   9.047  22.350  0.00  0.00    +0.000 A 
ATOM      9  C   UNL     1      -0.607   9.956  23.128  0.00  0.00    +0.000 A 
ATOM     10  C   UNL     1      -0.781  11.255  22.670  0.00  0.00    +0.000 A 
ATOM     11  C   UNL     1      -0.224  11.596  21.448  0.00  0.00    +0.000 A 
ATOM     12  N   UNL     1       0.472  10.738  20.666  0.00  0.00    +0.000 NA
ENDBRANCH   3   7
BRANCH   1  14
ATOM     13  N   UNL     1       4.307   5.859  18.142  0.00  0.00    +0.000 N 
ATOM     14  C   UNL     1       3.082   5.702  18.759  0.00  0.00    +0.000 C 
ATOM     15  O   UNL     1       2.570   4.609  18.975  0.00  0.00    +0.000 OA
ATOM     16  H   UNL     1       4.686   6.799  18.240  0.00  0.00    +0.000 HD
BRANCH  13  20
ATOM     17  N   UNL     1       6.072   4.356  15.585  0.00  0.00    +0.000 N 
ATOM     18  C   UNL     1       6.817   5.460  16.219  0.00  0.00    +0.000 C 
ATOM     19  C   UNL     1       6.626   5.191  17.702  0.00  0.00    +0.000 C 
ATOM     20  C   UNL     1       5.171   4.736  17.810  0.00  0.00    +0.000 C 
ATOM     21  C   UNL     1       4.869   4.090  16.433  0.00  0.00    +0.000 C 
BRANCH  17  23
ATOM     22  N   UNL     1       6.332   3.655  13.206  0.00  0.00    +0.000 NA
ATOM     23  C   UNL     1       6.208   3.971  14.310  0.00  0.00    +0.000 C 
ENDBRANCH  17  23
ENDBRANCH  13  20
ENDBRANCH   1  14
TORSDOF 4
ENDMDL
MODEL 9
REMARK VINA RESULT:      -6.7      5.291      6.775
REMARK  Name = 
REMARK  4 active torsions:
REMARK  status: ('A' for Active; 'I' for Inactive)
REMARK    1  A    between atoms: C_2  and  N_3
REMARK    2  A    between atoms: C_6  and  N_7
REMARK    3  A    between atoms: C_8  and  C_10
REMARK    4  A    between atoms: C_12  and  C_13
REMARK                            x       y       z     vdW  Elec       q    Type
REMARK                         _______ _______ _______ _____ _____    ______ ____
ROOT
ATOM      1  C   UNL     1       2.288   8.150  18.284  0.00  0.00    +0.000 A 
ATOM      2  C   UNL     1       1.782   8.397  19.587  0.00  0.00    +0.000 A 
ATOM      3  C   UNL     1       0.979   9.514  19.483  0.00  0.00    +0.000 A 
ATOM      4  N   UNL     1       1.042   9.865  18.160  0.00  0.00    +0.000 N 
ATOM      5  N   UNL     1       1.848   9.084  17.412  0.00  0.00    +0.000 NA
ATOM      6  H   UNL     1       0.545  10.636  17.725  0.00  0.00    +0.000 HD
ENDROOT
BRANCH   3   7
ATOM      7  C   UNL     1       0.166  10.251  20.438  0.00  0.00    +0.000 A 
ATOM      8  C   UNL     1      -0.518  11.412  20.097  0.00  0.00    +0.000 A 
ATOM      9  C   UNL     1      -1.254  12.067  21.080  0.00  0.00    +0.000 A 
ATOM     10  C   UNL     1      -1.286  11.547  22.367  0.00  0.00    +0.000 A 
ATOM     11  C   UNL     1      -0.583  10.379  22.617  0.00  0.00    +0.000 A 
ATOM     12  N   UNL     1       0.143   9.718  21.684  0.00  0.00    +0.000 NA
ENDBRANCH   3   7
BRANCH   1  14
ATOM     13  N   UNL     1       2.712   5.804  18.273  0.00  0.00    +0.000 N 
ATOM     14  C   UNL     1       3.166   7.043  17.867  0.00  0.00    +0.000 C 
ATOM     15  O   UNL     1       4.197   7.207  17.224  0.00  0.00    +0.000 OA
ATOM     16  H   UNL     1       1.746   5.819  18.594  0.00  0.00    +0.000 HD
BRANCH  13  20
ATOM     17  N   UNL     1       3.980   2.804  19.415  0.00  0.00    +0.000 N 
ATOM     18  C   UNL     1       2.517   2.770  19.231  0.00  0.00    +0.000 C 
ATOM     19  C   UNL     1       2.332   3.415  17.868  0.00  0.00    +0.000 C 
ATOM     20  C   UNL     1       3.344   4.560  17.860  0.00  0.00    +0.000 C 
ATOM     21  C   UNL     1       4.474   4.077  18.806  0.00  0.00    +0.000 C 
BRANCH  17  23
ATOM     22  N   UNL     1       5.251   1.428  21.061  0.00  0.00    +0.000 NA
ATOM     23  C   UNL     1       4.659   2.070  20.306  0.00  0.00    +0.000 C 
ENDBRANCH  17  23
ENDBRANCH  13  20
ENDBRANCH   1  14
TORSDOF 4
ENDMDL
