MODEL 1
REMARK VINA RESULT:      -6.8      0.000      0.000
REMARK  Name = 
REMARK  4 active torsions:
REMARK  status: ('A' for Active; 'I' for Inactive)
REMARK    1  A    between atoms: C_2  and  C_3
REMARK    2  A    between atoms: C_8  and  C_9
REMARK    3  A    between atoms: C_9  and  N_10
REMARK    4  A    between atoms: C_13  and  O_14
REMARK                            x       y       z     vdW  Elec       q    Type
REMARK                         _______ _______ _______ _____ _____    ______ ____
ROOT
ATOM      1  C   UNL     1       4.177   5.568  18.803  0.00  0.00    +0.000 C 
ENDROOT
BRANCH   1   7
ATOM      2  C   UNL     1       6.516   5.010  17.869  0.00  0.00    +0.000 A 
ATOM      3  C   UNL     1       7.344   4.622  16.799  0.00  0.00    +0.000 A 
ATOM      4  C   UNL     1       6.807   4.397  15.538  0.00  0.00    +0.000 A 
ATOM      5  C   UNL     1       5.439   4.560  15.329  0.00  0.00    +0.000 A 
ATOM      6  C   UNL     1       4.608   4.933  16.390  0.00  0.00    +0.000 A 
ATOM      7  C   UNL     1       5.124   5.151  17.681  0.00  0.00    +0.000 A 
BRANCH   2   9
ATOM      8  N   UNL     1       7.664   5.486  20.151  0.00  0.00    +0.000 NA
ATOM      9  C   UNL     1       7.142   5.274  19.134  0.00  0.00    +0.000 C 
ENDBRANCH   2   9
ENDBRANCH   1   7
BRANCH   1  10
ATOM     10  N   UNL     1       3.103   4.625  19.180  0.00  0.00    +0.000 NA
ATOM     11  C   UNL     1       2.118   5.198  20.097  0.00  0.00    +0.000 C 
ATOM     12  C   UNL     1       0.986   4.250  20.503  0.00  0.00    +0.000 C 
ATOM     13  C   UNL     1       1.451   2.837  20.837  0.00  0.00    +0.000 C 
ATOM     14  C   UNL     1       2.454   2.311  19.821  0.00  0.00    +0.000 C 
ATOM     15  C   UNL     1       3.589   3.300  19.554  0.00  0.00    +0.000 C 
BRANCH  13  16
ATOM     16  O   UNL     1       2.000   2.780  22.151  0.00  0.00    +0.000 OA
ATOM     17  H   UNL     1       1.906   3.656  22.564  0.00  0.00    +0.000 HD
ENDBRANCH  13  16
ENDBRANCH   1  10
TORSDOF 4
ENDMDL
MODEL 2
REMARK VINA RESULT:      -6.5      1.038      1.165
REMARK  Name = 
REMARK  4 active torsions:
REMARK  status: ('A' for Active; 'I' for Inactive)
REMARK    1  A    between atoms: C_2  and  C_3
REMARK    2  A    between atoms: C_8  and  C_9
REMARK    3  A    between atoms: C_9  and  N_10
REMARK    4  A    between atoms: C_13  and  O_14
REMARK                            x       y       z     vdW  Elec       q    Type
REMARK                         _______ _______ _______ _____ _____    ______ ____
ROOT
ATOM      1  C   UNL     1       4.774   3.422  18.649  0.00  0.00    +0.000 C 
ENDROOT
BRANCH   1   7
ATOM      2  C   UNL     1       6.506   5.050  17.648  0.00  0.00    +0.000 A 
ATOM      3  C   UNL     1       7.060   5.714  16.537  0.00  0.00    +0.000 A 
ATOM      4  C   UNL     1       6.528   5.527  15.267  0.00  0.00    +0.000 A 
ATOM      5  C   UNL     1       5.435   4.682  15.092  0.00  0.00    +0.000 A 
ATOM      6  C   UNL     1       4.886   4.010  16.188  0.00  0.00    +0.000 A 
ATOM      7  C   UNL     1       5.417   4.168  17.483  0.00  0.00    +0.000 A 
BRANCH   2   9
ATOM      8  N   UNL     1       7.533   5.528  19.986  0.00  0.00    +0.000 NA
ATOM      9  C   UNL     1       7.073   5.324  18.938  0.00  0.00    +0.000 C 
ENDBRANCH   2   9
ENDBRANCH   1   7
BRANCH   1  10
ATOM     10  N   UNL     1       3.340   3.665  18.911  0.00  0.00    +0.000 NA
ATOM     11  C   UNL     1       3.095   4.531  20.064  0.00  0.00    +0.000 C 
ATOM     12  C   UNL     1       1.619   4.811  20.359  0.00  0.00    +0.000 C 
ATOM     13  C   UNL     1       0.723   3.582  20.260  0.00  0.00    +0.000 C 
ATOM     14  C   UNL     1       1.028   2.752  19.021  0.00  0.00    +0.000 C 
ATOM     15  C   UNL     1       2.521   2.457  18.869  0.00  0.00    +0.000 C 
BRANCH  13  16
ATOM     16  O   UNL     1       0.829   2.779  21.433  0.00  0.00    +0.000 OA
ATOM     17  H   UNL     1       1.211   3.322  22.145  0.00  0.00    +0.000 HD
ENDBRANCH  13  16
ENDBRANCH   1  10
TORSDOF 4
ENDMDL
MODEL 3
REMARK VINA RESULT:      -6.5      2.615      5.819
REMARK  Name = 
REMARK  4 active torsions:
REMARK  status: ('A' for Active; 'I' for Inactive)
REMARK    1  A    between atoms: C_2  and  C_3
REMARK    2  A    between atoms: C_8  and  C_9
REMARK    3  A    between atoms: C_9  and  N_10
REMARK    4  A    between atoms: C_13  and  O_14
REMARK                            x       y       z     vdW  Elec       q    Type
REMARK                         _______ _______ _______ _____ _____    ______ ____
ROOT
ATOM      1  C   UNL     1       4.491   5.362  19.323  0.00  0.00    +0.000 C 
ENDROOT
BRANCH   1   7
ATOM      2  C   UNL     1       2.057   5.208  20.161  0.00  0.00    +0.000 A 
ATOM      3  C   UNL     1       0.942   4.437  20.543  0.00  0.00    +0.000 A 
ATOM      4  C   UNL     1       1.010   3.050  20.539  0.00  0.00    +0.000 A 
ATOM      5  C   UNL     1       2.192   2.415  20.160  0.00  0.00    +0.000 A 
ATOM      6  C   UNL     1       3.299   3.173  19.769  0.00  0.00    +0.000 A 
ATOM      7  C   UNL     1       3.251   4.580  19.747  0.00  0.00    +0.000 A 
BRANCH   2   9
ATOM      8  N   UNL     1       1.832   7.793  20.276  0.00  0.00    +0.000 NA
ATOM      9  C   UNL     1       1.935   6.637  20.234  0.00  0.00    +0.000 C 
ENDBRANCH   2   9
ENDBRANCH   1   7
BRANCH   1  10
ATOM     10  N   UNL     1       5.357   4.764  18.285  0.00  0.00    +0.000 NA
ATOM     11  C   UNL     1       6.770   5.115  18.429  0.00  0.00    +0.000 C 
ATOM     12  C   UNL     1       7.697   4.505  17.375  0.00  0.00    +0.000 C 
ATOM     13  C   UNL     1       7.147   4.569  15.955  0.00  0.00    +0.000 C 
ATOM     14  C   UNL     1       5.681   4.166  15.892  0.00  0.00    +0.000 C 
ATOM     15  C   UNL     1       4.830   4.898  16.930  0.00  0.00    +0.000 C 
BRANCH  13  16
ATOM     16  O   UNL     1       7.330   5.868  15.397  0.00  0.00    +0.000 OA
ATOM     17  H   UNL     1       6.515   6.120  14.928  0.00  0.00    +0.000 HD
ENDBRANCH  13  16
ENDBRANCH   1  10
TORSDOF 4
ENDMDL
MODEL 4
REMARK VINA RESULT:      -6.5      0.859      1.413
REMARK  Name = 
REMARK  4 active torsions:
REMARK  status: ('A' for Active; 'I' for Inactive)
REMARK    1  A    between atoms: C_2  and  C_3
REMARK    2  A    between atoms: C_8  and  C_9
REMARK    3  A    between atoms: C_9  and  N_10
REMARK    4  A    between atoms: C_13  and  O_14
REMARK                            x       y       z     vdW  Elec       q    Type
REMARK                         _______ _______ _______ _____ _____    ______ ____
ROOT
ATOM      1  C   UNL     1       4.067   5.695  18.528  0.00  0.00    +0.000 C 
ENDROOT
BRANCH   1   7
ATOM      2  C   UNL     1       6.455   5.106  17.753  0.00  0.00    +0.000 A 
ATOM      3  C   UNL     1       7.355   4.747  16.731  0.00  0.00    +0.000 A 
ATOM      4  C   UNL     1       6.915   4.606  15.421  0.00  0.00    +0.000 A 
ATOM      5  C   UNL     1       5.574   4.827  15.114  0.00  0.00    +0.000 A 
ATOM      6  C   UNL     1       4.672   5.172  16.125  0.00  0.00    +0.000 A 
ATOM      7  C   UNL     1       5.089   5.304  17.463  0.00  0.00    +0.000 A 
BRANCH   2   9
ATOM      8  N   UNL     1       7.429   5.417  20.141  0.00  0.00    +0.000 NA
ATOM      9  C   UNL     1       6.985   5.281  19.076  0.00  0.00    +0.000 C 
ENDBRANCH   2   9
ENDBRANCH   1   7
BRANCH   1  10
ATOM     10  N   UNL     1       3.527   4.620  19.387  0.00  0.00    +0.000 NA
ATOM     11  C   UNL     1       3.116   3.429  18.643  0.00  0.00    +0.000 C 
ATOM     12  C   UNL     1       2.559   2.291  19.503  0.00  0.00    +0.000 C 
ATOM     13  C   UNL     1       1.595   2.751  20.590  0.00  0.00    +0.000 C 
ATOM     14  C   UNL     1       2.110   3.978  21.328  0.00  0.00    +0.000 C 
ATOM     15  C   UNL     1       2.559   5.086  20.375  0.00  0.00    +0.000 C 
BRANCH  13  16
ATOM     16  O   UNL     1       0.301   3.005  20.047  0.00  0.00    +0.000 OA
ATOM     17  H   UNL     1       0.142   3.964  20.063  0.00  0.00    +0.000 HD
ENDBRANCH  13  16
ENDBRANCH   1  10
TORSDOF 4
ENDMDL
MODEL 5
REMARK VINA RESULT:      -6.4      1.463      2.163
REMARK  Name = 
REMARK  4 active torsions:
REMARK  status: ('A' for Active; 'I' for Inactive)
REMARK    1  A    between atoms: C_2  and  C_3
REMARK    2  A    between atoms: C_8  and  C_9
REMARK    3  A    between atoms: C_9  and  N_10
REMARK    4  A    between atoms: C_13  and  O_14
REMARK                            x       y       z     vdW  Elec       q    Type
REMARK                         _______ _______ _______ _____ _____    ______ ____
ROOT
ATOM      1  C   UNL     1       4.684   4.977  19.252  0.00  0.00    +0.000 C 
ENDROOT
BRANCH   1   7
ATOM      2  C   UNL     1       4.695   6.248  17.007  0.00  0.00    +0.000 A 
ATOM      3  C   UNL     1       5.157   6.388  15.684  0.00  0.00    +0.000 A 
ATOM      4  C   UNL     1       6.046   5.466  15.147  0.00  0.00    +0.000 A 
ATOM      5  C   UNL     1       6.481   4.392  15.920  0.00  0.00    +0.000 A 
ATOM      6  C   UNL     1       6.036   4.252  17.237  0.00  0.00    +0.000 A 
ATOM      7  C   UNL     1       5.149   5.182  17.813  0.00  0.00    +0.000 A 
BRANCH   2   9
ATOM      8  N   UNL     1       2.975   7.997  17.862  0.00  0.00    +0.000 NA
ATOM      9  C   UNL     1       3.741   7.208  17.485  0.00  0.00    +0.000 C 
ENDBRANCH   2   9
ENDBRANCH   1   7
BRANCH   1  10
ATOM     10  N   UNL     1       3.381   4.311  19.463  0.00  0.00    +0.000 NA
ATOM     11  C   UNL     1       2.490   5.042  20.363  0.00  0.00    +0.000 C 
ATOM     12  C   UNL     1       1.128   4.384  20.598  0.00  0.00    +0.000 C 
ATOM     13  C   UNL     1       1.198   2.879  20.825  0.00  0.00    +0.000 C 
ATOM     14  C   UNL     1       2.127   2.195  19.832  0.00  0.00    +0.000 C 
ATOM     15  C   UNL     1       3.490   2.881  19.739  0.00  0.00    +0.000 C 
BRANCH  13  16
ATOM     16  O   UNL     1       1.596   2.583  22.162  0.00  0.00    +0.000 OA
ATOM     17  H   UNL     1       0.924   2.938  22.769  0.00  0.00    +0.000 HD
ENDBRANCH  13  16
ENDBRANCH   1  10
TORSDOF 4
ENDMDL
MODEL 6
REMARK VINA RESULT:      -6.4      2.800      5.687
REMARK  Name = 
REMARK  4 active torsions:
REMARK  status: ('A' for Active; 'I' for Inactive)
REMARK    1  A    between atoms: C_2  and  C_3
REMARK    2  A    between atoms: C_8  and  C_9
REMARK    3  A    between atoms: C_9  and  N_10
REMARK    4  A    between atoms: C_13  and  O_14
REMARK                            x       y       z     vdW  Elec       q    Type
REMARK                         _______ _______ _______ _____ _____    ______ ____
ROOT
ATOM      1  C   UNL     1       4.573   4.960  19.294  0.00  0.00    +0.000 C 
ENDROOT
BRANCH   1   7
ATOM      2  C   UNL     1       3.202   3.042  20.340  0.00  0.00    +0.000 A 
ATOM      3  C   UNL     1       1.982   2.537  20.829  0.00  0.00    +0.000 A 
ATOM      4  C   UNL     1       0.834   3.319  20.803  0.00  0.00    +0.000 A 
ATOM      5  C   UNL     1       0.889   4.611  20.284  0.00  0.00    +0.000 A 
ATOM      6  C   UNL     1       2.099   5.124  19.807  0.00  0.00    +0.000 A 
ATOM      7  C   UNL     1       3.280   4.358  19.838  0.00  0.00    +0.000 A 
BRANCH   2   9
ATOM      8  N   UNL     1       5.265   1.463  20.375  0.00  0.00    +0.000 NA
ATOM      9  C   UNL     1       4.338   2.165  20.351  0.00  0.00    +0.000 C 
ENDBRANCH   2   9
ENDBRANCH   1   7
BRANCH   1  10
ATOM     10  N   UNL     1       4.704   5.090  17.828  0.00  0.00    +0.000 NA
ATOM     11  C   UNL     1       5.374   3.953  17.198  0.00  0.00    +0.000 C 
ATOM     12  C   UNL     1       5.520   4.051  15.677  0.00  0.00    +0.000 C 
ATOM     13  C   UNL     1       5.957   5.425  15.184  0.00  0.00    +0.000 C 
ATOM     14  C   UNL     1       5.195   6.548  15.872  0.00  0.00    +0.000 C 
ATOM     15  C   UNL     1       5.185   6.399  17.394  0.00  0.00    +0.000 C 
BRANCH  13  16
ATOM     16  O   UNL     1       7.362   5.602  15.352  0.00  0.00    +0.000 OA
ATOM     17  H   UNL     1       7.713   6.048  14.562  0.00  0.00    +0.000 HD
ENDBRANCH  13  16
ENDBRANCH   1  10
TORSDOF 4
ENDMDL
MODEL 7
REMARK VINA RESULT:      -6.4      2.789      5.655
REMARK  Name = 
REMARK  4 active torsions:
REMARK  status: ('A' for Active; 'I' for Inactive)
REMARK    1  A    between atoms: C_2  and  C_3
REMARK    2  A    between atoms: C_8  and  C_9
REMARK    3  A    between atoms: C_9  and  N_10
REMARK    4  A    between atoms: C_13  and  O_14
REMARK                            x       y       z     vdW  Elec       q    Type
REMARK                         _______ _______ _______ _____ _____    ______ ____
ROOT
ATOM      1  C   UNL     1       4.141   2.995  18.074  0.00  0.00    +0.000 C 
ENDROOT
BRANCH   1   7
ATOM      2  C   UNL     1       3.291   2.575  20.473  0.00  0.00    +0.000 A 
ATOM      3  C   UNL     1       2.289   2.702  21.455  0.00  0.00    +0.000 A 
ATOM      4  C   UNL     1       1.086   3.328  21.156  0.00  0.00    +0.000 A 
ATOM      5  C   UNL     1       0.864   3.829  19.875  0.00  0.00    +0.000 A 
ATOM      6  C   UNL     1       1.858   3.717  18.899  0.00  0.00    +0.000 A 
ATOM      7  C   UNL     1       3.094   3.103  19.179  0.00  0.00    +0.000 A 
BRANCH   2   9
ATOM      8  N   UNL     1       5.463   1.316  21.140  0.00  0.00    +0.000 NA
ATOM      9  C   UNL     1       4.492   1.875  20.833  0.00  0.00    +0.000 C 
ENDBRANCH   2   9
ENDBRANCH   1   7
BRANCH   1  10
ATOM     10  N   UNL     1       4.461   4.219  17.311  0.00  0.00    +0.000 NA
ATOM     11  C   UNL     1       5.182   3.960  16.065  0.00  0.00    +0.000 C 
ATOM     12  C   UNL     1       5.522   5.207  15.244  0.00  0.00    +0.000 C 
ATOM     13  C   UNL     1       6.046   6.372  16.076  0.00  0.00    +0.000 C 
ATOM     14  C   UNL     1       5.226   6.586  17.339  0.00  0.00    +0.000 C 
ATOM     15  C   UNL     1       5.019   5.293  18.128  0.00  0.00    +0.000 C 
BRANCH  13  16
ATOM     16  O   UNL     1       7.422   6.184  16.403  0.00  0.00    +0.000 OA
ATOM     17  H   UNL     1       7.745   6.987  16.848  0.00  0.00    +0.000 HD
ENDBRANCH  13  16
ENDBRANCH   1  10
TORSDOF 4
ENDMDL
MODEL 8
REMARK VINA RESULT:      -6.4      2.672      5.688
REMARK  Name = 
REMARK  4 active torsions:
REMARK  status: ('A' for Active; 'I' for Inactive)
REMARK    1  A    between atoms: C_2  and  C_3
REMARK    2  A    between atoms: C_8  and  C_9
REMARK    3  A    between atoms: C_9  and  N_10
REMARK    4  A    between atoms: C_13  and  O_14
REMARK                            x       y       z     vdW  Elec       q    Type
REMARK                         _______ _______ _______ _____ _____    ______ ____
ROOT
ATOM      1  C   UNL     1       3.083   4.490  17.355  0.00  0.00    +0.000 C 
ENDROOT
BRANCH   1   7
ATOM      2  C   UNL     1       2.033   4.864  19.681  0.00  0.00    +0.000 A 
ATOM      3  C   UNL     1       1.442   4.351  20.852  0.00  0.00    +0.000 A 
ATOM      4  C   UNL     1       1.270   2.983  21.014  0.00  0.00    +0.000 A 
ATOM      5  C   UNL     1       1.690   2.109  20.013  0.00  0.00    +0.000 A 
ATOM      6  C   UNL     1       2.267   2.610  18.843  0.00  0.00    +0.000 A 
ATOM      7  C   UNL     1       2.437   3.994  18.646  0.00  0.00    +0.000 A 
BRANCH   2   9
ATOM      8  N   UNL     1       2.376   7.435  19.548  0.00  0.00    +0.000 NA
ATOM      9  C   UNL     1       2.225   6.284  19.598  0.00  0.00    +0.000 C 
ENDBRANCH   2   9
ENDBRANCH   1   7
BRANCH   1  10
ATOM     10  N   UNL     1       4.530   4.246  17.176  0.00  0.00    +0.000 NA
ATOM     11  C   UNL     1       5.365   4.939  18.156  0.00  0.00    +0.000 C 
ATOM     12  C   UNL     1       6.870   4.702  18.005  0.00  0.00    +0.000 C 
ATOM     13  C   UNL     1       7.365   4.760  16.564  0.00  0.00    +0.000 C 
ATOM     14  C   UNL     1       6.452   3.995  15.617  0.00  0.00    +0.000 C 
ATOM     15  C   UNL     1       4.981   4.371  15.793  0.00  0.00    +0.000 C 
BRANCH  13  16
ATOM     16  O   UNL     1       7.511   6.110  16.131  0.00  0.00    +0.000 OA
ATOM     17  H   UNL     1       7.533   6.685  16.915  0.00  0.00    +0.000 HD
ENDBRANCH  13  16
ENDBRANCH   1  10
TORSDOF 4
ENDMDL
MODEL 9
REMARK VINA RESULT:      -6.4      2.819      5.856
REMARK  Name = 
REMARK  4 active torsions:
REMARK  status: ('A' for Active; 'I' for Inactive)
REMARK    1  A    between atoms: C_2  and  C_3
REMARK    2  A    between atoms: C_8  and  C_9
REMARK    3  A    between atoms: C_9  and  N_10
REMARK    4  A    between atoms: C_13  and  O_14
REMARK                            x       y       z     vdW  Elec       q    Type
REMARK                         _______ _______ _______ _____ _____    ______ ____
ROOT
ATOM      1  C   UNL     1       4.761   4.967  19.162  0.00  0.00    +0.000 C 
ENDROOT
BRANCH   1   7
ATOM      2  C   UNL     1       2.326   5.146  19.991  0.00  0.00    +0.000 A 
ATOM      3  C   UNL     1       1.177   4.552  20.547  0.00  0.00    +0.000 A 
ATOM      4  C   UNL     1       1.179   3.208  20.898  0.00  0.00    +0.000 A 
ATOM      5  C   UNL     1       2.327   2.443  20.704  0.00  0.00    +0.000 A 
ATOM      6  C   UNL     1       3.467   3.023  20.142  0.00  0.00    +0.000 A 
ATOM      7  C   UNL     1       3.487   4.378  19.760  0.00  0.00    +0.000 A 
BRANCH   2   9
ATOM      8  N   UNL     1       2.246   7.686  19.448  0.00  0.00    +0.000 NA
ATOM      9  C   UNL     1       2.273   6.550  19.695  0.00  0.00    +0.000 C 
ENDBRANCH   2   9
ENDBRANCH   1   7
BRANCH   1  10
ATOM     10  N   UNL     1       4.846   5.063  17.689  0.00  0.00    +0.000 NA
ATOM     11  C   UNL     1       5.522   3.925  17.067  0.00  0.00    +0.000 C 
ATOM     12  C   UNL     1       5.620   3.988  15.540  0.00  0.00    +0.000 C 
ATOM     13  C   UNL     1       6.011   5.359  15.001  0.00  0.00    +0.000 C 
ATOM     14  C   UNL     1       5.244   6.481  15.685  0.00  0.00    +0.000 C 
ATOM     15  C   UNL     1       5.283   6.371  17.209  0.00  0.00    +0.000 C 
BRANCH  13  16
ATOM     16  O   UNL     1       7.415   5.572  15.122  0.00  0.00    +0.000 OA
ATOM     17  H   UNL     1       7.687   5.331  16.024  0.00  0.00    +0.000 HD
ENDBRANCH  13  16
ENDBRANCH   1  10
TORSDOF 4
ENDMDL
