MODEL 1
REMARK VINA RESULT:      -7.9      0.000      0.000
REMARK  Name = 
REMARK  9 active torsions:
REMARK  status: ('A' for Active; 'I' for Inactive)
REMARK    1  A    between atoms: C_1  and  C_2
REMARK    2  A    between atoms: C_6  and  S_7
REMARK    3  A    between atoms: S_7  and  C_8
REMARK    4  A    between atoms: C_8  and  C_9
REMARK    5  A    between atoms: N_11  and  C_12
REMARK    6  A    between atoms: C_16  and  C_17
REMARK    7  A    between atoms: C_17  and  O_19
REMARK    8  A    between atoms: C_22  and  O_23
REMARK    9  A    between atoms: C_25  and  C_26
REMARK                            x       y       z     vdW  Elec       q    Type
REMARK                         _______ _______ _______ _____ _____    ______ ____
ROOT
ATOM      1  C   UNL     1       5.015   5.983  17.961  0.00  0.00    +0.000 C 
ENDROOT
BRANCH   1   2
ATOM      2  C   UNL     1       5.279   5.983  16.459  0.00  0.00    +0.000 C 
ATOM      3  O   UNL     1       5.019   6.983  15.794  0.00  0.00    +0.000 OA
ATOM      4  N   UNL     1       5.859   4.816  15.967  0.00  0.00    +0.000 N 
ATOM      5  H   UNL     1       5.824   4.013  16.586  0.00  0.00    +0.000 HD
BRANCH   4   6
ATOM      6  C   UNL     1       6.302   4.594  14.639  0.00  0.00    +0.000 A 
ATOM      7  C   UNL     1       7.390   5.272  14.082  0.00  0.00    +0.000 A 
ATOM      8  C   UNL     1       7.784   5.045  12.761  0.00  0.00    +0.000 A 
ATOM      9  C   UNL     1       7.094   4.130  11.976  0.00  0.00    +0.000 A 
ATOM     10  C   UNL     1       6.013   3.426  12.516  0.00  0.00    +0.000 A 
ATOM     11  C   UNL     1       5.620   3.653  13.850  0.00  0.00    +0.000 A 
BRANCH  10  12
ATOM     12  C   UNL     1       5.278   2.513  11.602  0.00  0.00    +0.000 C 
ATOM     13  O   UNL     1       4.326   2.878  10.935  0.00  0.00    +0.000 OA
BRANCH  12  14
ATOM     14  O   UNL     1       5.772   1.261  11.548  0.00  0.00    +0.000 OA
ATOM     15  H   UNL     1       5.896   0.902  10.653  0.00  0.00    +0.000 HD
ENDBRANCH  12  14
ENDBRANCH  10  12
ENDBRANCH   4   6
ENDBRANCH   1   2
BRANCH   1  16
ATOM     16  S   UNL     1       3.335   5.397  18.322  0.00  0.00    +0.000 S 
BRANCH  16  22
ATOM     17  C   UNL     1      -0.473  10.937  22.357  0.00  0.00    +0.000 C 
ATOM     18  C   UNL     1       0.269  10.061  21.397  0.00  0.00    +0.000 A 
ATOM     19  S   UNL     1       0.732   8.481  21.857  0.00  0.00    +0.000 S 
ATOM     20  C   UNL     1       1.454   8.172  20.348  0.00  0.00    +0.000 A 
ATOM     21  N   UNL     1       2.034   6.985  20.087  0.00  0.00    +0.000 NA
ATOM     22  C   UNL     1       2.557   6.912  18.858  0.00  0.00    +0.000 A 
ATOM     23  N   UNL     1       2.537   7.881  17.927  0.00  0.00    +0.000 NA
ATOM     24  C   UNL     1       1.946   9.035  18.245  0.00  0.00    +0.000 A 
ATOM     25  C   UNL     1       1.357   9.255  19.487  0.00  0.00    +0.000 A 
ATOM     26  C   UNL     1       0.656  10.364  20.100  0.00  0.00    +0.000 A 
ATOM     27  C   UNL     1       0.363  11.678  19.441  0.00  0.00    +0.000 C 
BRANCH  24  28
ATOM     28  O   UNL     1       1.969   9.964  17.246  0.00  0.00    +0.000 OA
ATOM     29  H   UNL     1       1.452   9.508  16.559  0.00  0.00    +0.000 HD
ENDBRANCH  24  28
ENDBRANCH  16  22
ENDBRANCH   1  16
TORSDOF 7
ENDMDL
MODEL 2
REMARK VINA RESULT:      -7.8      3.327      8.206
REMARK  Name = 
REMARK  9 active torsions:
REMARK  status: ('A' for Active; 'I' for Inactive)
REMARK    1  A    between atoms: C_1  and  C_2
REMARK    2  A    between atoms: C_6  and  S_7
REMARK    3  A    between atoms: S_7  and  C_8
REMARK    4  A    between atoms: C_8  and  C_9
REMARK    5  A    between atoms: N_11  and  C_12
REMARK    6  A    between atoms: C_16  and  C_17
REMARK    7  A    between atoms: C_17  and  O_19
REMARK    8  A    between atoms: C_22  and  O_23
REMARK    9  A    between atoms: C_25  and  C_26
REMARK                            x       y       z     vdW  Elec       q    Type
REMARK                         _______ _______ _______ _____ _____    ______ ____
ROOT
ATOM      1  C   UNL     1       2.204   3.384  21.804  0.00  0.00    +0.000 C 
ENDROOT
BRANCH   1   2
ATOM      2  C   UNL     1       1.679   4.452  20.851  0.00  0.00    +0.000 C 
ATOM      3  O   UNL     1       0.628   4.264  20.242  0.00  0.00    +0.000 OA
ATOM      4  N   UNL     1       2.448   5.613  20.793  0.00  0.00    +0.000 N 
ATOM      5  H   UNL     1       3.380   5.542  21.184  0.00  0.00    +0.000 HD
BRANCH   4   6
ATOM      6  C   UNL     1       2.132   6.793  20.074  0.00  0.00    +0.000 A 
ATOM      7  C   UNL     1       2.502   6.988  18.741  0.00  0.00    +0.000 A 
ATOM      8  C   UNL     1       2.193   8.175  18.071  0.00  0.00    +0.000 A 
ATOM      9  C   UNL     1       1.505   9.186  18.728  0.00  0.00    +0.000 A 
ATOM     10  C   UNL     1       1.108   9.008  20.057  0.00  0.00    +0.000 A 
ATOM     11  C   UNL     1       1.416   7.809  20.730  0.00  0.00    +0.000 A 
BRANCH  10  12
ATOM     12  C   UNL     1       0.435  10.156  20.720  0.00  0.00    +0.000 C 
ATOM     13  O   UNL     1      -0.698  10.504  20.441  0.00  0.00    +0.000 OA
BRANCH  12  14
ATOM     14  O   UNL     1       1.171  10.758  21.675  0.00  0.00    +0.000 OA
ATOM     15  H   UNL     1       0.954  10.502  22.588  0.00  0.00    +0.000 HD
ENDBRANCH  12  14
ENDBRANCH  10  12
ENDBRANCH   4   6
ENDBRANCH   1   2
BRANCH   1  16
ATOM     16  S   UNL     1       3.176   2.139  20.908  0.00  0.00    +0.000 S 
BRANCH  16  22
ATOM     17  C   UNL     1       7.723   7.189  16.997  0.00  0.00    +0.000 C 
ATOM     18  C   UNL     1       6.734   6.191  17.512  0.00  0.00    +0.000 A 
ATOM     19  S   UNL     1       6.803   5.676  19.140  0.00  0.00    +0.000 S 
ATOM     20  C   UNL     1       5.464   4.643  18.949  0.00  0.00    +0.000 A 
ATOM     21  N   UNL     1       5.000   3.911  19.980  0.00  0.00    +0.000 NA
ATOM     22  C   UNL     1       3.948   3.151  19.656  0.00  0.00    +0.000 A 
ATOM     23  N   UNL     1       3.359   3.082  18.450  0.00  0.00    +0.000 NA
ATOM     24  C   UNL     1       3.863   3.834  17.469  0.00  0.00    +0.000 A 
ATOM     25  C   UNL     1       4.956   4.674  17.658  0.00  0.00    +0.000 A 
ATOM     26  C   UNL     1       5.698   5.587  16.814  0.00  0.00    +0.000 A 
ATOM     27  C   UNL     1       5.404   5.871  15.372  0.00  0.00    +0.000 C 
BRANCH  24  28
ATOM     28  O   UNL     1       3.208   3.705  16.278  0.00  0.00    +0.000 OA
ATOM     29  H   UNL     1       2.871   4.610  16.156  0.00  0.00    +0.000 HD
ENDBRANCH  24  28
ENDBRANCH  16  22
ENDBRANCH   1  16
TORSDOF 7
ENDMDL
MODEL 3
REMARK VINA RESULT:      -7.7      1.433      1.715
REMARK  Name = 
REMARK  9 active torsions:
REMARK  status: ('A' for Active; 'I' for Inactive)
REMARK    1  A    between atoms: C_1  and  C_2
REMARK    2  A    between atoms: C_6  and  S_7
REMARK    3  A    between atoms: S_7  and  C_8
REMARK    4  A    between atoms: C_8  and  C_9
REMARK    5  A    between atoms: N_11  and  C_12
REMARK    6  A    between atoms: C_16  and  C_17
REMARK    7  A    between atoms: C_17  and  O_19
REMARK    8  A    between atoms: C_22  and  O_23
REMARK    9  A    between atoms: C_25  and  C_26
REMARK                            x       y       z     vdW  Elec       q    Type
REMARK                         _______ _______ _______ _____ _____    ______ ____
ROOT
ATOM      1  C   UNL     1       6.208   4.654  18.543  0.00  0.00    +0.000 C 
ENDROOT
BRANCH   1   2
ATOM      2  C   UNL     1       6.906   4.527  17.194  0.00  0.00    +0.000 C 
ATOM      3  O   UNL     1       8.092   4.205  17.149  0.00  0.00    +0.000 OA
ATOM      4  N   UNL     1       6.089   4.750  16.089  0.00  0.00    +0.000 N 
ATOM      5  H   UNL     1       5.202   5.203  16.282  0.00  0.00    +0.000 HD
BRANCH   4   6
ATOM      6  C   UNL     1       6.456   4.594  14.728  0.00  0.00    +0.000 A 
ATOM      7  C   UNL     1       7.484   5.330  14.133  0.00  0.00    +0.000 A 
ATOM      8  C   UNL     1       7.804   5.166  12.783  0.00  0.00    +0.000 A 
ATOM      9  C   UNL     1       7.097   4.257  12.006  0.00  0.00    +0.000 A 
ATOM     10  C   UNL     1       6.076   3.495  12.583  0.00  0.00    +0.000 A 
ATOM     11  C   UNL     1       5.758   3.659  13.946  0.00  0.00    +0.000 A 
BRANCH  10  12
ATOM     12  C   UNL     1       5.316   2.592  11.679  0.00  0.00    +0.000 C 
ATOM     13  O   UNL     1       5.741   1.507  11.326  0.00  0.00    +0.000 OA
BRANCH  12  14
ATOM     14  O   UNL     1       4.107   3.059  11.311  0.00  0.00    +0.000 OA
ATOM     15  H   UNL     1       3.541   3.365  12.041  0.00  0.00    +0.000 HD
ENDBRANCH  12  14
ENDBRANCH  10  12
ENDBRANCH   4   6
ENDBRANCH   1   2
BRANCH   1  16
ATOM     16  S   UNL     1       4.492   4.070  18.441  0.00  0.00    +0.000 S 
BRANCH  16  22
ATOM     17  C   UNL     1      -0.034   9.829  21.240  0.00  0.00    +0.000 C 
ATOM     18  C   UNL     1       0.868   8.891  20.501  0.00  0.00    +0.000 A 
ATOM     19  S   UNL     1       1.299   7.389  21.194  0.00  0.00    +0.000 S 
ATOM     20  C   UNL     1       2.251   6.957  19.851  0.00  0.00    +0.000 A 
ATOM     21  N   UNL     1       2.895   5.775  19.809  0.00  0.00    +0.000 NA
ATOM     22  C   UNL     1       3.601   5.598  18.687  0.00  0.00    +0.000 A 
ATOM     23  N   UNL     1       3.696   6.463  17.664  0.00  0.00    +0.000 NA
ATOM     24  C   UNL     1       3.032   7.617  17.763  0.00  0.00    +0.000 A 
ATOM     25  C   UNL     1       2.256   7.939  18.873  0.00  0.00    +0.000 A 
ATOM     26  C   UNL     1       1.440   9.075  19.250  0.00  0.00    +0.000 A 
ATOM     27  C   UNL     1       1.215  10.299  18.416  0.00  0.00    +0.000 C 
BRANCH  24  28
ATOM     28  O   UNL     1       3.182   8.438  16.683  0.00  0.00    +0.000 OA
ATOM     29  H   UNL     1       4.140   8.605  16.711  0.00  0.00    +0.000 HD
ENDBRANCH  24  28
ENDBRANCH  16  22
ENDBRANCH   1  16
TORSDOF 7
ENDMDL
MODEL 4
REMARK VINA RESULT:      -7.6      7.079      8.105
REMARK  Name = 
REMARK  9 active torsions:
REMARK  status: ('A' for Active; 'I' for Inactive)
REMARK    1  A    between atoms: C_1  and  C_2
REMARK    2  A    between atoms: C_6  and  S_7
REMARK    3  A    between atoms: S_7  and  C_8
REMARK    4  A    between atoms: C_8  and  C_9
REMARK    5  A    between atoms: N_11  and  C_12
REMARK    6  A    between atoms: C_16  and  C_17
REMARK    7  A    between atoms: C_17  and  O_19
REMARK    8  A    between atoms: C_22  and  O_23
REMARK    9  A    between atoms: C_25  and  C_26
REMARK                            x       y       z     vdW  Elec       q    Type
REMARK                         _______ _______ _______ _____ _____    ______ ____
ROOT
ATOM      1  C   UNL     1       8.049   9.417  17.766  0.00  0.00    +0.000 C 
ENDROOT
BRANCH   1   2
ATOM      2  C   UNL     1       7.700   7.933  17.737  0.00  0.00    +0.000 C 
ATOM      3  O   UNL     1       8.222   7.168  18.546  0.00  0.00    +0.000 OA
ATOM      4  N   UNL     1       6.747   7.574  16.787  0.00  0.00    +0.000 N 
ATOM      5  H   UNL     1       6.565   8.263  16.065  0.00  0.00    +0.000 HD
BRANCH   4   6
ATOM      6  C   UNL     1       6.170   6.290  16.620  0.00  0.00    +0.000 A 
ATOM      7  C   UNL     1       6.777   5.281  15.868  0.00  0.00    +0.000 A 
ATOM      8  C   UNL     1       6.169   4.034  15.705  0.00  0.00    +0.000 A 
ATOM      9  C   UNL     1       4.939   3.777  16.300  0.00  0.00    +0.000 A 
ATOM     10  C   UNL     1       4.320   4.764  17.072  0.00  0.00    +0.000 A 
ATOM     11  C   UNL     1       4.938   6.020  17.238  0.00  0.00    +0.000 A 
BRANCH  10  12
ATOM     12  C   UNL     1       2.976   4.446  17.622  0.00  0.00    +0.000 C 
ATOM     13  O   UNL     1       2.208   5.305  18.018  0.00  0.00    +0.000 OA
BRANCH  12  14
ATOM     14  O   UNL     1       2.667   3.135  17.616  0.00  0.00    +0.000 OA
ATOM     15  H   UNL     1       2.810   2.671  18.459  0.00  0.00    +0.000 HD
ENDBRANCH  12  14
ENDBRANCH  10  12
ENDBRANCH   4   6
ENDBRANCH   1   2
BRANCH   1  16
ATOM     16  S   UNL     1       9.118   9.804  19.182  0.00  0.00    +0.000 S 
BRANCH  16  22
ATOM     17  C   UNL     1       9.660  17.577  18.314  0.00  0.00    +0.000 C 
ATOM     18  C   UNL     1       9.782  16.085  18.343  0.00  0.00    +0.000 A 
ATOM     19  S   UNL     1       8.628  15.146  19.185  0.00  0.00    +0.000 S 
ATOM     20  C   UNL     1       9.401  13.688  18.770  0.00  0.00    +0.000 A 
ATOM     21  N   UNL     1       8.909  12.502  19.176  0.00  0.00    +0.000 NA
ATOM     22  C   UNL     1       9.640  11.460  18.768  0.00  0.00    +0.000 A 
ATOM     23  N   UNL     1      10.757  11.516  18.023  0.00  0.00    +0.000 NA
ATOM     24  C   UNL     1      11.195  12.720  17.649  0.00  0.00    +0.000 A 
ATOM     25  C   UNL     1      10.536  13.896  17.999  0.00  0.00    +0.000 A 
ATOM     26  C   UNL     1      10.758  15.303  17.743  0.00  0.00    +0.000 A 
ATOM     27  C   UNL     1      11.882  15.872  16.931  0.00  0.00    +0.000 C 
BRANCH  24  28
ATOM     28  O   UNL     1      12.332  12.689  16.896  0.00  0.00    +0.000 OA
ATOM     29  H   UNL     1      12.709  11.834  17.170  0.00  0.00    +0.000 HD
ENDBRANCH  24  28
ENDBRANCH  16  22
ENDBRANCH   1  16
TORSDOF 7
ENDMDL
MODEL 5
REMARK VINA RESULT:      -7.4      3.317      7.731
REMARK  Name = 
REMARK  9 active torsions:
REMARK  status: ('A' for Active; 'I' for Inactive)
REMARK    1  A    between atoms: C_1  and  C_2
REMARK    2  A    between atoms: C_6  and  S_7
REMARK    3  A    between atoms: S_7  and  C_8
REMARK    4  A    between atoms: C_8  and  C_9
REMARK    5  A    between atoms: N_11  and  C_12
REMARK    6  A    between atoms: C_16  and  C_17
REMARK    7  A    between atoms: C_17  and  O_19
REMARK    8  A    between atoms: C_22  and  O_23
REMARK    9  A    between atoms: C_25  and  C_26
REMARK                            x       y       z     vdW  Elec       q    Type
REMARK                         _______ _______ _______ _____ _____    ______ ____
ROOT
ATOM      1  C   UNL     1       2.224   2.938  21.653  0.00  0.00    +0.000 C 
ENDROOT
BRANCH   1   2
ATOM      2  C   UNL     1       1.629   4.147  20.940  0.00  0.00    +0.000 C 
ATOM      3  O   UNL     1       0.617   4.014  20.254  0.00  0.00    +0.000 OA
ATOM      4  N   UNL     1       2.286   5.351  21.182  0.00  0.00    +0.000 N 
ATOM      5  H   UNL     1       3.210   5.273  21.592  0.00  0.00    +0.000 HD
BRANCH   4   6
ATOM      6  C   UNL     1       1.881   6.633  20.733  0.00  0.00    +0.000 A 
ATOM      7  C   UNL     1       1.025   7.457  21.469  0.00  0.00    +0.000 A 
ATOM      8  C   UNL     1       0.628   8.706  20.984  0.00  0.00    +0.000 A 
ATOM      9  C   UNL     1       1.086   9.151  19.751  0.00  0.00    +0.000 A 
ATOM     10  C   UNL     1       1.957   8.353  19.003  0.00  0.00    +0.000 A 
ATOM     11  C   UNL     1       2.360   7.096  19.496  0.00  0.00    +0.000 A 
BRANCH  10  12
ATOM     12  C   UNL     1       2.354   8.860  17.663  0.00  0.00    +0.000 C 
ATOM     13  O   UNL     1       3.051   8.218  16.898  0.00  0.00    +0.000 OA
BRANCH  12  14
ATOM     14  O   UNL     1       1.852  10.072  17.355  0.00  0.00    +0.000 OA
ATOM     15  H   UNL     1       1.469  10.147  16.464  0.00  0.00    +0.000 HD
ENDBRANCH  12  14
ENDBRANCH  10  12
ENDBRANCH   4   6
ENDBRANCH   1   2
BRANCH   1  16
ATOM     16  S   UNL     1       2.988   1.798  20.464  0.00  0.00    +0.000 S 
BRANCH  16  22
ATOM     17  C   UNL     1       7.614   7.300  17.334  0.00  0.00    +0.000 C 
ATOM     18  C   UNL     1       6.621   6.239  17.692  0.00  0.00    +0.000 A 
ATOM     19  S   UNL     1       6.623   5.554  19.258  0.00  0.00    +0.000 S 
ATOM     20  C   UNL     1       5.315   4.529  18.894  0.00  0.00    +0.000 A 
ATOM     21  N   UNL     1       4.818   3.684  19.818  0.00  0.00    +0.000 NA
ATOM     22  C   UNL     1       3.797   2.948  19.365  0.00  0.00    +0.000 A 
ATOM     23  N   UNL     1       3.268   2.999  18.131  0.00  0.00    +0.000 NA
ATOM     24  C   UNL     1       3.802   3.858  17.260  0.00  0.00    +0.000 A 
ATOM     25  C   UNL     1       4.869   4.689  17.591  0.00  0.00    +0.000 A 
ATOM     26  C   UNL     1       5.632   5.697  16.884  0.00  0.00    +0.000 A 
ATOM     27  C   UNL     1       5.400   6.129  15.468  0.00  0.00    +0.000 C 
BRANCH  24  28
ATOM     28  O   UNL     1       3.207   3.847  16.032  0.00  0.00    +0.000 OA
ATOM     29  H   UNL     1       3.752   3.185  15.571  0.00  0.00    +0.000 HD
ENDBRANCH  24  28
ENDBRANCH  16  22
ENDBRANCH   1  16
TORSDOF 7
ENDMDL
MODEL 6
REMARK VINA RESULT:      -7.4      5.130      7.847
REMARK  Name = 
REMARK  9 active torsions:
REMARK  status: ('A' for Active; 'I' for Inactive)
REMARK    1  A    between atoms: C_1  and  C_2
REMARK    2  A    between atoms: C_6  and  S_7
REMARK    3  A    between atoms: S_7  and  C_8
REMARK    4  A    between atoms: C_8  and  C_9
REMARK    5  A    between atoms: N_11  and  C_12
REMARK    6  A    between atoms: C_16  and  C_17
REMARK    7  A    between atoms: C_17  and  O_19
REMARK    8  A    between atoms: C_22  and  O_23
REMARK    9  A    between atoms: C_25  and  C_26
REMARK                            x       y       z     vdW  Elec       q    Type
REMARK                         _______ _______ _______ _____ _____    ______ ____
ROOT
ATOM      1  C   UNL     1       7.181   6.786  16.727  0.00  0.00    +0.000 C 
ENDROOT
BRANCH   1   2
ATOM      2  C   UNL     1       7.841   7.689  17.764  0.00  0.00    +0.000 C 
ATOM      3  O   UNL     1       8.330   7.196  18.778  0.00  0.00    +0.000 OA
ATOM      4  N   UNL     1       7.871   9.040  17.429  0.00  0.00    +0.000 N 
ATOM      5  H   UNL     1       7.255   9.320  16.673  0.00  0.00    +0.000 HD
BRANCH   4   6
ATOM      6  C   UNL     1       8.513  10.072  18.159  0.00  0.00    +0.000 A 
ATOM      7  C   UNL     1       9.224   9.833  19.338  0.00  0.00    +0.000 A 
ATOM      8  C   UNL     1       9.825  10.878  20.045  0.00  0.00    +0.000 A 
ATOM      9  C   UNL     1       9.725  12.182  19.578  0.00  0.00    +0.000 A 
ATOM     10  C   UNL     1       9.035  12.444  18.390  0.00  0.00    +0.000 A 
ATOM     11  C   UNL     1       8.433  11.389  17.677  0.00  0.00    +0.000 A 
BRANCH  10  12
ATOM     12  C   UNL     1       8.909  13.869  17.984  0.00  0.00    +0.000 C 
ATOM     13  O   UNL     1       9.763  14.701  18.233  0.00  0.00    +0.000 OA
BRANCH  12  14
ATOM     14  O   UNL     1       7.789  14.154  17.291  0.00  0.00    +0.000 OA
ATOM     15  H   UNL     1       7.392  13.402  16.818  0.00  0.00    +0.000 HD
ENDBRANCH  12  14
ENDBRANCH  10  12
ENDBRANCH   4   6
ENDBRANCH   1   2
BRANCH   1  16
ATOM     16  S   UNL     1       7.283   5.044  17.227  0.00  0.00    +0.000 S 
BRANCH  16  22
ATOM     17  C   UNL     1       1.458   2.443  21.786  0.00  0.00    +0.000 C 
ATOM     18  C   UNL     1       2.426   3.159  20.896  0.00  0.00    +0.000 A 
ATOM     19  S   UNL     1       3.907   2.421  20.469  0.00  0.00    +0.000 S 
ATOM     20  C   UNL     1       4.385   3.754  19.524  0.00  0.00    +0.000 A 
ATOM     21  N   UNL     1       5.564   3.754  18.873  0.00  0.00    +0.000 NA
ATOM     22  C   UNL     1       5.785   4.879  18.184  0.00  0.00    +0.000 A 
ATOM     23  N   UNL     1       4.958   5.935  18.100  0.00  0.00    +0.000 NA
ATOM     24  C   UNL     1       3.803   5.874  18.766  0.00  0.00    +0.000 A 
ATOM     25  C   UNL     1       3.437   4.766  19.526  0.00  0.00    +0.000 A 
ATOM     26  C   UNL     1       2.283   4.416  20.327  0.00  0.00    +0.000 A 
ATOM     27  C   UNL     1       1.071   5.275  20.527  0.00  0.00    +0.000 C 
BRANCH  24  28
ATOM     28  O   UNL     1       3.022   6.985  18.629  0.00  0.00    +0.000 OA
ATOM     29  H   UNL     1       2.142   6.614  18.819  0.00  0.00    +0.000 HD
ENDBRANCH  24  28
ENDBRANCH  16  22
ENDBRANCH   1  16
TORSDOF 7
ENDMDL
MODEL 7
REMARK VINA RESULT:      -7.4      5.587      8.423
REMARK  Name = 
REMARK  9 active torsions:
REMARK  status: ('A' for Active; 'I' for Inactive)
REMARK    1  A    between atoms: C_1  and  C_2
REMARK    2  A    between atoms: C_6  and  S_7
REMARK    3  A    between atoms: S_7  and  C_8
REMARK    4  A    between atoms: C_8  and  C_9
REMARK    5  A    between atoms: N_11  and  C_12
REMARK    6  A    between atoms: C_16  and  C_17
REMARK    7  A    between atoms: C_17  and  O_19
REMARK    8  A    between atoms: C_22  and  O_23
REMARK    9  A    between atoms: C_25  and  C_26
REMARK                            x       y       z     vdW  Elec       q    Type
REMARK                         _______ _______ _______ _____ _____    ______ ____
ROOT
ATOM      1  C   UNL     1       8.036   6.780  18.371  0.00  0.00    +0.000 C 
ENDROOT
BRANCH   1   2
ATOM      2  C   UNL     1       8.164   8.289  18.193  0.00  0.00    +0.000 C 
ATOM      3  O   UNL     1       7.458   8.868  17.369  0.00  0.00    +0.000 OA
ATOM      4  N   UNL     1       9.073   8.905  19.049  0.00  0.00    +0.000 N 
ATOM      5  H   UNL     1       9.722   8.285  19.521  0.00  0.00    +0.000 HD
BRANCH   4   6
ATOM      6  C   UNL     1       9.306  10.299  19.165  0.00  0.00    +0.000 A 
ATOM      7  C   UNL     1       9.633  11.104  18.071  0.00  0.00    +0.000 A 
ATOM      8  C   UNL     1       9.879  12.471  18.225  0.00  0.00    +0.000 A 
ATOM      9  C   UNL     1       9.796  13.054  19.483  0.00  0.00    +0.000 A 
ATOM     10  C   UNL     1       9.452  12.273  20.591  0.00  0.00    +0.000 A 
ATOM     11  C   UNL     1       9.201  10.896  20.432  0.00  0.00    +0.000 A 
BRANCH  10  12
ATOM     12  C   UNL     1       9.449  12.947  21.916  0.00  0.00    +0.000 C 
ATOM     13  O   UNL     1       9.640  14.143  22.046  0.00  0.00    +0.000 OA
BRANCH  12  14
ATOM     14  O   UNL     1       9.183  12.132  22.956  0.00  0.00    +0.000 OA
ATOM     15  H   UNL     1       9.848  12.136  23.666  0.00  0.00    +0.000 HD
ENDBRANCH  12  14
ENDBRANCH  10  12
ENDBRANCH   4   6
ENDBRANCH   1   2
BRANCH   1  16
ATOM     16  S   UNL     1       6.982   6.062  17.079  0.00  0.00    +0.000 S 
BRANCH  16  22
ATOM     17  C   UNL     1       1.741   2.273  21.511  0.00  0.00    +0.000 C 
ATOM     18  C   UNL     1       2.563   3.189  20.659  0.00  0.00    +0.000 A 
ATOM     19  S   UNL     1       4.139   2.734  20.180  0.00  0.00    +0.000 S 
ATOM     20  C   UNL     1       4.375   4.179  19.313  0.00  0.00    +0.000 A 
ATOM     21  N   UNL     1       5.526   4.413  18.655  0.00  0.00    +0.000 NA
ATOM     22  C   UNL     1       5.548   5.597  18.033  0.00  0.00    +0.000 A 
ATOM     23  N   UNL     1       4.556   6.504  18.017  0.00  0.00    +0.000 NA
ATOM     24  C   UNL     1       3.438   6.213  18.686  0.00  0.00    +0.000 A 
ATOM     25  C   UNL     1       3.273   5.018  19.381  0.00  0.00    +0.000 A 
ATOM     26  C   UNL     1       2.205   4.436  20.167  0.00  0.00    +0.000 A 
ATOM     27  C   UNL     1       0.871   5.069  20.425  0.00  0.00    +0.000 C 
BRANCH  24  28
ATOM     28  O   UNL     1       2.483   7.185  18.620  0.00  0.00    +0.000 OA
ATOM     29  H   UNL     1       1.955   6.977  19.411  0.00  0.00    +0.000 HD
ENDBRANCH  24  28
ENDBRANCH  16  22
ENDBRANCH   1  16
TORSDOF 7
ENDMDL
MODEL 8
REMARK VINA RESULT:      -7.3      3.254      4.878
REMARK  Name = 
REMARK  9 active torsions:
REMARK  status: ('A' for Active; 'I' for Inactive)
REMARK    1  A    between atoms: C_1  and  C_2
REMARK    2  A    between atoms: C_6  and  S_7
REMARK    3  A    between atoms: S_7  and  C_8
REMARK    4  A    between atoms: C_8  and  C_9
REMARK    5  A    between atoms: N_11  and  C_12
REMARK    6  A    between atoms: C_16  and  C_17
REMARK    7  A    between atoms: C_17  and  O_19
REMARK    8  A    between atoms: C_22  and  O_23
REMARK    9  A    between atoms: C_25  and  C_26
REMARK                            x       y       z     vdW  Elec       q    Type
REMARK                         _______ _______ _______ _____ _____    ______ ____
ROOT
ATOM      1  C   UNL     1       1.657   8.234  20.262  0.00  0.00    +0.000 C 
ENDROOT
BRANCH   1   2
ATOM      2  C   UNL     1       2.279   6.919  19.808  0.00  0.00    +0.000 C 
ATOM      3  O   UNL     1       2.075   5.892  20.454  0.00  0.00    +0.000 OA
ATOM      4  N   UNL     1       3.015   6.995  18.628  0.00  0.00    +0.000 N 
ATOM      5  H   UNL     1       3.266   7.931  18.326  0.00  0.00    +0.000 HD
BRANCH   4   6
ATOM      6  C   UNL     1       3.605   5.908  17.934  0.00  0.00    +0.000 A 
ATOM      7  C   UNL     1       2.917   4.724  17.661  0.00  0.00    +0.000 A 
ATOM      8  C   UNL     1       3.538   3.663  16.995  0.00  0.00    +0.000 A 
ATOM      9  C   UNL     1       4.862   3.776  16.590  0.00  0.00    +0.000 A 
ATOM     10  C   UNL     1       5.566   4.959  16.836  0.00  0.00    +0.000 A 
ATOM     11  C   UNL     1       4.937   6.028  17.504  0.00  0.00    +0.000 A 
BRANCH  10  12
ATOM     12  C   UNL     1       6.998   4.987  16.437  0.00  0.00    +0.000 C 
ATOM     13  O   UNL     1       7.395   5.593  15.458  0.00  0.00    +0.000 OA
BRANCH  12  14
ATOM     14  O   UNL     1       7.821   4.314  17.265  0.00  0.00    +0.000 OA
ATOM     15  H   UNL     1       8.611   4.803  17.551  0.00  0.00    +0.000 HD
ENDBRANCH  12  14
ENDBRANCH  10  12
ENDBRANCH   4   6
ENDBRANCH   1   2
BRANCH   1  16
ATOM     16  S   UNL     1       1.339   9.323  18.844  0.00  0.00    +0.000 S 
BRANCH  16  22
ATOM     17  C   UNL     1      -3.477  13.304  23.580  0.00  0.00    +0.000 C 
ATOM     18  C   UNL     1      -2.693  12.658  22.481  0.00  0.00    +0.000 A 
ATOM     19  S   UNL     1      -1.373  11.638  22.853  0.00  0.00    +0.000 S 
ATOM     20  C   UNL     1      -1.051  11.331  21.210  0.00  0.00    +0.000 A 
ATOM     21  N   UNL     1      -0.041  10.518  20.842  0.00  0.00    +0.000 NA
ATOM     22  C   UNL     1       0.076  10.391  19.516  0.00  0.00    +0.000 A 
ATOM     23  N   UNL     1      -0.702  10.977  18.590  0.00  0.00    +0.000 NA
ATOM     24  C   UNL     1      -1.687  11.768  19.017  0.00  0.00    +0.000 A 
ATOM     25  C   UNL     1      -1.930  11.995  20.369  0.00  0.00    +0.000 A 
ATOM     26  C   UNL     1      -2.899  12.772  21.114  0.00  0.00    +0.000 A 
ATOM     27  C   UNL     1      -4.000  13.594  20.515  0.00  0.00    +0.000 C 
BRANCH  24  28
ATOM     28  O   UNL     1      -2.429  12.323  18.015  0.00  0.00    +0.000 OA
ATOM     29  H   UNL     1      -2.061  11.863  17.239  0.00  0.00    +0.000 HD
ENDBRANCH  24  28
ENDBRANCH  16  22
ENDBRANCH   1  16
TORSDOF 7
ENDMDL
MODEL 9
REMARK VINA RESULT:      -7.3      2.953      4.130
REMARK  Name = 
REMARK  9 active torsions:
REMARK  status: ('A' for Active; 'I' for Inactive)
REMARK    1  A    between atoms: C_1  and  C_2
REMARK    2  A    between atoms: C_6  and  S_7
REMARK    3  A    between atoms: S_7  and  C_8
REMARK    4  A    between atoms: C_8  and  C_9
REMARK    5  A    between atoms: N_11  and  C_12
REMARK    6  A    between atoms: C_16  and  C_17
REMARK    7  A    between atoms: C_17  and  O_19
REMARK    8  A    between atoms: C_22  and  O_23
REMARK    9  A    between atoms: C_25  and  C_26
REMARK                            x       y       z     vdW  Elec       q    Type
REMARK                         _______ _______ _______ _____ _____    ______ ____
ROOT
ATOM      1  C   UNL     1       1.336   3.813  19.438  0.00  0.00    +0.000 C 
ENDROOT
BRANCH   1   2
ATOM      2  C   UNL     1       2.314   4.020  18.287  0.00  0.00    +0.000 C 
ATOM      3  O   UNL     1       1.898   4.053  17.131  0.00  0.00    +0.000 OA
ATOM      4  N   UNL     1       3.640   4.207  18.672  0.00  0.00    +0.000 N 
ATOM      5  H   UNL     1       3.860   3.950  19.628  0.00  0.00    +0.000 HD
BRANCH   4   6
ATOM      6  C   UNL     1       4.725   4.523  17.817  0.00  0.00    +0.000 A 
ATOM      7  C   UNL     1       5.006   3.801  16.654  0.00  0.00    +0.000 A 
ATOM      8  C   UNL     1       6.099   4.126  15.846  0.00  0.00    +0.000 A 
ATOM      9  C   UNL     1       6.929   5.185  16.192  0.00  0.00    +0.000 A 
ATOM     10  C   UNL     1       6.659   5.934  17.342  0.00  0.00    +0.000 A 
ATOM     11  C   UNL     1       5.553   5.607  18.152  0.00  0.00    +0.000 A 
BRANCH  10  12
ATOM     12  C   UNL     1       7.625   7.008  17.689  0.00  0.00    +0.000 C 
ATOM     13  O   UNL     1       7.811   7.980  16.978  0.00  0.00    +0.000 OA
BRANCH  12  14
ATOM     14  O   UNL     1       8.252   6.834  18.869  0.00  0.00    +0.000 OA
ATOM     15  H   UNL     1       7.712   7.020  19.656  0.00  0.00    +0.000 HD
ENDBRANCH  12  14
ENDBRANCH  10  12
ENDBRANCH   4   6
ENDBRANCH   1   2
BRANCH   1  16
ATOM     16  S   UNL     1       1.964   4.568  20.965  0.00  0.00    +0.000 S 
BRANCH  16  22
ATOM     17  C   UNL     1      -0.413  12.038  21.109  0.00  0.00    +0.000 C 
ATOM     18  C   UNL     1       0.171  10.682  20.864  0.00  0.00    +0.000 A 
ATOM     19  S   UNL     1      -0.127   9.407  21.962  0.00  0.00    +0.000 S 
ATOM     20  C   UNL     1       0.796   8.306  21.051  0.00  0.00    +0.000 A 
ATOM     21  N   UNL     1       0.937   7.025  21.446  0.00  0.00    +0.000 NA
ATOM     22  C   UNL     1       1.697   6.299  20.620  0.00  0.00    +0.000 A 
ATOM     23  N   UNL     1       2.285   6.734  19.493  0.00  0.00    +0.000 NA
ATOM     24  C   UNL     1       2.107   8.012  19.153  0.00  0.00    +0.000 A 
ATOM     25  C   UNL     1       1.340   8.888  19.916  0.00  0.00    +0.000 A 
ATOM     26  C   UNL     1       0.969  10.283  19.801  0.00  0.00    +0.000 A 
ATOM     27  C   UNL     1       1.372  11.201  18.687  0.00  0.00    +0.000 C 
BRANCH  24  28
ATOM     28  O   UNL     1       2.737   8.373  17.997  0.00  0.00    +0.000 OA
ATOM     29  H   UNL     1       3.640   8.531  18.323  0.00  0.00    +0.000 HD
ENDBRANCH  24  28
ENDBRANCH  16  22
ENDBRANCH   1  16
TORSDOF 7
ENDMDL
