MODEL 1
REMARK VINA RESULT:      -6.7      0.000      0.000
REMARK  Name = 
REMARK  8 active torsions:
REMARK  status: ('A' for Active; 'I' for Inactive)
REMARK    1  A    between atoms: C_1  and  C_2
REMARK    2  A    between atoms: C_4  and  C_5
REMARK    3  A    between atoms: N_11  and  C_12
REMARK    4  A    between atoms: C_12  and  C_13
REMARK    5  A    between atoms: C_13  and  C_14
REMARK    6  A    between atoms: C_13  and  C_15
REMARK    7  A    between atoms: C_13  and  C_16
REMARK    8  A    between atoms: C_16  and  O_17
REMARK                            x       y       z     vdW  Elec       q    Type
REMARK                         _______ _______ _______ _____ _____    ______ ____
ROOT
ATOM      1  C   UNL     1       8.120   6.236  19.289  0.00  0.00    +0.000 C 
ATOM      2  C   UNL     1       7.143   5.425  18.493  0.00  0.00    +0.000 A 
ATOM      3  C   UNL     1       7.131   5.487  17.113  0.00  0.00    +0.000 A 
ATOM      4  C   UNL     1       6.132   4.795  16.465  0.00  0.00    +0.000 A 
ATOM      5  N   UNL     1       5.225   4.088  17.166  0.00  0.00    +0.000 NA
ATOM      6  C   UNL     1       5.305   4.065  18.502  0.00  0.00    +0.000 A 
ATOM      7  N   UNL     1       4.332   3.443  19.246  0.00  0.00    +0.000 N 
ATOM      8  N   UNL     1       6.260   4.693  19.192  0.00  0.00    +0.000 NA
ATOM      9  H   UNL     1       4.748   3.018  20.064  0.00  0.00    +0.000 HD
ENDROOT
BRANCH   4  10
ATOM     10  C   UNL     1       5.904   4.812  14.910  0.00  0.00    +0.000 C 
ATOM     11  C   UNL     1       7.154   4.884  13.991  0.00  0.00    +0.000 C 
ATOM     12  C   UNL     1       6.376   4.032  12.971  0.00  0.00    +0.000 C 
ATOM     13  C   UNL     1       5.545   3.500  14.155  0.00  0.00    +0.000 C 
ENDBRANCH   4  10
BRANCH   7  14
ATOM     14  C   UNL     1       3.242   2.763  18.572  0.00  0.00    +0.000 C 
BRANCH  14  15
ATOM     15  C   UNL     1       1.872   3.445  18.857  0.00  0.00    +0.000 C 
ATOM     16  C   UNL     1       0.731   2.405  18.818  0.00  0.00    +0.000 C 
ATOM     17  C   UNL     1       1.860   4.135  20.242  0.00  0.00    +0.000 C 
BRANCH  15  18
ATOM     18  C   UNL     1       1.611   4.504  17.762  0.00  0.00    +0.000 C 
BRANCH  18  19
ATOM     19  O   UNL     1       2.465   5.637  17.887  0.00  0.00    +0.000 OA
ATOM     20  H   UNL     1       2.556   6.042  17.007  0.00  0.00    +0.000 HD
ENDBRANCH  18  19
ENDBRANCH  15  18
ENDBRANCH  14  15
ENDBRANCH   7  14
TORSDOF 5
ENDMDL
MODEL 2
REMARK VINA RESULT:      -6.6      0.603      1.199
REMARK  Name = 
REMARK  8 active torsions:
REMARK  status: ('A' for Active; 'I' for Inactive)
REMARK    1  A    between atoms: C_1  and  C_2
REMARK    2  A    between atoms: C_4  and  C_5
REMARK    3  A    between atoms: N_11  and  C_12
REMARK    4  A    between atoms: C_12  and  C_13
REMARK    5  A    between atoms: C_13  and  C_14
REMARK    6  A    between atoms: C_13  and  C_15
REMARK    7  A    between atoms: C_13  and  C_16
REMARK    8  A    between atoms: C_16  and  O_17
REMARK                            x       y       z     vdW  Elec       q    Type
REMARK                         _______ _______ _______ _____ _____    ______ ____
ROOT
ATOM      1  C   UNL     1       8.220   6.350  19.208  0.00  0.00    +0.000 C 
ATOM      2  C   UNL     1       7.227   5.520  18.453  0.00  0.00    +0.000 A 
ATOM      3  C   UNL     1       7.192   5.540  17.072  0.00  0.00    +0.000 A 
ATOM      4  C   UNL     1       6.180   4.834  16.461  0.00  0.00    +0.000 A 
ATOM      5  N   UNL     1       5.282   4.152  17.198  0.00  0.00    +0.000 NA
ATOM      6  C   UNL     1       5.383   4.169  18.532  0.00  0.00    +0.000 A 
ATOM      7  N   UNL     1       4.421   3.574  19.310  0.00  0.00    +0.000 N 
ATOM      8  N   UNL     1       6.353   4.813  19.188  0.00  0.00    +0.000 NA
ATOM      9  H   UNL     1       4.848   3.172  20.135  0.00  0.00    +0.000 HD
ENDROOT
BRANCH   4  10
ATOM     10  C   UNL     1       5.927   4.806  14.910  0.00  0.00    +0.000 C 
ATOM     11  C   UNL     1       7.159   4.894  13.969  0.00  0.00    +0.000 C 
ATOM     12  C   UNL     1       6.392   3.993  12.984  0.00  0.00    +0.000 C 
ATOM     13  C   UNL     1       5.598   3.465  14.194  0.00  0.00    +0.000 C 
ENDBRANCH   4  10
BRANCH   7  14
ATOM     14  C   UNL     1       3.317   2.880  18.675  0.00  0.00    +0.000 C 
BRANCH  14  15
ATOM     15  C   UNL     1       1.955   3.581  18.955  0.00  0.00    +0.000 C 
ATOM     16  C   UNL     1       1.705   4.707  17.928  0.00  0.00    +0.000 C 
ATOM     17  C   UNL     1       0.778   2.579  18.883  0.00  0.00    +0.000 C 
BRANCH  15  18
ATOM     18  C   UNL     1       2.003   4.204  20.368  0.00  0.00    +0.000 C 
BRANCH  18  19
ATOM     19  O   UNL     1       2.555   5.516  20.367  0.00  0.00    +0.000 OA
ATOM     20  H   UNL     1       2.565   5.835  19.447  0.00  0.00    +0.000 HD
ENDBRANCH  18  19
ENDBRANCH  15  18
ENDBRANCH  14  15
ENDBRANCH   7  14
TORSDOF 5
ENDMDL
MODEL 3
REMARK VINA RESULT:      -6.6      1.515      2.014
REMARK  Name = 
REMARK  8 active torsions:
REMARK  status: ('A' for Active; 'I' for Inactive)
REMARK    1  A    between atoms: C_1  and  C_2
REMARK    2  A    between atoms: C_4  and  C_5
REMARK    3  A    between atoms: N_11  and  C_12
REMARK    4  A    between atoms: C_12  and  C_13
REMARK    5  A    between atoms: C_13  and  C_14
REMARK    6  A    between atoms: C_13  and  C_15
REMARK    7  A    between atoms: C_13  and  C_16
REMARK    8  A    between atoms: C_16  and  O_17
REMARK                            x       y       z     vdW  Elec       q    Type
REMARK                         _______ _______ _______ _____ _____    ______ ____
ROOT
ATOM      1  C   UNL     1       7.685   7.624  17.751  0.00  0.00    +0.000 C 
ATOM      2  C   UNL     1       6.805   6.485  17.333  0.00  0.00    +0.000 A 
ATOM      3  C   UNL     1       7.109   5.728  16.218  0.00  0.00    +0.000 A 
ATOM      4  C   UNL     1       6.192   4.771  15.842  0.00  0.00    +0.000 A 
ATOM      5  N   UNL     1       5.061   4.594  16.553  0.00  0.00    +0.000 NA
ATOM      6  C   UNL     1       4.838   5.357  17.628  0.00  0.00    +0.000 A 
ATOM      7  N   UNL     1       3.646   5.273  18.306  0.00  0.00    +0.000 N 
ATOM      8  N   UNL     1       5.695   6.286  18.062  0.00  0.00    +0.000 NA
ATOM      9  H   UNL     1       3.805   5.414  19.295  0.00  0.00    +0.000 HD
ENDROOT
BRANCH   4  10
ATOM     10  C   UNL     1       6.321   3.872  14.560  0.00  0.00    +0.000 C 
ATOM     11  C   UNL     1       5.110   3.807  13.590  0.00  0.00    +0.000 C 
ATOM     12  C   UNL     1       6.121   3.651  12.439  0.00  0.00    +0.000 C 
ATOM     13  C   UNL     1       7.149   4.364  13.338  0.00  0.00    +0.000 C 
ENDBRANCH   4  10
BRANCH   7  14
ATOM     14  C   UNL     1       2.649   4.310  17.879  0.00  0.00    +0.000 C 
BRANCH  14  15
ATOM     15  C   UNL     1       2.161   3.420  19.061  0.00  0.00    +0.000 C 
ATOM     16  C   UNL     1       1.620   4.297  20.211  0.00  0.00    +0.000 C 
ATOM     17  C   UNL     1       1.042   2.450  18.614  0.00  0.00    +0.000 C 
BRANCH  15  18
ATOM     18  C   UNL     1       3.360   2.600  19.587  0.00  0.00    +0.000 C 
BRANCH  18  19
ATOM     19  O   UNL     1       4.222   2.164  18.542  0.00  0.00    +0.000 OA
ATOM     20  H   UNL     1       4.750   1.419  18.879  0.00  0.00    +0.000 HD
ENDBRANCH  18  19
ENDBRANCH  15  18
ENDBRANCH  14  15
ENDBRANCH   7  14
TORSDOF 5
ENDMDL
MODEL 4
REMARK VINA RESULT:      -6.5      1.325      1.735
REMARK  Name = 
REMARK  8 active torsions:
REMARK  status: ('A' for Active; 'I' for Inactive)
REMARK    1  A    between atoms: C_1  and  C_2
REMARK    2  A    between atoms: C_4  and  C_5
REMARK    3  A    between atoms: N_11  and  C_12
REMARK    4  A    between atoms: C_12  and  C_13
REMARK    5  A    between atoms: C_13  and  C_14
REMARK    6  A    between atoms: C_13  and  C_15
REMARK    7  A    between atoms: C_13  and  C_16
REMARK    8  A    between atoms: C_16  and  O_17
REMARK                            x       y       z     vdW  Elec       q    Type
REMARK                         _______ _______ _______ _____ _____    ______ ____
ROOT
ATOM      1  C   UNL     1       8.128   6.219  19.345  0.00  0.00    +0.000 C 
ATOM      2  C   UNL     1       7.101   5.405  18.620  0.00  0.00    +0.000 A 
ATOM      3  C   UNL     1       7.045   5.404  17.239  0.00  0.00    +0.000 A 
ATOM      4  C   UNL     1       6.004   4.716  16.656  0.00  0.00    +0.000 A 
ATOM      5  N   UNL     1       5.099   4.072  17.418  0.00  0.00    +0.000 NA
ATOM      6  C   UNL     1       5.222   4.107  18.750  0.00  0.00    +0.000 A 
ATOM      7  N   UNL     1       4.257   3.552  19.552  0.00  0.00    +0.000 N 
ATOM      8  N   UNL     1       6.220   4.735  19.380  0.00  0.00    +0.000 NA
ATOM      9  H   UNL     1       4.685   3.152  20.377  0.00  0.00    +0.000 HD
ENDROOT
BRANCH   4  10
ATOM     10  C   UNL     1       5.726   4.670  15.110  0.00  0.00    +0.000 C 
ATOM     11  C   UNL     1       6.924   4.885  14.147  0.00  0.00    +0.000 C 
ATOM     12  C   UNL     1       6.232   3.917  13.170  0.00  0.00    +0.000 C 
ATOM     13  C   UNL     1       5.517   3.306  14.391  0.00  0.00    +0.000 C 
ENDBRANCH   4  10
BRANCH   7  14
ATOM     14  C   UNL     1       3.124   2.879  18.946  0.00  0.00    +0.000 C 
BRANCH  14  15
ATOM     15  C   UNL     1       1.800   3.170  19.712  0.00  0.00    +0.000 C 
ATOM     16  C   UNL     1       1.681   4.675  20.035  0.00  0.00    +0.000 C 
ATOM     17  C   UNL     1       0.563   2.744  18.886  0.00  0.00    +0.000 C 
BRANCH  15  18
ATOM     18  C   UNL     1       1.816   2.379  21.040  0.00  0.00    +0.000 C 
BRANCH  18  19
ATOM     19  O   UNL     1       2.647   2.986  22.024  0.00  0.00    +0.000 OA
ATOM     20  H   UNL     1       3.521   2.560  21.982  0.00  0.00    +0.000 HD
ENDBRANCH  18  19
ENDBRANCH  15  18
ENDBRANCH  14  15
ENDBRANCH   7  14
TORSDOF 5
ENDMDL
MODEL 5
REMARK VINA RESULT:      -6.5      1.425      3.529
REMARK  Name = 
REMARK  8 active torsions:
REMARK  status: ('A' for Active; 'I' for Inactive)
REMARK    1  A    between atoms: C_1  and  C_2
REMARK    2  A    between atoms: C_4  and  C_5
REMARK    3  A    between atoms: N_11  and  C_12
REMARK    4  A    between atoms: C_12  and  C_13
REMARK    5  A    between atoms: C_13  and  C_14
REMARK    6  A    between atoms: C_13  and  C_15
REMARK    7  A    between atoms: C_13  and  C_16
REMARK    8  A    between atoms: C_16  and  O_17
REMARK                            x       y       z     vdW  Elec       q    Type
REMARK                         _______ _______ _______ _____ _____    ______ ____
ROOT
ATOM      1  C   UNL     1       5.985   3.957  13.952  0.00  0.00    +0.000 C 
ATOM      2  C   UNL     1       5.725   4.339  15.376  0.00  0.00    +0.000 A 
ATOM      3  C   UNL     1       6.308   5.465  15.926  0.00  0.00    +0.000 A 
ATOM      4  C   UNL     1       6.104   5.683  17.270  0.00  0.00    +0.000 A 
ATOM      5  N   UNL     1       5.355   4.829  17.994  0.00  0.00    +0.000 NA
ATOM      6  C   UNL     1       4.812   3.764  17.393  0.00  0.00    +0.000 A 
ATOM      7  N   UNL     1       4.137   2.820  18.127  0.00  0.00    +0.000 N 
ATOM      8  N   UNL     1       4.951   3.505  16.090  0.00  0.00    +0.000 NA
ATOM      9  H   UNL     1       3.366   2.452  17.585  0.00  0.00    +0.000 HD
ENDROOT
BRANCH   4  10
ATOM     10  C   UNL     1       6.751   6.859  18.087  0.00  0.00    +0.000 C 
ATOM     11  C   UNL     1       8.105   6.593  18.799  0.00  0.00    +0.000 C 
ATOM     12  C   UNL     1       8.462   8.067  18.533  0.00  0.00    +0.000 C 
ATOM     13  C   UNL     1       7.478   8.019  17.349  0.00  0.00    +0.000 C 
ENDBRANCH   4  10
BRANCH   7  14
ATOM     14  C   UNL     1       3.969   3.011  19.555  0.00  0.00    +0.000 C 
BRANCH  14  15
ATOM     15  C   UNL     1       2.480   3.267  19.933  0.00  0.00    +0.000 C 
ATOM     16  C   UNL     1       2.181   2.727  21.349  0.00  0.00    +0.000 C 
ATOM     17  C   UNL     1       2.140   4.776  19.900  0.00  0.00    +0.000 C 
BRANCH  15  18
ATOM     18  C   UNL     1       1.580   2.524  18.921  0.00  0.00    +0.000 C 
BRANCH  18  19
ATOM     19  O   UNL     1       1.205   3.345  17.821  0.00  0.00    +0.000 OA
ATOM     20  H   UNL     1       0.743   4.126  18.173  0.00  0.00    +0.000 HD
ENDBRANCH  18  19
ENDBRANCH  15  18
ENDBRANCH  14  15
ENDBRANCH   7  14
TORSDOF 5
ENDMDL
MODEL 6
REMARK VINA RESULT:      -6.5      1.217      1.612
REMARK  Name = 
REMARK  8 active torsions:
REMARK  status: ('A' for Active; 'I' for Inactive)
REMARK    1  A    between atoms: C_1  and  C_2
REMARK    2  A    between atoms: C_4  and  C_5
REMARK    3  A    between atoms: N_11  and  C_12
REMARK    4  A    between atoms: C_12  and  C_13
REMARK    5  A    between atoms: C_13  and  C_14
REMARK    6  A    between atoms: C_13  and  C_15
REMARK    7  A    between atoms: C_13  and  C_16
REMARK    8  A    between atoms: C_16  and  O_17
REMARK                            x       y       z     vdW  Elec       q    Type
REMARK                         _______ _______ _______ _____ _____    ______ ____
ROOT
ATOM      1  C   UNL     1       8.333   5.978  19.635  0.00  0.00    +0.000 C 
ATOM      2  C   UNL     1       7.180   5.447  18.839  0.00  0.00    +0.000 A 
ATOM      3  C   UNL     1       7.228   5.415  17.458  0.00  0.00    +0.000 A 
ATOM      4  C   UNL     1       6.086   5.014  16.801  0.00  0.00    +0.000 A 
ATOM      5  N   UNL     1       4.987   4.663  17.496  0.00  0.00    +0.000 NA
ATOM      6  C   UNL     1       5.015   4.710  18.833  0.00  0.00    +0.000 A 
ATOM      7  N   UNL     1       3.878   4.463  19.562  0.00  0.00    +0.000 N 
ATOM      8  N   UNL     1       6.096   5.066  19.534  0.00  0.00    +0.000 NA
ATOM      9  H   UNL     1       4.120   3.990  20.423  0.00  0.00    +0.000 HD
ENDROOT
BRANCH   4  10
ATOM     10  C   UNL     1       5.922   4.992  15.239  0.00  0.00    +0.000 C 
ATOM     11  C   UNL     1       7.204   4.867  14.372  0.00  0.00    +0.000 C 
ATOM     12  C   UNL     1       6.363   4.076  13.354  0.00  0.00    +0.000 C 
ATOM     13  C   UNL     1       5.428   3.703  14.520  0.00  0.00    +0.000 C 
ENDBRANCH   4  10
BRANCH   7  14
ATOM     14  C   UNL     1       2.654   4.100  18.875  0.00  0.00    +0.000 C 
BRANCH  14  15
ATOM     15  C   UNL     1       2.086   2.741  19.383  0.00  0.00    +0.000 C 
ATOM     16  C   UNL     1       1.973   2.744  20.923  0.00  0.00    +0.000 C 
ATOM     17  C   UNL     1       0.688   2.454  18.787  0.00  0.00    +0.000 C 
BRANCH  15  18
ATOM     18  C   UNL     1       3.056   1.614  18.961  0.00  0.00    +0.000 C 
BRANCH  18  19
ATOM     19  O   UNL     1       3.803   1.947  17.796  0.00  0.00    +0.000 OA
ATOM     20  H   UNL     1       3.221   2.450  17.200  0.00  0.00    +0.000 HD
ENDBRANCH  18  19
ENDBRANCH  15  18
ENDBRANCH  14  15
ENDBRANCH   7  14
TORSDOF 5
ENDMDL
MODEL 7
REMARK VINA RESULT:      -6.4      1.372      3.489
REMARK  Name = 
REMARK  8 active torsions:
REMARK  status: ('A' for Active; 'I' for Inactive)
REMARK    1  A    between atoms: C_1  and  C_2
REMARK    2  A    between atoms: C_4  and  C_5
REMARK    3  A    between atoms: N_11  and  C_12
REMARK    4  A    between atoms: C_12  and  C_13
REMARK    5  A    between atoms: C_13  and  C_14
REMARK    6  A    between atoms: C_13  and  C_15
REMARK    7  A    between atoms: C_13  and  C_16
REMARK    8  A    between atoms: C_16  and  O_17
REMARK                            x       y       z     vdW  Elec       q    Type
REMARK                         _______ _______ _______ _____ _____    ______ ____
ROOT
ATOM      1  C   UNL     1       5.872   3.840  14.124  0.00  0.00    +0.000 C 
ATOM      2  C   UNL     1       5.605   4.311  15.520  0.00  0.00    +0.000 A 
ATOM      3  C   UNL     1       6.246   5.425  16.026  0.00  0.00    +0.000 A 
ATOM      4  C   UNL     1       6.027   5.726  17.353  0.00  0.00    +0.000 A 
ATOM      5  N   UNL     1       5.210   4.958  18.100  0.00  0.00    +0.000 NA
ATOM      6  C   UNL     1       4.614   3.899  17.540  0.00  0.00    +0.000 A 
ATOM      7  N   UNL     1       3.864   3.039  18.304  0.00  0.00    +0.000 N 
ATOM      8  N   UNL     1       4.764   3.565  16.255  0.00  0.00    +0.000 NA
ATOM      9  H   UNL     1       3.083   2.692  17.761  0.00  0.00    +0.000 HD
ENDROOT
BRANCH   4  10
ATOM     10  C   UNL     1       6.729   6.900  18.125  0.00  0.00    +0.000 C 
ATOM     11  C   UNL     1       8.066   6.596  18.855  0.00  0.00    +0.000 C 
ATOM     12  C   UNL     1       8.498   8.038  18.532  0.00  0.00    +0.000 C 
ATOM     13  C   UNL     1       7.516   7.992  17.345  0.00  0.00    +0.000 C 
ENDBRANCH   4  10
BRANCH   7  14
ATOM     14  C   UNL     1       3.677   3.315  19.715  0.00  0.00    +0.000 C 
BRANCH  14  15
ATOM     15  C   UNL     1       2.191   3.638  20.050  0.00  0.00    +0.000 C 
ATOM     16  C   UNL     1       1.287   3.349  18.833  0.00  0.00    +0.000 C 
ATOM     17  C   UNL     1       1.686   2.799  21.249  0.00  0.00    +0.000 C 
BRANCH  15  18
ATOM     18  C   UNL     1       2.081   5.139  20.402  0.00  0.00    +0.000 C 
BRANCH  18  19
ATOM     19  O   UNL     1       3.277   5.854  20.113  0.00  0.00    +0.000 OA
ATOM     20  H   UNL     1       4.029   5.254  20.260  0.00  0.00    +0.000 HD
ENDBRANCH  18  19
ENDBRANCH  15  18
ENDBRANCH  14  15
ENDBRANCH   7  14
TORSDOF 5
ENDMDL
MODEL 8
REMARK VINA RESULT:      -6.4      2.751      3.646
REMARK  Name = 
REMARK  8 active torsions:
REMARK  status: ('A' for Active; 'I' for Inactive)
REMARK    1  A    between atoms: C_1  and  C_2
REMARK    2  A    between atoms: C_4  and  C_5
REMARK    3  A    between atoms: N_11  and  C_12
REMARK    4  A    between atoms: C_12  and  C_13
REMARK    5  A    between atoms: C_13  and  C_14
REMARK    6  A    between atoms: C_13  and  C_15
REMARK    7  A    between atoms: C_13  and  C_16
REMARK    8  A    between atoms: C_16  and  O_17
REMARK                            x       y       z     vdW  Elec       q    Type
REMARK                         _______ _______ _______ _____ _____    ______ ____
ROOT
ATOM      1  C   UNL     1       1.809   9.347  17.823  0.00  0.00    +0.000 C 
ATOM      2  C   UNL     1       2.571   8.110  18.186  0.00  0.00    +0.000 A 
ATOM      3  C   UNL     1       3.563   7.621  17.358  0.00  0.00    +0.000 A 
ATOM      4  C   UNL     1       4.138   6.420  17.712  0.00  0.00    +0.000 A 
ATOM      5  N   UNL     1       3.742   5.776  18.826  0.00  0.00    +0.000 NA
ATOM      6  C   UNL     1       2.782   6.314  19.587  0.00  0.00    +0.000 A 
ATOM      7  N   UNL     1       2.283   5.627  20.667  0.00  0.00    +0.000 N 
ATOM      8  N   UNL     1       2.198   7.485  19.315  0.00  0.00    +0.000 NA
ATOM      9  H   UNL     1       2.050   6.277  21.407  0.00  0.00    +0.000 HD
ENDROOT
BRANCH   4  10
ATOM     10  C   UNL     1       5.219   5.667  16.855  0.00  0.00    +0.000 C 
ATOM     11  C   UNL     1       4.921   4.205  16.427  0.00  0.00    +0.000 C 
ATOM     12  C   UNL     1       5.712   4.488  15.137  0.00  0.00    +0.000 C 
ATOM     13  C   UNL     1       5.373   5.977  15.339  0.00  0.00    +0.000 C 
ENDBRANCH   4  10
BRANCH   7  14
ATOM     14  C   UNL     1       2.842   4.334  21.011  0.00  0.00    +0.000 C 
BRANCH  14  15
ATOM     15  C   UNL     1       1.881   3.169  20.629  0.00  0.00    +0.000 C 
ATOM     16  C   UNL     1       1.476   2.368  21.886  0.00  0.00    +0.000 C 
ATOM     17  C   UNL     1       0.596   3.696  19.947  0.00  0.00    +0.000 C 
BRANCH  15  18
ATOM     18  C   UNL     1       2.618   2.222  19.656  0.00  0.00    +0.000 C 
BRANCH  18  19
ATOM     19  O   UNL     1       1.795   1.812  18.569  0.00  0.00    +0.000 OA
ATOM     20  H   UNL     1       0.987   1.414  18.938  0.00  0.00    +0.000 HD
ENDBRANCH  18  19
ENDBRANCH  15  18
ENDBRANCH  14  15
ENDBRANCH   7  14
TORSDOF 5
ENDMDL
MODEL 9
REMARK VINA RESULT:      -6.4      2.505      5.670
REMARK  Name = 
REMARK  8 active torsions:
REMARK  status: ('A' for Active; 'I' for Inactive)
REMARK    1  A    between atoms: C_1  and  C_2
REMARK    2  A    between atoms: C_4  and  C_5
REMARK    3  A    between atoms: N_11  and  C_12
REMARK    4  A    between atoms: C_12  and  C_13
REMARK    5  A    between atoms: C_13  and  C_14
REMARK    6  A    between atoms: C_13  and  C_15
REMARK    7  A    between atoms: C_13  and  C_16
REMARK    8  A    between atoms: C_16  and  O_17
REMARK                            x       y       z     vdW  Elec       q    Type
REMARK                         _______ _______ _______ _____ _____    ______ ____
ROOT
ATOM      1  C   UNL     1       7.790   7.571  17.704  0.00  0.00    +0.000 C 
ATOM      2  C   UNL     1       6.831   6.576  17.126  0.00  0.00    +0.000 A 
ATOM      3  C   UNL     1       5.701   6.195  17.823  0.00  0.00    +0.000 A 
ATOM      4  C   UNL     1       4.931   5.196  17.269  0.00  0.00    +0.000 A 
ATOM      5  N   UNL     1       5.280   4.639  16.093  0.00  0.00    +0.000 NA
ATOM      6  C   UNL     1       6.383   5.065  15.468  0.00  0.00    +0.000 A 
ATOM      7  N   UNL     1       6.820   4.442  14.326  0.00  0.00    +0.000 N 
ATOM      8  N   UNL     1       7.161   6.045  15.937  0.00  0.00    +0.000 NA
ATOM      9  H   UNL     1       7.234   5.123  13.701  0.00  0.00    +0.000 HD
ENDROOT
BRANCH   4  10
ATOM     10  C   UNL     1       3.660   4.573  17.951  0.00  0.00    +0.000 C 
ATOM     11  C   UNL     1       2.374   5.440  18.026  0.00  0.00    +0.000 C 
ATOM     12  C   UNL     1       1.564   4.138  17.888  0.00  0.00    +0.000 C 
ATOM     13  C   UNL     1       2.794   3.528  17.189  0.00  0.00    +0.000 C 
ENDBRANCH   4  10
BRANCH   7  14
ATOM     14  C   UNL     1       6.048   3.348  13.768  0.00  0.00    +0.000 C 
BRANCH  14  15
ATOM     15  C   UNL     1       6.063   3.364  12.211  0.00  0.00    +0.000 C 
ATOM     16  C   UNL     1       7.144   4.335  11.690  0.00  0.00    +0.000 C 
ATOM     17  C   UNL     1       6.346   1.957  11.634  0.00  0.00    +0.000 C 
BRANCH  15  18
ATOM     18  C   UNL     1       4.683   3.847  11.711  0.00  0.00    +0.000 C 
BRANCH  18  19
ATOM     19  O   UNL     1       3.931   2.805  11.098  0.00  0.00    +0.000 OA
ATOM     20  H   UNL     1       4.068   1.992  11.616  0.00  0.00    +0.000 HD
ENDBRANCH  18  19
ENDBRANCH  15  18
ENDBRANCH  14  15
ENDBRANCH   7  14
TORSDOF 5
ENDMDL
