MODEL 1
REMARK VINA RESULT:      -7.6      0.000      0.000
REMARK  Name = 
REMARK  3 active torsions:
REMARK  status: ('A' for Active; 'I' for Inactive)
REMARK    1  A    between atoms: C_2  and  C_3
REMARK    2  A    between atoms: C_6  and  C_7
REMARK    3  A    between atoms: C_14  and  N_15
REMARK                            x       y       z     vdW  Elec       q    Type
REMARK                         _______ _______ _______ _____ _____    ______ ____
ROOT
ATOM      1  C   UNL     1       4.052   3.529  17.659  0.00  0.00    +0.000 A 
ATOM      2  C   UNL     1       3.935   2.167  17.895  0.00  0.00    +0.000 A 
ATOM      3  S   UNL     1       2.849   1.797  19.175  0.00  0.00    +0.000 S 
ATOM      4  C   UNL     1       2.515   3.436  19.420  0.00  0.00    +0.000 A 
ATOM      5  C   UNL     1       1.638   3.943  20.436  0.00  0.00    +0.000 A 
ATOM      6  O   UNL     1       1.000   3.279  21.247  0.00  0.00    +0.000 OA
ATOM      7  C   UNL     1       1.540   5.424  20.468  0.00  0.00    +0.000 A 
ATOM      8  C   UNL     1       2.213   6.174  19.572  0.00  0.00    +0.000 A 
ATOM      9  O   UNL     1       3.034   5.595  18.592  0.00  0.00    +0.000 OA
ATOM     10  C   UNL     1       3.188   4.248  18.546  0.00  0.00    +0.000 A 
ENDROOT
BRANCH   1  14
ATOM     11  C   UNL     1       6.821   4.998  14.738  0.00  0.00    +0.000 A 
ATOM     12  C   UNL     1       7.041   5.229  16.098  0.00  0.00    +0.000 A 
ATOM     13  C   UNL     1       6.115   4.778  17.044  0.00  0.00    +0.000 A 
ATOM     14  C   UNL     1       4.966   4.077  16.652  0.00  0.00    +0.000 A 
ATOM     15  C   UNL     1       4.747   3.867  15.282  0.00  0.00    +0.000 A 
ATOM     16  C   UNL     1       5.666   4.327  14.331  0.00  0.00    +0.000 A 
BRANCH  11  18
ATOM     17  N   UNL     1       8.567   5.794  12.993  0.00  0.00    +0.000 NA
ATOM     18  C   UNL     1       7.785   5.432  13.770  0.00  0.00    +0.000 C 
ENDBRANCH  11  18
ENDBRANCH   1  14
BRANCH   8  19
ATOM     19  N   UNL     1       2.158   7.565  19.543  0.00  0.00    +0.000 N 
ATOM     20  C   UNL     1       1.684   8.381  20.679  0.00  0.00    +0.000 C 
ATOM     21  C   UNL     1       0.537   9.302  20.241  0.00  0.00    +0.000 C 
ATOM     22  O   UNL     1       0.913  10.114  19.116  0.00  0.00    +0.000 OA
ATOM     23  C   UNL     1       1.290   9.281  18.008  0.00  0.00    +0.000 C 
ATOM     24  C   UNL     1       2.489   8.385  18.362  0.00  0.00    +0.000 C 
ENDBRANCH   8  19
TORSDOF 3
ENDMDL
MODEL 2
REMARK VINA RESULT:      -7.4      0.221      1.008
REMARK  Name = 
REMARK  3 active torsions:
REMARK  status: ('A' for Active; 'I' for Inactive)
REMARK    1  A    between atoms: C_2  and  C_3
REMARK    2  A    between atoms: C_6  and  C_7
REMARK    3  A    between atoms: C_14  and  N_15
REMARK                            x       y       z     vdW  Elec       q    Type
REMARK                         _______ _______ _______ _____ _____    ______ ____
ROOT
ATOM      1  C   UNL     1       4.079   3.347  17.690  0.00  0.00    +0.000 A 
ATOM      2  C   UNL     1       3.895   2.001  17.963  0.00  0.00    +0.000 A 
ATOM      3  S   UNL     1       2.744   1.718  19.210  0.00  0.00    +0.000 S 
ATOM      4  C   UNL     1       2.472   3.377  19.389  0.00  0.00    +0.000 A 
ATOM      5  C   UNL     1       1.578   3.954  20.352  0.00  0.00    +0.000 A 
ATOM      6  O   UNL     1       0.881   3.344  21.158  0.00  0.00    +0.000 OA
ATOM      7  C   UNL     1       1.543   5.439  20.333  0.00  0.00    +0.000 A 
ATOM      8  C   UNL     1       2.283   6.130  19.443  0.00  0.00    +0.000 A 
ATOM      9  O   UNL     1       3.116   5.484  18.516  0.00  0.00    +0.000 OA
ATOM     10  C   UNL     1       3.213   4.131  18.518  0.00  0.00    +0.000 A 
ENDROOT
BRANCH   1  14
ATOM     11  C   UNL     1       6.841   4.878  14.794  0.00  0.00    +0.000 A 
ATOM     12  C   UNL     1       5.674   4.231  14.382  0.00  0.00    +0.000 A 
ATOM     13  C   UNL     1       4.794   3.702  15.331  0.00  0.00    +0.000 A 
ATOM     14  C   UNL     1       5.055   3.823  16.704  0.00  0.00    +0.000 A 
ATOM     15  C   UNL     1       6.239   4.459  17.105  0.00  0.00    +0.000 A 
ATOM     16  C   UNL     1       7.129   4.979  16.156  0.00  0.00    +0.000 A 
BRANCH  11  18
ATOM     17  N   UNL     1       8.443   5.900  13.029  0.00  0.00    +0.000 NA
ATOM     18  C   UNL     1       7.729   5.447  13.823  0.00  0.00    +0.000 C 
ENDBRANCH  11  18
ENDBRANCH   1  14
BRANCH   8  19
ATOM     19  N   UNL     1       2.289   7.520  19.368  0.00  0.00    +0.000 N 
ATOM     20  C   UNL     1       1.819   8.392  20.463  0.00  0.00    +0.000 C 
ATOM     21  C   UNL     1       0.726   9.346  19.963  0.00  0.00    +0.000 C 
ATOM     22  O   UNL     1       1.168  10.104  18.824  0.00  0.00    +0.000 OA
ATOM     23  C   UNL     1       1.539   9.219  17.754  0.00  0.00    +0.000 C 
ATOM     24  C   UNL     1       2.688   8.285  18.171  0.00  0.00    +0.000 C 
ENDBRANCH   8  19
TORSDOF 3
ENDMDL
MODEL 3
REMARK VINA RESULT:      -7.3      2.253      6.603
REMARK  Name = 
REMARK  3 active torsions:
REMARK  status: ('A' for Active; 'I' for Inactive)
REMARK    1  A    between atoms: C_2  and  C_3
REMARK    2  A    between atoms: C_6  and  C_7
REMARK    3  A    between atoms: C_14  and  N_15
REMARK                            x       y       z     vdW  Elec       q    Type
REMARK                         _______ _______ _______ _____ _____    ______ ____
ROOT
ATOM      1  C   UNL     1       1.927   5.529  19.898  0.00  0.00    +0.000 A 
ATOM      2  C   UNL     1       1.240   4.670  20.741  0.00  0.00    +0.000 A 
ATOM      3  S   UNL     1       1.614   3.014  20.464  0.00  0.00    +0.000 S 
ATOM      4  C   UNL     1       2.699   3.424  19.234  0.00  0.00    +0.000 A 
ATOM      5  C   UNL     1       3.436   2.473  18.451  0.00  0.00    +0.000 A 
ATOM      6  O   UNL     1       3.404   1.251  18.567  0.00  0.00    +0.000 OA
ATOM      7  C   UNL     1       4.298   3.085  17.408  0.00  0.00    +0.000 A 
ATOM      8  C   UNL     1       4.367   4.425  17.277  0.00  0.00    +0.000 A 
ATOM      9  O   UNL     1       3.629   5.287  18.102  0.00  0.00    +0.000 OA
ATOM     10  C   UNL     1       2.797   4.777  19.045  0.00  0.00    +0.000 A 
ENDROOT
BRANCH   1  14
ATOM     11  C   UNL     1       1.172   9.747  19.888  0.00  0.00    +0.000 A 
ATOM     12  C   UNL     1       1.636   9.111  18.735  0.00  0.00    +0.000 A 
ATOM     13  C   UNL     1       1.915   7.741  18.754  0.00  0.00    +0.000 A 
ATOM     14  C   UNL     1       1.721   6.981  19.917  0.00  0.00    +0.000 A 
ATOM     15  C   UNL     1       1.272   7.635  21.074  0.00  0.00    +0.000 A 
ATOM     16  C   UNL     1       1.003   9.009  21.061  0.00  0.00    +0.000 A 
BRANCH  11  18
ATOM     17  N   UNL     1       0.590  12.274  19.839  0.00  0.00    +0.000 NA
ATOM     18  C   UNL     1       0.857  11.145  19.861  0.00  0.00    +0.000 C 
ENDBRANCH  11  18
ENDBRANCH   1  14
BRANCH   8  19
ATOM     19  N   UNL     1       5.159   5.061  16.325  0.00  0.00    +0.000 N 
ATOM     20  C   UNL     1       5.455   4.482  14.999  0.00  0.00    +0.000 C 
ATOM     21  C   UNL     1       6.971   4.391  14.775  0.00  0.00    +0.000 C 
ATOM     22  O   UNL     1       7.609   5.666  14.959  0.00  0.00    +0.000 OA
ATOM     23  C   UNL     1       7.363   6.156  16.288  0.00  0.00    +0.000 C 
ATOM     24  C   UNL     1       5.858   6.341  16.548  0.00  0.00    +0.000 C 
ENDBRANCH   8  19
TORSDOF 3
ENDMDL
MODEL 4
REMARK VINA RESULT:      -7.2      2.544      6.257
REMARK  Name = 
REMARK  3 active torsions:
REMARK  status: ('A' for Active; 'I' for Inactive)
REMARK    1  A    between atoms: C_2  and  C_3
REMARK    2  A    between atoms: C_6  and  C_7
REMARK    3  A    between atoms: C_14  and  N_15
REMARK                            x       y       z     vdW  Elec       q    Type
REMARK                         _______ _______ _______ _____ _____    ______ ____
ROOT
ATOM      1  C   UNL     1       2.127   5.788  20.079  0.00  0.00    +0.000 A 
ATOM      2  C   UNL     1       1.165   5.023  20.719  0.00  0.00    +0.000 A 
ATOM      3  S   UNL     1       1.618   3.372  20.883  0.00  0.00    +0.000 S 
ATOM      4  C   UNL     1       3.097   3.660  20.117  0.00  0.00    +0.000 A 
ATOM      5  C   UNL     1       4.082   2.652  19.846  0.00  0.00    +0.000 A 
ATOM      6  O   UNL     1       4.007   1.462  20.138  0.00  0.00    +0.000 OA
ATOM      7  C   UNL     1       5.282   3.154  19.130  0.00  0.00    +0.000 A 
ATOM      8  C   UNL     1       5.397   4.461  18.819  0.00  0.00    +0.000 A 
ATOM      9  O   UNL     1       4.395   5.388  19.144  0.00  0.00    +0.000 OA
ATOM     10  C   UNL     1       3.261   4.973  19.762  0.00  0.00    +0.000 A 
ENDROOT
BRANCH   1  14
ATOM     11  C   UNL     1       1.402   9.905  19.138  0.00  0.00    +0.000 A 
ATOM     12  C   UNL     1       1.921   9.042  18.172  0.00  0.00    +0.000 A 
ATOM     13  C   UNL     1       2.190   7.707  18.494  0.00  0.00    +0.000 A 
ATOM     14  C   UNL     1       1.930   7.210  19.780  0.00  0.00    +0.000 A 
ATOM     15  C   UNL     1       1.425   8.092  20.747  0.00  0.00    +0.000 A 
ATOM     16  C   UNL     1       1.166   9.431  20.430  0.00  0.00    +0.000 A 
BRANCH  11  18
ATOM     17  N   UNL     1       0.846  12.366  18.536  0.00  0.00    +0.000 NA
ATOM     18  C   UNL     1       1.098  11.264  18.800  0.00  0.00    +0.000 C 
ENDBRANCH  11  18
ENDBRANCH   1  14
BRANCH   8  19
ATOM     19  N   UNL     1       6.498   4.996  18.157  0.00  0.00    +0.000 N 
ATOM     20  C   UNL     1       7.223   6.194  18.626  0.00  0.00    +0.000 C 
ATOM     21  C   UNL     1       7.274   7.261  17.525  0.00  0.00    +0.000 C 
ATOM     22  O   UNL     1       7.833   6.738  16.308  0.00  0.00    +0.000 OA
ATOM     23  C   UNL     1       7.052   5.624  15.843  0.00  0.00    +0.000 C 
ATOM     24  C   UNL     1       7.026   4.486  16.877  0.00  0.00    +0.000 C 
ENDBRANCH   8  19
TORSDOF 3
ENDMDL
MODEL 5
REMARK VINA RESULT:      -7.0      2.245      6.556
REMARK  Name = 
REMARK  3 active torsions:
REMARK  status: ('A' for Active; 'I' for Inactive)
REMARK    1  A    between atoms: C_2  and  C_3
REMARK    2  A    between atoms: C_6  and  C_7
REMARK    3  A    between atoms: C_14  and  N_15
REMARK                            x       y       z     vdW  Elec       q    Type
REMARK                         _______ _______ _______ _____ _____    ______ ____
ROOT
ATOM      1  C   UNL     1       1.861   5.286  20.016  0.00  0.00    +0.000 A 
ATOM      2  C   UNL     1       1.207   4.378  20.835  0.00  0.00    +0.000 A 
ATOM      3  S   UNL     1       1.664   2.748  20.531  0.00  0.00    +0.000 S 
ATOM      4  C   UNL     1       2.740   3.233  19.321  0.00  0.00    +0.000 A 
ATOM      5  C   UNL     1       3.530   2.335  18.528  0.00  0.00    +0.000 A 
ATOM      6  O   UNL     1       3.556   1.111  18.621  0.00  0.00    +0.000 OA
ATOM      7  C   UNL     1       4.371   3.008  17.506  0.00  0.00    +0.000 A 
ATOM      8  C   UNL     1       4.377   4.352  17.401  0.00  0.00    +0.000 A 
ATOM      9  O   UNL     1       3.590   5.161  18.235  0.00  0.00    +0.000 OA
ATOM     10  C   UNL     1       2.774   4.593  19.158  0.00  0.00    +0.000 A 
ENDROOT
BRANCH   1  14
ATOM     11  C   UNL     1       1.199   9.514  20.221  0.00  0.00    +0.000 A 
ATOM     12  C   UNL     1       0.892   8.699  21.312  0.00  0.00    +0.000 A 
ATOM     13  C   UNL     1       1.076   7.315  21.227  0.00  0.00    +0.000 A 
ATOM     14  C   UNL     1       1.584   6.725  20.060  0.00  0.00    +0.000 A 
ATOM     15  C   UNL     1       1.872   7.553  18.965  0.00  0.00    +0.000 A 
ATOM     16  C   UNL     1       1.677   8.938  19.043  0.00  0.00    +0.000 A 
BRANCH  11  18
ATOM     17  N   UNL     1       0.897  12.084  20.399  0.00  0.00    +0.000 NA
ATOM     18  C   UNL     1       1.039  10.936  20.318  0.00  0.00    +0.000 C 
ENDBRANCH  11  18
ENDBRANCH   1  14
BRANCH   8  19
ATOM     19  N   UNL     1       5.147   5.044  16.470  0.00  0.00    +0.000 N 
ATOM     20  C   UNL     1       5.462   4.516  15.127  0.00  0.00    +0.000 C 
ATOM     21  C   UNL     1       6.979   4.484  14.901  0.00  0.00    +0.000 C 
ATOM     22  O   UNL     1       7.574   5.773  15.126  0.00  0.00    +0.000 OA
ATOM     23  C   UNL     1       7.312   6.213  16.469  0.00  0.00    +0.000 C 
ATOM     24  C   UNL     1       5.802   6.339  16.733  0.00  0.00    +0.000 C 
ENDBRANCH   8  19
TORSDOF 3
ENDMDL
MODEL 6
REMARK VINA RESULT:      -7.0      2.397      6.507
REMARK  Name = 
REMARK  3 active torsions:
REMARK  status: ('A' for Active; 'I' for Inactive)
REMARK    1  A    between atoms: C_2  and  C_3
REMARK    2  A    between atoms: C_6  and  C_7
REMARK    3  A    between atoms: C_14  and  N_15
REMARK                            x       y       z     vdW  Elec       q    Type
REMARK                         _______ _______ _______ _____ _____    ______ ____
ROOT
ATOM      1  C   UNL     1       2.215   6.073  20.182  0.00  0.00    +0.000 A 
ATOM      2  C   UNL     1       1.517   5.331  21.124  0.00  0.00    +0.000 A 
ATOM      3  S   UNL     1       2.070   3.708  21.245  0.00  0.00    +0.000 S 
ATOM      4  C   UNL     1       3.246   3.977  20.060  0.00  0.00    +0.000 A 
ATOM      5  C   UNL     1       4.151   2.977  19.571  0.00  0.00    +0.000 A 
ATOM      6  O   UNL     1       4.217   1.808  19.943  0.00  0.00    +0.000 OA
ATOM      7  C   UNL     1       5.065   3.456  18.504  0.00  0.00    +0.000 A 
ATOM      8  C   UNL     1       5.026   4.740  18.094  0.00  0.00    +0.000 A 
ATOM      9  O   UNL     1       4.123   5.663  18.644  0.00  0.00    +0.000 OA
ATOM     10  C   UNL     1       3.241   5.265  19.594  0.00  0.00    +0.000 A 
ENDROOT
BRANCH   1  14
ATOM     11  C   UNL     1       1.080  10.087  19.203  0.00  0.00    +0.000 A 
ATOM     12  C   UNL     1       1.684   9.271  18.245  0.00  0.00    +0.000 A 
ATOM     13  C   UNL     1       2.086   7.974  18.580  0.00  0.00    +0.000 A 
ATOM     14  C   UNL     1       1.876   7.465  19.870  0.00  0.00    +0.000 A 
ATOM     15  C   UNL     1       1.283   8.300  20.829  0.00  0.00    +0.000 A 
ATOM     16  C   UNL     1       0.892   9.604  20.500  0.00  0.00    +0.000 A 
BRANCH  11  18
ATOM     17  N   UNL     1       0.284  12.469  18.557  0.00  0.00    +0.000 NA
ATOM     18  C   UNL     1       0.641  11.406  18.852  0.00  0.00    +0.000 C 
ENDBRANCH  11  18
ENDBRANCH   1  14
BRANCH   8  19
ATOM     19  N   UNL     1       5.860   5.254  17.105  0.00  0.00    +0.000 N 
ATOM     20  C   UNL     1       5.529   6.453  16.308  0.00  0.00    +0.000 C 
ATOM     21  C   UNL     1       5.572   6.134  14.808  0.00  0.00    +0.000 C 
ATOM     22  O   UNL     1       6.836   5.566  14.425  0.00  0.00    +0.000 OA
ATOM     23  C   UNL     1       7.081   4.359  15.165  0.00  0.00    +0.000 C 
ATOM     24  C   UNL     1       7.126   4.628  16.679  0.00  0.00    +0.000 C 
ENDBRANCH   8  19
TORSDOF 3
ENDMDL
MODEL 7
REMARK VINA RESULT:      -6.9      2.377      6.547
REMARK  Name = 
REMARK  3 active torsions:
REMARK  status: ('A' for Active; 'I' for Inactive)
REMARK    1  A    between atoms: C_2  and  C_3
REMARK    2  A    between atoms: C_6  and  C_7
REMARK    3  A    between atoms: C_14  and  N_15
REMARK                            x       y       z     vdW  Elec       q    Type
REMARK                         _______ _______ _______ _____ _____    ______ ____
ROOT
ATOM      1  C   UNL     1       2.093   6.278  19.953  0.00  0.00    +0.000 A 
ATOM      2  C   UNL     1       1.519   5.604  21.020  0.00  0.00    +0.000 A 
ATOM      3  S   UNL     1       2.032   3.967  21.138  0.00  0.00    +0.000 S 
ATOM      4  C   UNL     1       3.030   4.141  19.783  0.00  0.00    +0.000 A 
ATOM      5  C   UNL     1       3.821   3.087  19.217  0.00  0.00    +0.000 A 
ATOM      6  O   UNL     1       3.905   1.934  19.631  0.00  0.00    +0.000 OA
ATOM      7  C   UNL     1       4.584   3.484  18.007  0.00  0.00    +0.000 A 
ATOM      8  C   UNL     1       4.525   4.750  17.546  0.00  0.00    +0.000 A 
ATOM      9  O   UNL     1       3.742   5.730  18.176  0.00  0.00    +0.000 OA
ATOM     10  C   UNL     1       2.996   5.407  19.262  0.00  0.00    +0.000 A 
ENDROOT
BRANCH   1  14
ATOM     11  C   UNL     1       1.249  10.384  19.069  0.00  0.00    +0.000 A 
ATOM     12  C   UNL     1       0.937   9.854  20.323  0.00  0.00    +0.000 A 
ATOM     13  C   UNL     1       1.181   8.504  20.593  0.00  0.00    +0.000 A 
ATOM     14  C   UNL     1       1.756   7.666  19.626  0.00  0.00    +0.000 A 
ATOM     15  C   UNL     1       2.049   8.207  18.365  0.00  0.00    +0.000 A 
ATOM     16  C   UNL     1       1.794   9.556  18.087  0.00  0.00    +0.000 A 
BRANCH  11  18
ATOM     17  N   UNL     1       0.852  12.903  18.595  0.00  0.00    +0.000 NA
ATOM     18  C   UNL     1       1.027  11.775  18.801  0.00  0.00    +0.000 C 
ENDBRANCH  11  18
ENDBRANCH   1  14
BRANCH   8  19
ATOM     19  N   UNL     1       5.221   5.189  16.423  0.00  0.00    +0.000 N 
ATOM     20  C   UNL     1       5.225   4.461  15.137  0.00  0.00    +0.000 C 
ATOM     21  C   UNL     1       6.661   4.149  14.697  0.00  0.00    +0.000 C 
ATOM     22  O   UNL     1       7.468   5.338  14.644  0.00  0.00    +0.000 OA
ATOM     23  C   UNL     1       7.502   5.970  15.935  0.00  0.00    +0.000 C 
ATOM     24  C   UNL     1       6.094   6.378  16.398  0.00  0.00    +0.000 C 
ENDBRANCH   8  19
TORSDOF 3
ENDMDL
MODEL 8
REMARK VINA RESULT:      -6.8      2.680      6.305
REMARK  Name = 
REMARK  3 active torsions:
REMARK  status: ('A' for Active; 'I' for Inactive)
REMARK    1  A    between atoms: C_2  and  C_3
REMARK    2  A    between atoms: C_6  and  C_7
REMARK    3  A    between atoms: C_14  and  N_15
REMARK                            x       y       z     vdW  Elec       q    Type
REMARK                         _______ _______ _______ _____ _____    ______ ____
ROOT
ATOM      1  C   UNL     1       2.043   5.856  20.178  0.00  0.00    +0.000 A 
ATOM      2  C   UNL     1       1.201   4.964  20.824  0.00  0.00    +0.000 A 
ATOM      3  S   UNL     1       1.828   3.364  20.876  0.00  0.00    +0.000 S 
ATOM      4  C   UNL     1       3.226   3.842  20.053  0.00  0.00    +0.000 A 
ATOM      5  C   UNL     1       4.291   2.956  19.680  0.00  0.00    +0.000 A 
ATOM      6  O   UNL     1       4.355   1.752  19.911  0.00  0.00    +0.000 OA
ATOM      7  C   UNL     1       5.393   3.614  18.933  0.00  0.00    +0.000 A 
ATOM      8  C   UNL     1       5.357   4.940  18.687  0.00  0.00    +0.000 A 
ATOM      9  O   UNL     1       4.285   5.740  19.110  0.00  0.00    +0.000 OA
ATOM     10  C   UNL     1       3.235   5.180  19.762  0.00  0.00    +0.000 A 
ENDROOT
BRANCH   1  14
ATOM     11  C   UNL     1       1.145  10.008  19.621  0.00  0.00    +0.000 A 
ATOM     12  C   UNL     1       0.914   9.396  20.855  0.00  0.00    +0.000 A 
ATOM     13  C   UNL     1       1.175   8.032  21.020  0.00  0.00    +0.000 A 
ATOM     14  C   UNL     1       1.686   7.262  19.965  0.00  0.00    +0.000 A 
ATOM     15  C   UNL     1       1.896   7.884  18.726  0.00  0.00    +0.000 A 
ATOM     16  C   UNL     1       1.624   9.247  18.553  0.00  0.00    +0.000 A 
BRANCH  11  18
ATOM     17  N   UNL     1       0.717  12.551  19.340  0.00  0.00    +0.000 NA
ATOM     18  C   UNL     1       0.906  11.412  19.460  0.00  0.00    +0.000 C 
ENDBRANCH  11  18
ENDBRANCH   1  14
BRANCH   8  19
ATOM     19  N   UNL     1       6.360   5.618  18.000  0.00  0.00    +0.000 N 
ATOM     20  C   UNL     1       7.744   5.741  18.500  0.00  0.00    +0.000 C 
ATOM     21  C   UNL     1       8.158   7.216  18.587  0.00  0.00    +0.000 C 
ATOM     22  O   UNL     1       7.979   7.889  17.330  0.00  0.00    +0.000 OA
ATOM     23  C   UNL     1       6.604   7.815  16.919  0.00  0.00    +0.000 C 
ATOM     24  C   UNL     1       6.150   6.357  16.740  0.00  0.00    +0.000 C 
ENDBRANCH   8  19
TORSDOF 3
ENDMDL
MODEL 9
REMARK VINA RESULT:      -6.5      3.150      6.785
REMARK  Name = 
REMARK  3 active torsions:
REMARK  status: ('A' for Active; 'I' for Inactive)
REMARK    1  A    between atoms: C_2  and  C_3
REMARK    2  A    between atoms: C_6  and  C_7
REMARK    3  A    between atoms: C_14  and  N_15
REMARK                            x       y       z     vdW  Elec       q    Type
REMARK                         _______ _______ _______ _____ _____    ______ ____
ROOT
ATOM      1  C   UNL     1       3.559   7.125  17.418  0.00  0.00    +0.000 A 
ATOM      2  C   UNL     1       4.363   7.635  16.411  0.00  0.00    +0.000 A 
ATOM      3  S   UNL     1       5.339   6.437  15.657  0.00  0.00    +0.000 S 
ATOM      4  C   UNL     1       4.695   5.230  16.651  0.00  0.00    +0.000 A 
ATOM      5  C   UNL     1       5.090   3.851  16.615  0.00  0.00    +0.000 A 
ATOM      6  O   UNL     1       5.922   3.350  15.863  0.00  0.00    +0.000 OA
ATOM      7  C   UNL     1       4.401   2.996  17.613  0.00  0.00    +0.000 A 
ATOM      8  C   UNL     1       3.468   3.519  18.434  0.00  0.00    +0.000 A 
ATOM      9  O   UNL     1       3.121   4.878  18.387  0.00  0.00    +0.000 OA
ATOM     10  C   UNL     1       3.750   5.709  17.519  0.00  0.00    +0.000 A 
ENDROOT
BRANCH   1  14
ATOM     11  C   UNL     1       0.881   9.541  19.732  0.00  0.00    +0.000 A 
ATOM     12  C   UNL     1       1.253   9.935  18.445  0.00  0.00    +0.000 A 
ATOM     13  C   UNL     1       2.156   9.161  17.708  0.00  0.00    +0.000 A 
ATOM     14  C   UNL     1       2.688   7.975  18.235  0.00  0.00    +0.000 A 
ATOM     15  C   UNL     1       2.319   7.599  19.536  0.00  0.00    +0.000 A 
ATOM     16  C   UNL     1       1.425   8.378  20.281  0.00  0.00    +0.000 A 
BRANCH  11  18
ATOM     17  N   UNL     1      -0.827  10.955  21.076  0.00  0.00    +0.000 NA
ATOM     18  C   UNL     1      -0.067  10.317  20.476  0.00  0.00    +0.000 C 
ENDBRANCH  11  18
ENDBRANCH   1  14
BRANCH   8  19
ATOM     19  N   UNL     1       2.780   2.772  19.386  0.00  0.00    +0.000 N 
ATOM     20  C   UNL     1       1.369   2.362  19.231  0.00  0.00    +0.000 C 
ATOM     21  C   UNL     1       0.533   2.839  20.426  0.00  0.00    +0.000 C 
ATOM     22  O   UNL     1       1.090   2.388  21.672  0.00  0.00    +0.000 OA
ATOM     23  C   UNL     1       2.434   2.875  21.820  0.00  0.00    +0.000 C 
ATOM     24  C   UNL     1       3.342   2.366  20.688  0.00  0.00    +0.000 C 
ENDBRANCH   8  19
TORSDOF 3
ENDMDL
