MODEL 1
REMARK VINA RESULT:      -8.0      0.000      0.000
REMARK  Name = 
REMARK  6 active torsions:
REMARK  status: ('A' for Active; 'I' for Inactive)
REMARK    1  A    between atoms: C_1  and  C_2
REMARK    2  A    between atoms: C_7  and  S_8
REMARK    3  A    between atoms: S_8  and  C_11
REMARK    4  A    between atoms: C_11  and  C_12
REMARK    5  A    between atoms: C_12  and  C_13
REMARK    6  A    between atoms: N_18  and  C_19
REMARK                            x       y       z     vdW  Elec       q    Type
REMARK                         _______ _______ _______ _____ _____    ______ ____
ROOT
ATOM      1  S   UNL     1       1.729   3.536  20.571  0.00  0.00    +0.000 S 
ATOM      2  O   UNL     1       0.620   2.660  20.244  0.00  0.00    +0.000 OA
ATOM      3  O   UNL     1       2.638   3.213  21.651  0.00  0.00    +0.000 OA
ENDROOT
BRANCH   1  10
ATOM      4  C   UNL     1       7.704   4.909  14.766  0.00  0.00    +0.000 C 
ATOM      5  C   UNL     1       6.642   4.942  15.862  0.00  0.00    +0.000 C 
ATOM      6  S   UNL     1       5.174   4.049  15.272  0.00  0.00    +0.000 S 
ATOM      7  C   UNL     1       4.250   3.996  16.791  0.00  0.00    +0.000 A 
ATOM      8  C   UNL     1       2.865   3.805  16.706  0.00  0.00    +0.000 A 
ATOM      9  C   UNL     1       2.095   3.673  17.861  0.00  0.00    +0.000 A 
ATOM     10  C   UNL     1       2.720   3.716  19.108  0.00  0.00    +0.000 A 
ATOM     11  C   UNL     1       4.101   3.914  19.212  0.00  0.00    +0.000 A 
ATOM     12  C   UNL     1       4.868   4.052  18.049  0.00  0.00    +0.000 A 
ATOM     13  N   UNL     1       6.260   4.165  18.190  0.00  0.00    +0.000 N 
ATOM     14  C   UNL     1       7.164   4.382  17.181  0.00  0.00    +0.000 C 
ATOM     15  O   UNL     1       8.365   4.247  17.423  0.00  0.00    +0.000 OA
ATOM     16  H   UNL     1       6.681   3.974  19.092  0.00  0.00    +0.000 HD
ENDBRANCH   1  10
BRANCH   1  17
ATOM     17  C   UNL     1       1.068   5.163  20.858  0.00  0.00    +0.000 C 
BRANCH  17  18
ATOM     18  C   UNL     1       2.195   6.180  20.943  0.00  0.00    +0.000 C 
BRANCH  18  19
ATOM     19  C   UNL     1       1.995   7.302  19.950  0.00  0.00    +0.000 C 
ATOM     20  O   UNL     1       2.315   7.162  18.769  0.00  0.00    +0.000 OA
ATOM     21  N   UNL     1       1.402   8.455  20.427  0.00  0.00    +0.000 N 
ATOM     22  C   UNL     1       1.070   9.540  19.491  0.00  0.00    +0.000 C 
ATOM     23  C   UNL     1      -0.361  10.066  19.727  0.00  0.00    +0.000 C 
ATOM     24  N   UNL     1      -0.508  10.433  21.145  0.00  0.00    +0.000 N 
ATOM     25  C   UNL     1      -0.232   9.340  22.093  0.00  0.00    +0.000 C 
ATOM     26  C   UNL     1       1.187   8.792  21.846  0.00  0.00    +0.000 C 
BRANCH  24  27
ATOM     27  C   UNL     1      -1.227  11.544  21.544  0.00  0.00    +0.000 A 
ATOM     28  C   UNL     1      -1.918  12.362  20.642  0.00  0.00    +0.000 A 
ATOM     29  C   UNL     1      -2.572  13.529  21.061  0.00  0.00    +0.000 A 
ATOM     30  C   UNL     1      -2.544  13.903  22.398  0.00  0.00    +0.000 A 
ATOM     31  C   UNL     1      -1.874  13.106  23.319  0.00  0.00    +0.000 A 
ATOM     32  C   UNL     1      -1.228  11.940  22.892  0.00  0.00    +0.000 A 
ENDBRANCH  24  27
ENDBRANCH  18  19
ENDBRANCH  17  18
ENDBRANCH   1  17
TORSDOF 5
ENDMDL
MODEL 2
REMARK VINA RESULT:      -7.7      1.304      1.530
REMARK  Name = 
REMARK  6 active torsions:
REMARK  status: ('A' for Active; 'I' for Inactive)
REMARK    1  A    between atoms: C_1  and  C_2
REMARK    2  A    between atoms: C_7  and  S_8
REMARK    3  A    between atoms: S_8  and  C_11
REMARK    4  A    between atoms: C_11  and  C_12
REMARK    5  A    between atoms: C_12  and  C_13
REMARK    6  A    between atoms: N_18  and  C_19
REMARK                            x       y       z     vdW  Elec       q    Type
REMARK                         _______ _______ _______ _____ _____    ______ ____
ROOT
ATOM      1  S   UNL     1       1.774   4.453  20.617  0.00  0.00    +0.000 S 
ATOM      2  O   UNL     1       0.770   3.408  20.565  0.00  0.00    +0.000 OA
ATOM      3  O   UNL     1       2.652   4.583  21.762  0.00  0.00    +0.000 OA
ENDROOT
BRANCH   1  10
ATOM      4  C   UNL     1       7.277   5.209  14.259  0.00  0.00    +0.000 C 
ATOM      5  C   UNL     1       6.144   5.285  15.278  0.00  0.00    +0.000 C 
ATOM      6  S   UNL     1       5.507   3.607  15.562  0.00  0.00    +0.000 S 
ATOM      7  C   UNL     1       4.441   3.942  16.946  0.00  0.00    +0.000 A 
ATOM      8  C   UNL     1       3.406   3.036  17.207  0.00  0.00    +0.000 A 
ATOM      9  C   UNL     1       2.587   3.197  18.324  0.00  0.00    +0.000 A 
ATOM     10  C   UNL     1       2.819   4.265  19.193  0.00  0.00    +0.000 A 
ATOM     11  C   UNL     1       3.842   5.185  18.943  0.00  0.00    +0.000 A 
ATOM     12  C   UNL     1       4.658   5.020  17.817  0.00  0.00    +0.000 A 
ATOM     13  N   UNL     1       5.726   5.914  17.645  0.00  0.00    +0.000 N 
ATOM     14  C   UNL     1       6.583   5.960  16.573  0.00  0.00    +0.000 C 
ATOM     15  O   UNL     1       7.598   6.653  16.657  0.00  0.00    +0.000 OA
ATOM     16  H   UNL     1       5.982   6.530  18.408  0.00  0.00    +0.000 HD
ENDBRANCH   1  10
BRANCH   1  17
ATOM     17  C   UNL     1       0.951   6.009  20.358  0.00  0.00    +0.000 C 
BRANCH  17  18
ATOM     18  C   UNL     1       1.738   7.135  21.010  0.00  0.00    +0.000 C 
BRANCH  18  19
ATOM     19  C   UNL     1       1.512   8.446  20.294  0.00  0.00    +0.000 C 
ATOM     20  O   UNL     1       1.787   8.567  19.099  0.00  0.00    +0.000 OA
ATOM     21  N   UNL     1       0.948   9.468  21.033  0.00  0.00    +0.000 N 
ATOM     22  C   UNL     1       0.590  10.731  20.369  0.00  0.00    +0.000 C 
ATOM     23  C   UNL     1      -0.826  11.194  20.769  0.00  0.00    +0.000 C 
ATOM     24  N   UNL     1      -0.917  11.243  22.237  0.00  0.00    +0.000 N 
ATOM     25  C   UNL     1      -0.616   9.970  22.912  0.00  0.00    +0.000 C 
ATOM     26  C   UNL     1       0.788   9.487  22.499  0.00  0.00    +0.000 C 
BRANCH  24  27
ATOM     27  C   UNL     1      -1.610  12.241  22.896  0.00  0.00    +0.000 A 
ATOM     28  C   UNL     1      -1.047  13.490  23.185  0.00  0.00    +0.000 A 
ATOM     29  C   UNL     1      -1.742  14.456  23.925  0.00  0.00    +0.000 A 
ATOM     30  C   UNL     1      -3.021  14.187  24.397  0.00  0.00    +0.000 A 
ATOM     31  C   UNL     1      -3.610  12.959  24.117  0.00  0.00    +0.000 A 
ATOM     32  C   UNL     1      -2.910  12.003  23.373  0.00  0.00    +0.000 A 
ENDBRANCH  24  27
ENDBRANCH  18  19
ENDBRANCH  17  18
ENDBRANCH   1  17
TORSDOF 5
ENDMDL
MODEL 3
REMARK VINA RESULT:      -7.5      4.600     11.149
REMARK  Name = 
REMARK  6 active torsions:
REMARK  status: ('A' for Active; 'I' for Inactive)
REMARK    1  A    between atoms: C_1  and  C_2
REMARK    2  A    between atoms: C_7  and  S_8
REMARK    3  A    between atoms: S_8  and  C_11
REMARK    4  A    between atoms: C_11  and  C_12
REMARK    5  A    between atoms: C_12  and  C_13
REMARK    6  A    between atoms: N_18  and  C_19
REMARK                            x       y       z     vdW  Elec       q    Type
REMARK                         _______ _______ _______ _____ _____    ______ ____
ROOT
ATOM      1  S   UNL     1      -1.954  11.667  17.968  0.00  0.00    +0.000 S 
ATOM      2  O   UNL     1      -2.444  11.276  16.661  0.00  0.00    +0.000 OA
ATOM      3  O   UNL     1      -1.070  12.805  18.121  0.00  0.00    +0.000 OA
ENDROOT
BRANCH   1  10
ATOM      4  C   UNL     1      -7.440  13.483  24.124  0.00  0.00    +0.000 C 
ATOM      5  C   UNL     1      -6.376  12.935  23.178  0.00  0.00    +0.000 C 
ATOM      6  S   UNL     1      -7.086  12.825  21.509  0.00  0.00    +0.000 S 
ATOM      7  C   UNL     1      -5.604  12.450  20.599  0.00  0.00    +0.000 A 
ATOM      8  C   UNL     1      -5.745  11.836  19.348  0.00  0.00    +0.000 A 
ATOM      9  C   UNL     1      -4.628  11.590  18.549  0.00  0.00    +0.000 A 
ATOM     10  C   UNL     1      -3.366  11.978  19.000  0.00  0.00    +0.000 A 
ATOM     11  C   UNL     1      -3.206  12.585  20.250  0.00  0.00    +0.000 A 
ATOM     12  C   UNL     1      -4.330  12.824  21.050  0.00  0.00    +0.000 A 
ATOM     13  N   UNL     1      -4.140  13.510  22.260  0.00  0.00    +0.000 N 
ATOM     14  C   UNL     1      -5.100  13.770  23.206  0.00  0.00    +0.000 C 
ATOM     15  O   UNL     1      -4.838  14.562  24.113  0.00  0.00    +0.000 OA
ATOM     16  H   UNL     1      -3.249  13.958  22.438  0.00  0.00    +0.000 HD
ENDBRANCH   1  10
BRANCH   1  17
ATOM     17  C   UNL     1      -1.175  10.246  18.703  0.00  0.00    +0.000 C 
BRANCH  17  18
ATOM     18  C   UNL     1      -0.232  10.679  19.814  0.00  0.00    +0.000 C 
BRANCH  18  19
ATOM     19  C   UNL     1       0.359   9.484  20.526  0.00  0.00    +0.000 C 
ATOM     20  O   UNL     1      -0.079   9.121  21.618  0.00  0.00    +0.000 OA
ATOM     21  N   UNL     1       1.372   8.811  19.871  0.00  0.00    +0.000 N 
ATOM     22  C   UNL     1       1.911   7.571  20.450  0.00  0.00    +0.000 C 
ATOM     23  C   UNL     1       2.033   6.460  19.387  0.00  0.00    +0.000 C 
ATOM     24  N   UNL     1       2.807   6.973  18.245  0.00  0.00    +0.000 N 
ATOM     25  C   UNL     1       2.248   8.183  17.620  0.00  0.00    +0.000 C 
ATOM     26  C   UNL     1       2.100   9.290  18.682  0.00  0.00    +0.000 C 
BRANCH  24  27
ATOM     27  C   UNL     1       3.718   6.187  17.565  0.00  0.00    +0.000 A 
ATOM     28  C   UNL     1       4.775   6.725  16.822  0.00  0.00    +0.000 A 
ATOM     29  C   UNL     1       5.637   5.911  16.074  0.00  0.00    +0.000 A 
ATOM     30  C   UNL     1       5.453   4.534  16.052  0.00  0.00    +0.000 A 
ATOM     31  C   UNL     1       4.417   3.970  16.788  0.00  0.00    +0.000 A 
ATOM     32  C   UNL     1       3.565   4.791  17.536  0.00  0.00    +0.000 A 
ENDBRANCH  24  27
ENDBRANCH  18  19
ENDBRANCH  17  18
ENDBRANCH   1  17
TORSDOF 5
ENDMDL
MODEL 4
REMARK VINA RESULT:      -7.3      6.096      7.908
REMARK  Name = 
REMARK  6 active torsions:
REMARK  status: ('A' for Active; 'I' for Inactive)
REMARK    1  A    between atoms: C_1  and  C_2
REMARK    2  A    between atoms: C_7  and  S_8
REMARK    3  A    between atoms: S_8  and  C_11
REMARK    4  A    between atoms: C_11  and  C_12
REMARK    5  A    between atoms: C_12  and  C_13
REMARK    6  A    between atoms: N_18  and  C_19
REMARK                            x       y       z     vdW  Elec       q    Type
REMARK                         _______ _______ _______ _____ _____    ______ ____
ROOT
ATOM      1  S   UNL     1       0.630  11.064  20.039  0.00  0.00    +0.000 S 
ATOM      2  O   UNL     1      -0.684  11.165  19.435  0.00  0.00    +0.000 OA
ATOM      3  O   UNL     1       0.793  11.129  21.478  0.00  0.00    +0.000 OA
ENDROOT
BRANCH   1  10
ATOM      4  C   UNL     1       3.988   3.354  19.286  0.00  0.00    +0.000 C 
ATOM      5  C   UNL     1       3.618   4.807  19.570  0.00  0.00    +0.000 C 
ATOM      6  S   UNL     1       3.103   5.588  18.012  0.00  0.00    +0.000 S 
ATOM      7  C   UNL     1       2.478   7.122  18.661  0.00  0.00    +0.000 A 
ATOM      8  C   UNL     1       2.396   8.215  17.789  0.00  0.00    +0.000 A 
ATOM      9  C   UNL     1       1.839   9.420  18.214  0.00  0.00    +0.000 A 
ATOM     10  C   UNL     1       1.346   9.525  19.515  0.00  0.00    +0.000 A 
ATOM     11  C   UNL     1       1.427   8.447  20.402  0.00  0.00    +0.000 A 
ATOM     12  C   UNL     1       1.992   7.241  19.972  0.00  0.00    +0.000 A 
ATOM     13  N   UNL     1       1.980   6.156  20.863  0.00  0.00    +0.000 N 
ATOM     14  C   UNL     1       2.550   4.925  20.652  0.00  0.00    +0.000 C 
ATOM     15  O   UNL     1       2.278   4.007  21.428  0.00  0.00    +0.000 OA
ATOM     16  H   UNL     1       1.422   6.217  21.707  0.00  0.00    +0.000 HD
ENDBRANCH   1  10
BRANCH   1  17
ATOM     17  C   UNL     1       1.665  12.307  19.298  0.00  0.00    +0.000 C 
BRANCH  17  18
ATOM     18  C   UNL     1       1.213  13.693  19.730  0.00  0.00    +0.000 C 
BRANCH  18  19
ATOM     19  C   UNL     1       2.163  14.286  20.746  0.00  0.00    +0.000 C 
ATOM     20  O   UNL     1       1.940  14.179  21.952  0.00  0.00    +0.000 OA
ATOM     21  N   UNL     1       3.295  14.903  20.250  0.00  0.00    +0.000 N 
ATOM     22  C   UNL     1       4.319  15.396  21.184  0.00  0.00    +0.000 C 
ATOM     23  C   UNL     1       5.735  14.979  20.736  0.00  0.00    +0.000 C 
ATOM     24  N   UNL     1       5.941  15.406  19.342  0.00  0.00    +0.000 N 
ATOM     25  C   UNL     1       4.955  14.875  18.387  0.00  0.00    +0.000 C 
ATOM     26  C   UNL     1       3.535  15.265  18.841  0.00  0.00    +0.000 C 
BRANCH  24  27
ATOM     27  C   UNL     1       7.152  15.902  18.899  0.00  0.00    +0.000 A 
ATOM     28  C   UNL     1       7.450  17.270  18.883  0.00  0.00    +0.000 A 
ATOM     29  C   UNL     1       8.654  17.754  18.353  0.00  0.00    +0.000 A 
ATOM     30  C   UNL     1       9.587  16.873  17.822  0.00  0.00    +0.000 A 
ATOM     31  C   UNL     1       9.324  15.507  17.833  0.00  0.00    +0.000 A 
ATOM     32  C   UNL     1       8.121  15.034  18.369  0.00  0.00    +0.000 A 
ENDBRANCH  24  27
ENDBRANCH  18  19
ENDBRANCH  17  18
ENDBRANCH   1  17
TORSDOF 5
ENDMDL
MODEL 5
REMARK VINA RESULT:      -7.3      3.198      4.638
REMARK  Name = 
REMARK  6 active torsions:
REMARK  status: ('A' for Active; 'I' for Inactive)
REMARK    1  A    between atoms: C_1  and  C_2
REMARK    2  A    between atoms: C_7  and  S_8
REMARK    3  A    between atoms: S_8  and  C_11
REMARK    4  A    between atoms: C_11  and  C_12
REMARK    5  A    between atoms: C_12  and  C_13
REMARK    6  A    between atoms: N_18  and  C_19
REMARK                            x       y       z     vdW  Elec       q    Type
REMARK                         _______ _______ _______ _____ _____    ______ ____
ROOT
ATOM      1  S   UNL     1       0.654   8.501  21.281  0.00  0.00    +0.000 S 
ATOM      2  O   UNL     1      -0.630   7.890  21.562  0.00  0.00    +0.000 OA
ATOM      3  O   UNL     1       1.470   9.042  22.349  0.00  0.00    +0.000 OA
ENDROOT
BRANCH   1  10
ATOM      4  C   UNL     1       5.458   3.996  15.998  0.00  0.00    +0.000 C 
ATOM      5  C   UNL     1       4.392   4.788  16.749  0.00  0.00    +0.000 C 
ATOM      6  S   UNL     1       4.267   4.133  18.438  0.00  0.00    +0.000 S 
ATOM      7  C   UNL     1       3.206   5.375  19.143  0.00  0.00    +0.000 A 
ATOM      8  C   UNL     1       2.480   5.039  20.292  0.00  0.00    +0.000 A 
ATOM      9  C   UNL     1       1.695   5.992  20.940  0.00  0.00    +0.000 A 
ATOM     10  C   UNL     1       1.651   7.295  20.441  0.00  0.00    +0.000 A 
ATOM     11  C   UNL     1       2.362   7.646  19.289  0.00  0.00    +0.000 A 
ATOM     12  C   UNL     1       3.145   6.684  18.641  0.00  0.00    +0.000 A 
ATOM     13  N   UNL     1       3.910   7.094  17.538  0.00  0.00    +0.000 N 
ATOM     14  C   UNL     1       4.675   6.287  16.733  0.00  0.00    +0.000 C 
ATOM     15  O   UNL     1       5.456   6.813  15.939  0.00  0.00    +0.000 OA
ATOM     16  H   UNL     1       4.013   8.085  17.350  0.00  0.00    +0.000 HD
ENDBRANCH   1  10
BRANCH   1  17
ATOM     17  C   UNL     1       0.393   9.778  20.069  0.00  0.00    +0.000 C 
BRANCH  17  18
ATOM     18  C   UNL     1       0.073  11.097  20.756  0.00  0.00    +0.000 C 
BRANCH  18  19
ATOM     19  C   UNL     1      -0.923  11.903  19.954  0.00  0.00    +0.000 C 
ATOM     20  O   UNL     1      -0.834  11.973  18.728  0.00  0.00    +0.000 OA
ATOM     21  N   UNL     1      -1.944  12.508  20.661  0.00  0.00    +0.000 N 
ATOM     22  C   UNL     1      -3.013  13.208  19.933  0.00  0.00    +0.000 C 
ATOM     23  C   UNL     1      -4.406  12.820  20.472  0.00  0.00    +0.000 C 
ATOM     24  N   UNL     1      -4.433  13.035  21.927  0.00  0.00    +0.000 N 
ATOM     25  C   UNL     1      -3.402  12.295  22.675  0.00  0.00    +0.000 C 
ATOM     26  C   UNL     1      -2.009  12.659  22.126  0.00  0.00    +0.000 C 
BRANCH  24  27
ATOM     27  C   UNL     1      -5.548  13.533  22.574  0.00  0.00    +0.000 A 
ATOM     28  C   UNL     1      -6.044  14.821  22.342  0.00  0.00    +0.000 A 
ATOM     29  C   UNL     1      -7.128  15.334  23.070  0.00  0.00    +0.000 A 
ATOM     30  C   UNL     1      -7.736  14.562  24.051  0.00  0.00    +0.000 A 
ATOM     31  C   UNL     1      -7.272  13.275  24.297  0.00  0.00    +0.000 A 
ATOM     32  C   UNL     1      -6.193  12.771  23.562  0.00  0.00    +0.000 A 
ENDBRANCH  24  27
ENDBRANCH  18  19
ENDBRANCH  17  18
ENDBRANCH   1  17
TORSDOF 5
ENDMDL
MODEL 6
REMARK VINA RESULT:      -7.2      1.516      1.922
REMARK  Name = 
REMARK  6 active torsions:
REMARK  status: ('A' for Active; 'I' for Inactive)
REMARK    1  A    between atoms: C_1  and  C_2
REMARK    2  A    between atoms: C_7  and  S_8
REMARK    3  A    between atoms: S_8  and  C_11
REMARK    4  A    between atoms: C_11  and  C_12
REMARK    5  A    between atoms: C_12  and  C_13
REMARK    6  A    between atoms: N_18  and  C_19
REMARK                            x       y       z     vdW  Elec       q    Type
REMARK                         _______ _______ _______ _____ _____    ______ ____
ROOT
ATOM      1  S   UNL     1       2.375   3.262  20.085  0.00  0.00    +0.000 S 
ATOM      2  O   UNL     1       1.667   2.237  19.342  0.00  0.00    +0.000 OA
ATOM      3  O   UNL     1       2.991   2.962  21.362  0.00  0.00    +0.000 OA
ENDROOT
BRANCH   1  10
ATOM      4  C   UNL     1       7.796   5.152  13.894  0.00  0.00    +0.000 C 
ATOM      5  C   UNL     1       6.934   4.551  15.000  0.00  0.00    +0.000 C 
ATOM      6  S   UNL     1       6.963   5.672  16.430  0.00  0.00    +0.000 S 
ATOM      7  C   UNL     1       5.699   4.901  17.416  0.00  0.00    +0.000 A 
ATOM      8  C   UNL     1       5.699   5.155  18.793  0.00  0.00    +0.000 A 
ATOM      9  C   UNL     1       4.688   4.647  19.608  0.00  0.00    +0.000 A 
ATOM     10  C   UNL     1       3.661   3.894  19.036  0.00  0.00    +0.000 A 
ATOM     11  C   UNL     1       3.649   3.623  17.664  0.00  0.00    +0.000 A 
ATOM     12  C   UNL     1       4.670   4.131  16.852  0.00  0.00    +0.000 A 
ATOM     13  N   UNL     1       4.580   3.909  15.468  0.00  0.00    +0.000 N 
ATOM     14  C   UNL     1       5.514   4.261  14.526  0.00  0.00    +0.000 C 
ATOM     15  O   UNL     1       5.205   4.195  13.335  0.00  0.00    +0.000 OA
ATOM     16  H   UNL     1       3.714   3.550  15.082  0.00  0.00    +0.000 HD
ENDBRANCH   1  10
BRANCH   1  17
ATOM     17  C   UNL     1       1.267   4.637  20.302  0.00  0.00    +0.000 C 
BRANCH  17  18
ATOM     18  C   UNL     1       2.025   5.843  20.835  0.00  0.00    +0.000 C 
BRANCH  18  19
ATOM     19  C   UNL     1       1.874   7.033  19.916  0.00  0.00    +0.000 C 
ATOM     20  O   UNL     1       2.053   6.918  18.703  0.00  0.00    +0.000 OA
ATOM     21  N   UNL     1       1.488   8.223  20.501  0.00  0.00    +0.000 N 
ATOM     22  C   UNL     1       1.207   9.391  19.651  0.00  0.00    +0.000 C 
ATOM     23  C   UNL     1      -0.112  10.079  20.059  0.00  0.00    +0.000 C 
ATOM     24  N   UNL     1      -0.067  10.384  21.499  0.00  0.00    +0.000 N 
ATOM     25  C   UNL     1       0.158   9.215  22.366  0.00  0.00    +0.000 C 
ATOM     26  C   UNL     1       1.462   8.507  21.947  0.00  0.00    +0.000 C 
BRANCH  24  27
ATOM     27  C   UNL     1      -0.591  11.552  22.017  0.00  0.00    +0.000 A 
ATOM     28  C   UNL     1      -1.719  11.573  22.846  0.00  0.00    +0.000 A 
ATOM     29  C   UNL     1      -2.281  12.777  23.294  0.00  0.00    +0.000 A 
ATOM     30  C   UNL     1      -1.722  13.991  22.914  0.00  0.00    +0.000 A 
ATOM     31  C   UNL     1      -0.595  14.002  22.099  0.00  0.00    +0.000 A 
ATOM     32  C   UNL     1      -0.039  12.795  21.662  0.00  0.00    +0.000 A 
ENDBRANCH  24  27
ENDBRANCH  18  19
ENDBRANCH  17  18
ENDBRANCH   1  17
TORSDOF 5
ENDMDL
MODEL 7
REMARK VINA RESULT:      -7.2      4.947     10.956
REMARK  Name = 
REMARK  6 active torsions:
REMARK  status: ('A' for Active; 'I' for Inactive)
REMARK    1  A    between atoms: C_1  and  C_2
REMARK    2  A    between atoms: C_7  and  S_8
REMARK    3  A    between atoms: S_8  and  C_11
REMARK    4  A    between atoms: C_11  and  C_12
REMARK    5  A    between atoms: C_12  and  C_13
REMARK    6  A    between atoms: N_18  and  C_19
REMARK                            x       y       z     vdW  Elec       q    Type
REMARK                         _______ _______ _______ _____ _____    ______ ____
ROOT
ATOM      1  S   UNL     1       0.525  14.517  20.181  0.00  0.00    +0.000 S 
ATOM      2  O   UNL     1       0.010  14.353  18.836  0.00  0.00    +0.000 OA
ATOM      3  O   UNL     1       1.072  15.786  20.618  0.00  0.00    +0.000 OA
ENDROOT
BRANCH   1  10
ATOM      4  C   UNL     1      -6.714  12.606  24.084  0.00  0.00    +0.000 C 
ATOM      5  C   UNL     1      -5.534  13.198  23.318  0.00  0.00    +0.000 C 
ATOM      6  S   UNL     1      -4.032  12.991  24.319  0.00  0.00    +0.000 S 
ATOM      7  C   UNL     1      -2.822  13.485  23.112  0.00  0.00    +0.000 A 
ATOM      8  C   UNL     1      -1.572  13.914  23.578  0.00  0.00    +0.000 A 
ATOM      9  C   UNL     1      -0.554  14.236  22.682  0.00  0.00    +0.000 A 
ATOM     10  C   UNL     1      -0.784  14.112  21.311  0.00  0.00    +0.000 A 
ATOM     11  C   UNL     1      -2.028  13.693  20.828  0.00  0.00    +0.000 A 
ATOM     12  C   UNL     1      -3.049  13.376  21.732  0.00  0.00    +0.000 A 
ATOM     13  N   UNL     1      -4.255  12.880  21.213  0.00  0.00    +0.000 N 
ATOM     14  C   UNL     1      -5.389  12.587  21.929  0.00  0.00    +0.000 C 
ATOM     15  O   UNL     1      -6.294  11.961  21.374  0.00  0.00    +0.000 OA
ATOM     16  H   UNL     1      -4.296  12.605  20.238  0.00  0.00    +0.000 HD
ENDBRANCH   1  10
BRANCH   1  17
ATOM     17  C   UNL     1       1.748  13.253  20.452  0.00  0.00    +0.000 C 
BRANCH  17  18
ATOM     18  C   UNL     1       1.094  11.880  20.450  0.00  0.00    +0.000 C 
BRANCH  18  19
ATOM     19  C   UNL     1       1.396  11.134  19.170  0.00  0.00    +0.000 C 
ATOM     20  O   UNL     1       1.723  11.741  18.150  0.00  0.00    +0.000 OA
ATOM     21  N   UNL     1       1.326   9.755  19.225  0.00  0.00    +0.000 N 
ATOM     22  C   UNL     1       1.723   8.962  18.051  0.00  0.00    +0.000 C 
ATOM     23  C   UNL     1       2.649   7.795  18.449  0.00  0.00    +0.000 C 
ATOM     24  N   UNL     1       1.999   7.008  19.510  0.00  0.00    +0.000 N 
ATOM     25  C   UNL     1       1.647   7.779  20.715  0.00  0.00    +0.000 C 
ATOM     26  C   UNL     1       0.742   8.963  20.323  0.00  0.00    +0.000 C 
BRANCH  24  27
ATOM     27  C   UNL     1       2.084   5.630  19.558  0.00  0.00    +0.000 A 
ATOM     28  C   UNL     1       2.254   4.843  18.413  0.00  0.00    +0.000 A 
ATOM     29  C   UNL     1       2.255   3.442  18.477  0.00  0.00    +0.000 A 
ATOM     30  C   UNL     1       2.082   2.800  19.697  0.00  0.00    +0.000 A 
ATOM     31  C   UNL     1       1.922   3.555  20.853  0.00  0.00    +0.000 A 
ATOM     32  C   UNL     1       1.926   4.953  20.778  0.00  0.00    +0.000 A 
ENDBRANCH  24  27
ENDBRANCH  18  19
ENDBRANCH  17  18
ENDBRANCH   1  17
TORSDOF 5
ENDMDL
MODEL 8
REMARK VINA RESULT:      -7.2      2.997      4.580
REMARK  Name = 
REMARK  6 active torsions:
REMARK  status: ('A' for Active; 'I' for Inactive)
REMARK    1  A    between atoms: C_1  and  C_2
REMARK    2  A    between atoms: C_7  and  S_8
REMARK    3  A    between atoms: S_8  and  C_11
REMARK    4  A    between atoms: C_11  and  C_12
REMARK    5  A    between atoms: C_12  and  C_13
REMARK    6  A    between atoms: N_18  and  C_19
REMARK                            x       y       z     vdW  Elec       q    Type
REMARK                         _______ _______ _______ _____ _____    ______ ____
ROOT
ATOM      1  S   UNL     1       0.765   8.457  21.211  0.00  0.00    +0.000 S 
ATOM      2  O   UNL     1      -0.531   7.870  21.490  0.00  0.00    +0.000 OA
ATOM      3  O   UNL     1       1.593   8.974  22.283  0.00  0.00    +0.000 OA
ENDROOT
BRANCH   1  10
ATOM      4  C   UNL     1       5.516   3.908  15.918  0.00  0.00    +0.000 C 
ATOM      5  C   UNL     1       4.463   4.720  16.667  0.00  0.00    +0.000 C 
ATOM      6  S   UNL     1       4.282   4.031  18.338  0.00  0.00    +0.000 S 
ATOM      7  C   UNL     1       3.251   5.293  19.050  0.00  0.00    +0.000 A 
ATOM      8  C   UNL     1       2.491   4.957  20.178  0.00  0.00    +0.000 A 
ATOM      9  C   UNL     1       1.726   5.922  20.832  0.00  0.00    +0.000 A 
ATOM     10  C   UNL     1       1.737   7.236  20.363  0.00  0.00    +0.000 A 
ATOM     11  C   UNL     1       2.482   7.589  19.233  0.00  0.00    +0.000 A 
ATOM     12  C   UNL     1       3.244   6.614  18.578  0.00  0.00    +0.000 A 
ATOM     13  N   UNL     1       4.045   7.023  17.499  0.00  0.00    +0.000 N 
ATOM     14  C   UNL     1       4.798   6.207  16.691  0.00  0.00    +0.000 C 
ATOM     15  O   UNL     1       5.612   6.724  15.924  0.00  0.00    +0.000 OA
ATOM     16  H   UNL     1       4.185   8.013  17.336  0.00  0.00    +0.000 HD
ENDBRANCH   1  10
BRANCH   1  17
ATOM     17  C   UNL     1       0.529   9.747  20.008  0.00  0.00    +0.000 C 
BRANCH  17  18
ATOM     18  C   UNL     1      -0.558  10.704  20.470  0.00  0.00    +0.000 C 
BRANCH  18  19
ATOM     19  C   UNL     1       0.032  11.900  21.182  0.00  0.00    +0.000 C 
ATOM     20  O   UNL     1       1.210  12.216  21.010  0.00  0.00    +0.000 OA
ATOM     21  N   UNL     1      -0.823  12.627  21.987  0.00  0.00    +0.000 N 
ATOM     22  C   UNL     1      -0.346  13.869  22.614  0.00  0.00    +0.000 C 
ATOM     23  C   UNL     1      -1.367  15.013  22.443  0.00  0.00    +0.000 C 
ATOM     24  N   UNL     1      -2.679  14.560  22.933  0.00  0.00    +0.000 N 
ATOM     25  C   UNL     1      -3.194  13.349  22.274  0.00  0.00    +0.000 C 
ATOM     26  C   UNL     1      -2.168  12.208  22.419  0.00  0.00    +0.000 C 
BRANCH  24  27
ATOM     27  C   UNL     1      -3.530  15.398  23.629  0.00  0.00    +0.000 A 
ATOM     28  C   UNL     1      -4.922  15.349  23.488  0.00  0.00    +0.000 A 
ATOM     29  C   UNL     1      -5.760  16.263  24.142  0.00  0.00    +0.000 A 
ATOM     30  C   UNL     1      -5.216  17.251  24.953  0.00  0.00    +0.000 A 
ATOM     31  C   UNL     1      -3.838  17.318  25.121  0.00  0.00    +0.000 A 
ATOM     32  C   UNL     1      -3.010  16.398  24.467  0.00  0.00    +0.000 A 
ENDBRANCH  24  27
ENDBRANCH  18  19
ENDBRANCH  17  18
ENDBRANCH   1  17
TORSDOF 5
ENDMDL
MODEL 9
REMARK VINA RESULT:      -7.2      3.474      5.820
REMARK  Name = 
REMARK  6 active torsions:
REMARK  status: ('A' for Active; 'I' for Inactive)
REMARK    1  A    between atoms: C_1  and  C_2
REMARK    2  A    between atoms: C_7  and  S_8
REMARK    3  A    between atoms: S_8  and  C_11
REMARK    4  A    between atoms: C_11  and  C_12
REMARK    5  A    between atoms: C_12  and  C_13
REMARK    6  A    between atoms: N_18  and  C_19
REMARK                            x       y       z     vdW  Elec       q    Type
REMARK                         _______ _______ _______ _____ _____    ______ ____
ROOT
ATOM      1  S   UNL     1       0.319  10.767  20.273  0.00  0.00    +0.000 S 
ATOM      2  O   UNL     1      -0.854  10.967  19.444  0.00  0.00    +0.000 OA
ATOM      3  O   UNL     1       0.192  10.564  21.702  0.00  0.00    +0.000 OA
ENDROOT
BRANCH   1  10
ATOM      4  C   UNL     1       4.425   3.513  18.931  0.00  0.00    +0.000 C 
ATOM      5  C   UNL     1       3.908   4.891  19.335  0.00  0.00    +0.000 C 
ATOM      6  S   UNL     1       3.366   5.767  17.839  0.00  0.00    +0.000 S 
ATOM      7  C   UNL     1       2.577   7.165  18.604  0.00  0.00    +0.000 A 
ATOM      8  C   UNL     1       2.415   8.325  17.835  0.00  0.00    +0.000 A 
ATOM      9  C   UNL     1       1.733   9.427  18.349  0.00  0.00    +0.000 A 
ATOM     10  C   UNL     1       1.194   9.360  19.635  0.00  0.00    +0.000 A 
ATOM     11  C   UNL     1       1.353   8.213  20.420  0.00  0.00    +0.000 A 
ATOM     12  C   UNL     1       2.044   7.112  19.901  0.00  0.00    +0.000 A 
ATOM     13  N   UNL     1       2.111   5.950  20.685  0.00  0.00    +0.000 N 
ATOM     14  C   UNL     1       2.803   4.803  20.382  0.00  0.00    +0.000 C 
ATOM     15  O   UNL     1       2.598   3.793  21.059  0.00  0.00    +0.000 OA
ATOM     16  H   UNL     1       1.526   5.876  21.509  0.00  0.00    +0.000 HD
ENDBRANCH   1  10
BRANCH   1  17
ATOM     17  C   UNL     1       1.421  12.136  19.993  0.00  0.00    +0.000 C 
BRANCH  17  18
ATOM     18  C   UNL     1       1.224  13.197  21.065  0.00  0.00    +0.000 C 
BRANCH  18  19
ATOM     19  C   UNL     1       0.174  14.202  20.652  0.00  0.00    +0.000 C 
ATOM     20  O   UNL     1       0.406  15.027  19.767  0.00  0.00    +0.000 OA
ATOM     21  N   UNL     1      -1.052  14.114  21.283  0.00  0.00    +0.000 N 
ATOM     22  C   UNL     1      -2.156  14.983  20.846  0.00  0.00    +0.000 C 
ATOM     23  C   UNL     1      -3.465  14.185  20.675  0.00  0.00    +0.000 C 
ATOM     24  N   UNL     1      -3.740  13.446  21.918  0.00  0.00    +0.000 N 
ATOM     25  C   UNL     1      -2.666  12.530  22.337  0.00  0.00    +0.000 C 
ATOM     26  C   UNL     1      -1.349  13.315  22.486  0.00  0.00    +0.000 C 
BRANCH  24  27
ATOM     27  C   UNL     1      -5.021  13.301  22.416  0.00  0.00    +0.000 A 
ATOM     28  C   UNL     1      -5.281  12.866  23.721  0.00  0.00    +0.000 A 
ATOM     29  C   UNL     1      -6.589  12.648  24.178  0.00  0.00    +0.000 A 
ATOM     30  C   UNL     1      -7.668  12.860  23.329  0.00  0.00    +0.000 A 
ATOM     31  C   UNL     1      -7.442  13.302  22.030  0.00  0.00    +0.000 A 
ATOM     32  C   UNL     1      -6.133  13.521  21.586  0.00  0.00    +0.000 A 
ENDBRANCH  24  27
ENDBRANCH  18  19
ENDBRANCH  17  18
ENDBRANCH   1  17
TORSDOF 5
ENDMDL
