MODEL 1
REMARK VINA RESULT:      -8.2      0.000      0.000
REMARK  Name = 
REMARK  10 active torsions:
REMARK  status: ('A' for Active; 'I' for Inactive)
REMARK    1  A    between atoms: C_1  and  O_2
REMARK    2  A    between atoms: O_2  and  C_3
REMARK    3  A    between atoms: C_6  and  N_7
REMARK    4  A    between atoms: C_8  and  C_9
REMARK    5  A    between atoms: C_9  and  C_10
REMARK    6  A    between atoms: N_14  and  C_15
REMARK    7  A    between atoms: C_18  and  S_19
REMARK    8  A    between atoms: S_19  and  C_20
REMARK    9  A    between atoms: C_20  and  C_21
REMARK   10  A    between atoms: C_26  and  C_27
REMARK                            x       y       z     vdW  Elec       q    Type
REMARK                         _______ _______ _______ _____ _____    ______ ____
ROOT
ATOM      1  N   UNL     1       3.585   5.691  17.597  0.00  0.00    +0.000 N 
ATOM      2  C   UNL     1       3.317   4.320  17.459  0.00  0.00    +0.000 A 
ATOM      3  N   UNL     1       4.250   3.768  16.698  0.00  0.00    +0.000 NA
ATOM      4  N   UNL     1       5.152   4.721  16.342  0.00  0.00    +0.000 NA
ATOM      5  C   UNL     1       4.771   5.855  16.881  0.00  0.00    +0.000 A 
ENDROOT
BRANCH   1   9
ATOM      6  C   UNL     1       1.437   8.746  19.638  0.00  0.00    +0.000 A 
ATOM      7  C   UNL     1       1.905   7.633  20.331  0.00  0.00    +0.000 A 
ATOM      8  C   UNL     1       2.611   6.622  19.665  0.00  0.00    +0.000 A 
ATOM      9  C   UNL     1       2.816   6.685  18.284  0.00  0.00    +0.000 A 
ATOM     10  C   UNL     1       2.266   7.770  17.586  0.00  0.00    +0.000 A 
ATOM     11  C   UNL     1       1.603   8.804  18.259  0.00  0.00    +0.000 A 
BRANCH   6  13
ATOM     12  C   UNL     1       0.711   9.400  21.780  0.00  0.00    +0.000 C 
ATOM     13  O   UNL     1       0.798   9.693  20.388  0.00  0.00    +0.000 OA
ENDBRANCH   6  13
ENDBRANCH   1   9
BRANCH   2  14
ATOM     14  C   UNL     1       2.069   3.594  17.874  0.00  0.00    +0.000 C 
BRANCH  14  15
ATOM     15  C   UNL     1       1.945   3.295  19.347  0.00  0.00    +0.000 A 
ATOM     16  C   UNL     1       0.934   3.592  20.248  0.00  0.00    +0.000 A 
ATOM     17  C   UNL     1       1.334   3.139  21.534  0.00  0.00    +0.000 A 
ATOM     18  C   UNL     1       2.579   2.574  21.390  0.00  0.00    +0.000 A 
ATOM     19  N   UNL     1       2.938   2.655  20.069  0.00  0.00    +0.000 N 
ATOM     20  C   UNL     1       4.180   2.130  19.541  0.00  0.00    +0.000 C 
ENDBRANCH  14  15
ENDBRANCH   2  14
BRANCH   5  21
ATOM     21  S   UNL     1       5.746   7.295  16.821  0.00  0.00    +0.000 S 
BRANCH  21  22
ATOM     22  C   UNL     1       7.367   6.712  17.381  0.00  0.00    +0.000 C 
BRANCH  22  23
ATOM     23  C   UNL     1       8.100   7.765  18.195  0.00  0.00    +0.000 C 
ATOM     24  O   UNL     1       8.699   7.455  19.223  0.00  0.00    +0.000 OA
ATOM     25  N   UNL     1       7.988   9.029  17.658  0.00  0.00    +0.000 N 
ATOM     26  C   UNL     1       8.638  10.104  18.192  0.00  0.00    +0.000 A 
ATOM     27  N   UNL     1       9.635  10.135  19.036  0.00  0.00    +0.000 NA
ATOM     28  C   UNL     1       9.955  11.448  19.336  0.00  0.00    +0.000 A 
ATOM     29  C   UNL     1      11.060  11.714  20.291  0.00  0.00    +0.000 C 
ATOM     30  C   UNL     1       9.167  12.392  18.702  0.00  0.00    +0.000 A 
ATOM     31  S   UNL     1       8.052  11.614  17.654  0.00  0.00    +0.000 S 
ATOM     32  H   UNL     1       7.252   9.231  16.987  0.00  0.00    +0.000 HD
ENDBRANCH  22  23
ENDBRANCH  21  22
ENDBRANCH   5  21
TORSDOF 7
ENDMDL
MODEL 2
REMARK VINA RESULT:      -8.1      1.574      1.999
REMARK  Name = 
REMARK  10 active torsions:
REMARK  status: ('A' for Active; 'I' for Inactive)
REMARK    1  A    between atoms: C_1  and  O_2
REMARK    2  A    between atoms: O_2  and  C_3
REMARK    3  A    between atoms: C_6  and  N_7
REMARK    4  A    between atoms: C_8  and  C_9
REMARK    5  A    between atoms: C_9  and  C_10
REMARK    6  A    between atoms: N_14  and  C_15
REMARK    7  A    between atoms: C_18  and  S_19
REMARK    8  A    between atoms: S_19  and  C_20
REMARK    9  A    between atoms: C_20  and  C_21
REMARK   10  A    between atoms: C_26  and  C_27
REMARK                            x       y       z     vdW  Elec       q    Type
REMARK                         _______ _______ _______ _____ _____    ______ ____
ROOT
ATOM      1  N   UNL     1       5.152   5.275  17.562  0.00  0.00    +0.000 N 
ATOM      2  C   UNL     1       4.913   4.127  16.790  0.00  0.00    +0.000 A 
ATOM      3  N   UNL     1       6.069   3.633  16.374  0.00  0.00    +0.000 NA
ATOM      4  N   UNL     1       7.080   4.400  16.865  0.00  0.00    +0.000 NA
ATOM      5  C   UNL     1       6.544   5.363  17.577  0.00  0.00    +0.000 A 
ENDROOT
BRANCH   1   9
ATOM      6  C   UNL     1       2.196   7.791  19.307  0.00  0.00    +0.000 A 
ATOM      7  C   UNL     1       2.789   8.138  18.096  0.00  0.00    +0.000 A 
ATOM      8  C   UNL     1       3.764   7.316  17.516  0.00  0.00    +0.000 A 
ATOM      9  C   UNL     1       4.199   6.157  18.166  0.00  0.00    +0.000 A 
ATOM     10  C   UNL     1       3.654   5.865  19.425  0.00  0.00    +0.000 A 
ATOM     11  C   UNL     1       2.645   6.661  19.981  0.00  0.00    +0.000 A 
BRANCH   6  13
ATOM     12  C   UNL     1       0.844   9.664  18.850  0.00  0.00    +0.000 C 
ATOM     13  O   UNL     1       1.227   8.640  19.764  0.00  0.00    +0.000 OA
ENDBRANCH   6  13
ENDBRANCH   1   9
BRANCH   2  14
ATOM     14  C   UNL     1       3.587   3.634  16.284  0.00  0.00    +0.000 C 
BRANCH  14  15
ATOM     15  C   UNL     1       2.578   3.266  17.342  0.00  0.00    +0.000 A 
ATOM     16  C   UNL     1       1.371   3.856  17.684  0.00  0.00    +0.000 A 
ATOM     17  C   UNL     1       0.830   3.154  18.794  0.00  0.00    +0.000 A 
ATOM     18  C   UNL     1       1.716   2.151  19.105  0.00  0.00    +0.000 A 
ATOM     19  N   UNL     1       2.761   2.210  18.218  0.00  0.00    +0.000 N 
ATOM     20  C   UNL     1       3.872   1.282  18.223  0.00  0.00    +0.000 C 
ENDBRANCH  14  15
ENDBRANCH   2  14
BRANCH   5  21
ATOM     21  S   UNL     1       7.496   6.463  18.530  0.00  0.00    +0.000 S 
BRANCH  21  22
ATOM     22  C   UNL     1       7.534   7.959  17.509  0.00  0.00    +0.000 C 
BRANCH  22  23
ATOM     23  C   UNL     1       8.326   9.077  18.168  0.00  0.00    +0.000 C 
ATOM     24  O   UNL     1       9.048   8.844  19.135  0.00  0.00    +0.000 OA
ATOM     25  N   UNL     1       8.116  10.302  17.573  0.00  0.00    +0.000 N 
ATOM     26  C   UNL     1       8.793  11.422  17.962  0.00  0.00    +0.000 A 
ATOM     27  N   UNL     1       9.880  11.526  18.680  0.00  0.00    +0.000 NA
ATOM     28  C   UNL     1      10.195  12.862  18.862  0.00  0.00    +0.000 A 
ATOM     29  C   UNL     1      11.395  13.210  19.663  0.00  0.00    +0.000 C 
ATOM     30  C   UNL     1       9.313  13.747  18.270  0.00  0.00    +0.000 A 
ATOM     31  S   UNL     1       8.107  12.883  17.408  0.00  0.00    +0.000 S 
ATOM     32  H   UNL     1       7.303  10.446  16.982  0.00  0.00    +0.000 HD
ENDBRANCH  22  23
ENDBRANCH  21  22
ENDBRANCH   5  21
TORSDOF 7
ENDMDL
MODEL 3
REMARK VINA RESULT:      -8.0      4.068      7.686
REMARK  Name = 
REMARK  10 active torsions:
REMARK  status: ('A' for Active; 'I' for Inactive)
REMARK    1  A    between atoms: C_1  and  O_2
REMARK    2  A    between atoms: O_2  and  C_3
REMARK    3  A    between atoms: C_6  and  N_7
REMARK    4  A    between atoms: C_8  and  C_9
REMARK    5  A    between atoms: C_9  and  C_10
REMARK    6  A    between atoms: N_14  and  C_15
REMARK    7  A    between atoms: C_18  and  S_19
REMARK    8  A    between atoms: S_19  and  C_20
REMARK    9  A    between atoms: C_20  and  C_21
REMARK   10  A    between atoms: C_26  and  C_27
REMARK                            x       y       z     vdW  Elec       q    Type
REMARK                         _______ _______ _______ _____ _____    ______ ____
ROOT
ATOM      1  N   UNL     1       2.522   6.958  19.127  0.00  0.00    +0.000 N 
ATOM      2  C   UNL     1       2.075   6.299  20.283  0.00  0.00    +0.000 A 
ATOM      3  N   UNL     1       1.293   7.115  20.974  0.00  0.00    +0.000 NA
ATOM      4  N   UNL     1       1.182   8.294  20.305  0.00  0.00    +0.000 NA
ATOM      5  C   UNL     1       1.895   8.202  19.208  0.00  0.00    +0.000 A 
ENDROOT
BRANCH   1   9
ATOM      6  C   UNL     1       5.116   5.630  16.024  0.00  0.00    +0.000 A 
ATOM      7  C   UNL     1       4.135   4.782  16.533  0.00  0.00    +0.000 A 
ATOM      8  C   UNL     1       3.279   5.211  17.556  0.00  0.00    +0.000 A 
ATOM      9  C   UNL     1       3.425   6.481  18.122  0.00  0.00    +0.000 A 
ATOM     10  C   UNL     1       4.470   7.293  17.658  0.00  0.00    +0.000 A 
ATOM     11  C   UNL     1       5.294   6.881  16.603  0.00  0.00    +0.000 A 
BRANCH   6  13
ATOM     12  C   UNL     1       6.969   4.317  15.404  0.00  0.00    +0.000 C 
ATOM     13  O   UNL     1       5.869   5.128  15.000  0.00  0.00    +0.000 OA
ENDBRANCH   6  13
ENDBRANCH   1   9
BRANCH   2  14
ATOM     14  C   UNL     1       2.559   4.983  20.822  0.00  0.00    +0.000 C 
BRANCH  14  15
ATOM     15  C   UNL     1       2.057   3.757  20.103  0.00  0.00    +0.000 A 
ATOM     16  C   UNL     1       0.783   3.418  19.674  0.00  0.00    +0.000 A 
ATOM     17  C   UNL     1       0.835   2.120  19.099  0.00  0.00    +0.000 A 
ATOM     18  C   UNL     1       2.139   1.695  19.188  0.00  0.00    +0.000 A 
ATOM     19  N   UNL     1       2.876   2.689  19.778  0.00  0.00    +0.000 N 
ATOM     20  C   UNL     1       4.304   2.602  20.007  0.00  0.00    +0.000 C 
ENDBRANCH  14  15
ENDBRANCH   2  14
BRANCH   5  21
ATOM     21  S   UNL     1       1.880   9.429  17.975  0.00  0.00    +0.000 S 
BRANCH  21  22
ATOM     22  C   UNL     1       1.316  10.899  18.871  0.00  0.00    +0.000 C 
BRANCH  22  23
ATOM     23  C   UNL     1      -0.200  10.994  18.909  0.00  0.00    +0.000 C 
ATOM     24  O   UNL     1      -0.795  11.054  19.983  0.00  0.00    +0.000 OA
ATOM     25  N   UNL     1      -0.768  10.988  17.653  0.00  0.00    +0.000 N 
ATOM     26  C   UNL     1      -2.110  11.146  17.464  0.00  0.00    +0.000 A 
ATOM     27  N   UNL     1      -3.018  11.593  18.291  0.00  0.00    +0.000 NA
ATOM     28  C   UNL     1      -4.264  11.546  17.690  0.00  0.00    +0.000 A 
ATOM     29  C   UNL     1      -5.447  12.001  18.463  0.00  0.00    +0.000 C 
ATOM     30  C   UNL     1      -4.262  11.047  16.400  0.00  0.00    +0.000 A 
ATOM     31  S   UNL     1      -2.655  10.698  15.910  0.00  0.00    +0.000 S 
ATOM     32  H   UNL     1      -0.233  10.652  16.857  0.00  0.00    +0.000 HD
ENDBRANCH  22  23
ENDBRANCH  21  22
ENDBRANCH   5  21
TORSDOF 7
ENDMDL
MODEL 4
REMARK VINA RESULT:      -8.0      3.849      6.087
REMARK  Name = 
REMARK  10 active torsions:
REMARK  status: ('A' for Active; 'I' for Inactive)
REMARK    1  A    between atoms: C_1  and  O_2
REMARK    2  A    between atoms: O_2  and  C_3
REMARK    3  A    between atoms: C_6  and  N_7
REMARK    4  A    between atoms: C_8  and  C_9
REMARK    5  A    between atoms: C_9  and  C_10
REMARK    6  A    between atoms: N_14  and  C_15
REMARK    7  A    between atoms: C_18  and  S_19
REMARK    8  A    between atoms: S_19  and  C_20
REMARK    9  A    between atoms: C_20  and  C_21
REMARK   10  A    between atoms: C_26  and  C_27
REMARK                            x       y       z     vdW  Elec       q    Type
REMARK                         _______ _______ _______ _____ _____    ______ ____
ROOT
ATOM      1  N   UNL     1       2.960   6.048  19.340  0.00  0.00    +0.000 N 
ATOM      2  C   UNL     1       2.291   5.440  20.413  0.00  0.00    +0.000 A 
ATOM      3  N   UNL     1       1.439   6.305  20.942  0.00  0.00    +0.000 NA
ATOM      4  N   UNL     1       1.497   7.469  20.240  0.00  0.00    +0.000 NA
ATOM      5  C   UNL     1       2.384   7.318  19.285  0.00  0.00    +0.000 A 
ENDROOT
BRANCH   1   9
ATOM      6  C   UNL     1       6.086   4.599  16.840  0.00  0.00    +0.000 A 
ATOM      7  C   UNL     1       4.756   4.467  16.451  0.00  0.00    +0.000 A 
ATOM      8  C   UNL     1       3.721   4.939  17.270  0.00  0.00    +0.000 A 
ATOM      9  C   UNL     1       4.000   5.507  18.516  0.00  0.00    +0.000 A 
ATOM     10  C   UNL     1       5.338   5.558  18.931  0.00  0.00    +0.000 A 
ATOM     11  C   UNL     1       6.374   5.130  18.092  0.00  0.00    +0.000 A 
BRANCH   6  13
ATOM     12  C   UNL     1       7.015   4.800  14.686  0.00  0.00    +0.000 C 
ATOM     13  O   UNL     1       7.018   4.143  15.951  0.00  0.00    +0.000 OA
ENDBRANCH   6  13
ENDBRANCH   1   9
BRANCH   2  14
ATOM     14  C   UNL     1       2.615   4.121  21.054  0.00  0.00    +0.000 C 
BRANCH  14  15
ATOM     15  C   UNL     1       2.972   3.003  20.108  0.00  0.00    +0.000 A 
ATOM     16  C   UNL     1       4.171   2.337  19.906  0.00  0.00    +0.000 A 
ATOM     17  C   UNL     1       3.991   1.401  18.853  0.00  0.00    +0.000 A 
ATOM     18  C   UNL     1       2.686   1.514  18.435  0.00  0.00    +0.000 A 
ATOM     19  N   UNL     1       2.070   2.468  19.204  0.00  0.00    +0.000 N 
ATOM     20  C   UNL     1       0.675   2.833  19.066  0.00  0.00    +0.000 C 
ENDBRANCH  14  15
ENDBRANCH   2  14
BRANCH   5  21
ATOM     21  S   UNL     1       2.637   8.510  18.044  0.00  0.00    +0.000 S 
BRANCH  21  22
ATOM     22  C   UNL     1       1.011   9.295  17.896  0.00  0.00    +0.000 C 
BRANCH  22  23
ATOM     23  C   UNL     1       0.913  10.560  18.734  0.00  0.00    +0.000 C 
ATOM     24  O   UNL     1       0.063  10.659  19.617  0.00  0.00    +0.000 OA
ATOM     25  N   UNL     1       1.839  11.514  18.372  0.00  0.00    +0.000 N 
ATOM     26  C   UNL     1       1.972  12.690  19.052  0.00  0.00    +0.000 A 
ATOM     27  N   UNL     1       1.528  13.018  20.237  0.00  0.00    +0.000 NA
ATOM     28  C   UNL     1       1.863  14.332  20.515  0.00  0.00    +0.000 A 
ATOM     29  C   UNL     1       1.444  14.915  21.815  0.00  0.00    +0.000 C 
ATOM     30  C   UNL     1       2.557  14.975  19.507  0.00  0.00    +0.000 A 
ATOM     31  S   UNL     1       2.858  13.885  18.216  0.00  0.00    +0.000 S 
ATOM     32  H   UNL     1       2.295  11.459  17.466  0.00  0.00    +0.000 HD
ENDBRANCH  22  23
ENDBRANCH  21  22
ENDBRANCH   5  21
TORSDOF 7
ENDMDL
MODEL 5
REMARK VINA RESULT:      -7.9      3.862      7.663
REMARK  Name = 
REMARK  10 active torsions:
REMARK  status: ('A' for Active; 'I' for Inactive)
REMARK    1  A    between atoms: C_1  and  O_2
REMARK    2  A    between atoms: O_2  and  C_3
REMARK    3  A    between atoms: C_6  and  N_7
REMARK    4  A    between atoms: C_8  and  C_9
REMARK    5  A    between atoms: C_9  and  C_10
REMARK    6  A    between atoms: N_14  and  C_15
REMARK    7  A    between atoms: C_18  and  S_19
REMARK    8  A    between atoms: S_19  and  C_20
REMARK    9  A    between atoms: C_20  and  C_21
REMARK   10  A    between atoms: C_26  and  C_27
REMARK                            x       y       z     vdW  Elec       q    Type
REMARK                         _______ _______ _______ _____ _____    ______ ____
ROOT
ATOM      1  N   UNL     1       3.044   6.641  18.903  0.00  0.00    +0.000 N 
ATOM      2  C   UNL     1       2.671   5.858  20.007  0.00  0.00    +0.000 A 
ATOM      3  N   UNL     1       1.712   6.478  20.677  0.00  0.00    +0.000 NA
ATOM      4  N   UNL     1       1.411   7.643  20.043  0.00  0.00    +0.000 NA
ATOM      5  C   UNL     1       2.186   7.737  18.988  0.00  0.00    +0.000 A 
ENDROOT
BRANCH   1   9
ATOM      6  C   UNL     1       6.146   5.756  16.126  0.00  0.00    +0.000 A 
ATOM      7  C   UNL     1       6.306   6.778  17.058  0.00  0.00    +0.000 A 
ATOM      8  C   UNL     1       5.289   7.077  17.974  0.00  0.00    +0.000 A 
ATOM      9  C   UNL     1       4.073   6.389  17.938  0.00  0.00    +0.000 A 
ATOM     10  C   UNL     1       3.893   5.421  16.940  0.00  0.00    +0.000 A 
ATOM     11  C   UNL     1       4.928   5.090  16.057  0.00  0.00    +0.000 A 
BRANCH   6  13
ATOM     12  C   UNL     1       6.974   4.582  14.260  0.00  0.00    +0.000 C 
ATOM     13  O   UNL     1       7.214   5.520  15.307  0.00  0.00    +0.000 OA
ENDBRANCH   6  13
ENDBRANCH   1   9
BRANCH   2  14
ATOM     14  C   UNL     1       3.370   4.635  20.529  0.00  0.00    +0.000 C 
BRANCH  14  15
ATOM     15  C   UNL     1       3.235   3.393  19.684  0.00  0.00    +0.000 A 
ATOM     16  C   UNL     1       4.183   2.684  18.962  0.00  0.00    +0.000 A 
ATOM     17  C   UNL     1       3.526   1.618  18.289  0.00  0.00    +0.000 A 
ATOM     18  C   UNL     1       2.194   1.698  18.616  0.00  0.00    +0.000 A 
ATOM     19  N   UNL     1       2.023   2.758  19.470  0.00  0.00    +0.000 N 
ATOM     20  C   UNL     1       0.748   3.127  20.048  0.00  0.00    +0.000 C 
ENDBRANCH  14  15
ENDBRANCH   2  14
BRANCH   5  21
ATOM     21  S   UNL     1       2.000   8.994  17.799  0.00  0.00    +0.000 S 
BRANCH  21  22
ATOM     22  C   UNL     1       1.597  10.447  18.802  0.00  0.00    +0.000 C 
BRANCH  22  23
ATOM     23  C   UNL     1       0.096  10.650  18.931  0.00  0.00    +0.000 C 
ATOM     24  O   UNL     1      -0.425  10.768  20.038  0.00  0.00    +0.000 OA
ATOM     25  N   UNL     1      -0.548  10.664  17.713  0.00  0.00    +0.000 N 
ATOM     26  C   UNL     1      -1.886  10.913  17.603  0.00  0.00    +0.000 A 
ATOM     27  N   UNL     1      -2.707  11.435  18.476  0.00  0.00    +0.000 NA
ATOM     28  C   UNL     1      -3.988  11.467  17.953  0.00  0.00    +0.000 A 
ATOM     29  C   UNL     1      -5.087  12.016  18.787  0.00  0.00    +0.000 C 
ATOM     30  C   UNL     1      -4.102  10.949  16.676  0.00  0.00    +0.000 A 
ATOM     31  S   UNL     1      -2.557  10.480  16.095  0.00  0.00    +0.000 S 
ATOM     32  H   UNL     1      -0.089  10.279  16.893  0.00  0.00    +0.000 HD
ENDBRANCH  22  23
ENDBRANCH  21  22
ENDBRANCH   5  21
TORSDOF 7
ENDMDL
MODEL 6
REMARK VINA RESULT:      -7.9      1.588      1.929
REMARK  Name = 
REMARK  10 active torsions:
REMARK  status: ('A' for Active; 'I' for Inactive)
REMARK    1  A    between atoms: C_1  and  O_2
REMARK    2  A    between atoms: O_2  and  C_3
REMARK    3  A    between atoms: C_6  and  N_7
REMARK    4  A    between atoms: C_8  and  C_9
REMARK    5  A    between atoms: C_9  and  C_10
REMARK    6  A    between atoms: N_14  and  C_15
REMARK    7  A    between atoms: C_18  and  S_19
REMARK    8  A    between atoms: S_19  and  C_20
REMARK    9  A    between atoms: C_20  and  C_21
REMARK   10  A    between atoms: C_26  and  C_27
REMARK                            x       y       z     vdW  Elec       q    Type
REMARK                         _______ _______ _______ _____ _____    ______ ____
ROOT
ATOM      1  N   UNL     1       5.344   5.284  17.546  0.00  0.00    +0.000 N 
ATOM      2  C   UNL     1       5.239   4.129  16.756  0.00  0.00    +0.000 A 
ATOM      3  N   UNL     1       6.450   3.744  16.384  0.00  0.00    +0.000 NA
ATOM      4  N   UNL     1       7.369   4.592  16.921  0.00  0.00    +0.000 NA
ATOM      5  C   UNL     1       6.721   5.495  17.618  0.00  0.00    +0.000 A 
ENDROOT
BRANCH   1   9
ATOM      6  C   UNL     1       2.338   7.741  19.291  0.00  0.00    +0.000 A 
ATOM      7  C   UNL     1       2.790   6.604  19.955  0.00  0.00    +0.000 A 
ATOM      8  C   UNL     1       3.778   5.789  19.386  0.00  0.00    +0.000 A 
ATOM      9  C   UNL     1       4.293   6.072  18.118  0.00  0.00    +0.000 A 
ATOM     10  C   UNL     1       3.768   7.172  17.425  0.00  0.00    +0.000 A 
ATOM     11  C   UNL     1       2.816   8.013  18.014  0.00  0.00    +0.000 A 
BRANCH   6  13
ATOM     12  C   UNL     1       1.273   8.198  21.340  0.00  0.00    +0.000 C 
ATOM     13  O   UNL     1       1.403   8.489  19.951  0.00  0.00    +0.000 OA
ENDBRANCH   6  13
ENDBRANCH   1   9
BRANCH   2  14
ATOM     14  C   UNL     1       3.984   3.527  16.193  0.00  0.00    +0.000 C 
BRANCH  14  15
ATOM     15  C   UNL     1       2.881   3.261  17.186  0.00  0.00    +0.000 A 
ATOM     16  C   UNL     1       1.695   3.939  17.424  0.00  0.00    +0.000 A 
ATOM     17  C   UNL     1       1.033   3.312  18.513  0.00  0.00    +0.000 A 
ATOM     18  C   UNL     1       1.827   2.266  18.917  0.00  0.00    +0.000 A 
ATOM     19  N   UNL     1       2.932   2.227  18.105  0.00  0.00    +0.000 N 
ATOM     20  C   UNL     1       3.977   1.230  18.218  0.00  0.00    +0.000 C 
ENDBRANCH  14  15
ENDBRANCH   2  14
BRANCH   5  21
ATOM     21  S   UNL     1       7.533   6.664  18.619  0.00  0.00    +0.000 S 
BRANCH  21  22
ATOM     22  C   UNL     1       7.640   8.117  17.542  0.00  0.00    +0.000 C 
BRANCH  22  23
ATOM     23  C   UNL     1       8.403   9.256  18.198  0.00  0.00    +0.000 C 
ATOM     24  O   UNL     1       9.129   9.044  19.167  0.00  0.00    +0.000 OA
ATOM     25  N   UNL     1       8.165  10.474  17.599  0.00  0.00    +0.000 N 
ATOM     26  C   UNL     1       8.814  11.611  17.985  0.00  0.00    +0.000 A 
ATOM     27  N   UNL     1       9.896  11.745  18.705  0.00  0.00    +0.000 NA
ATOM     28  C   UNL     1      10.178  13.088  18.883  0.00  0.00    +0.000 A 
ATOM     29  C   UNL     1      11.368  13.468  19.685  0.00  0.00    +0.000 C 
ATOM     30  C   UNL     1       9.275  13.949  18.286  0.00  0.00    +0.000 A 
ATOM     31  S   UNL     1       8.093  13.053  17.425  0.00  0.00    +0.000 S 
ATOM     32  H   UNL     1       7.349  10.596  17.006  0.00  0.00    +0.000 HD
ENDBRANCH  22  23
ENDBRANCH  21  22
ENDBRANCH   5  21
TORSDOF 7
ENDMDL
MODEL 7
REMARK VINA RESULT:      -7.9      3.855      7.436
REMARK  Name = 
REMARK  10 active torsions:
REMARK  status: ('A' for Active; 'I' for Inactive)
REMARK    1  A    between atoms: C_1  and  O_2
REMARK    2  A    between atoms: O_2  and  C_3
REMARK    3  A    between atoms: C_6  and  N_7
REMARK    4  A    between atoms: C_8  and  C_9
REMARK    5  A    between atoms: C_9  and  C_10
REMARK    6  A    between atoms: N_14  and  C_15
REMARK    7  A    between atoms: C_18  and  S_19
REMARK    8  A    between atoms: S_19  and  C_20
REMARK    9  A    between atoms: C_20  and  C_21
REMARK   10  A    between atoms: C_26  and  C_27
REMARK                            x       y       z     vdW  Elec       q    Type
REMARK                         _______ _______ _______ _____ _____    ______ ____
ROOT
ATOM      1  N   UNL     1       2.906   6.165  19.227  0.00  0.00    +0.000 N 
ATOM      2  C   UNL     1       2.321   5.567  20.354  0.00  0.00    +0.000 A 
ATOM      3  N   UNL     1       1.422   6.393  20.867  0.00  0.00    +0.000 NA
ATOM      4  N   UNL     1       1.367   7.518  20.105  0.00  0.00    +0.000 NA
ATOM      5  C   UNL     1       2.232   7.383  19.128  0.00  0.00    +0.000 A 
ENDROOT
BRANCH   1   9
ATOM      6  C   UNL     1       6.053   4.824  16.694  0.00  0.00    +0.000 A 
ATOM      7  C   UNL     1       4.725   4.566  16.363  0.00  0.00    +0.000 A 
ATOM      8  C   UNL     1       3.684   5.002  17.193  0.00  0.00    +0.000 A 
ATOM      9  C   UNL     1       3.958   5.661  18.395  0.00  0.00    +0.000 A 
ATOM     10  C   UNL     1       5.301   5.839  18.757  0.00  0.00    +0.000 A 
ATOM     11  C   UNL     1       6.339   5.446  17.904  0.00  0.00    +0.000 A 
BRANCH   6  13
ATOM     12  C   UNL     1       6.561   4.387  14.437  0.00  0.00    +0.000 C 
ATOM     13  O   UNL     1       6.989   4.392  15.796  0.00  0.00    +0.000 OA
ENDBRANCH   6  13
ENDBRANCH   1   9
BRANCH   2  14
ATOM     14  C   UNL     1       2.767   4.313  21.050  0.00  0.00    +0.000 C 
BRANCH  14  15
ATOM     15  C   UNL     1       3.077   3.142  20.153  0.00  0.00    +0.000 A 
ATOM     16  C   UNL     1       4.269   2.472  19.921  0.00  0.00    +0.000 A 
ATOM     17  C   UNL     1       4.035   1.472  18.939  0.00  0.00    +0.000 A 
ATOM     18  C   UNL     1       2.707   1.551  18.595  0.00  0.00    +0.000 A 
ATOM     19  N   UNL     1       2.128   2.547  19.339  0.00  0.00    +0.000 N 
ATOM     20  C   UNL     1       0.724   2.894  19.264  0.00  0.00    +0.000 C 
ENDBRANCH  14  15
ENDBRANCH   2  14
BRANCH   5  21
ATOM     21  S   UNL     1       2.351   8.522  17.818  0.00  0.00    +0.000 S 
BRANCH  21  22
ATOM     22  C   UNL     1       2.152  10.119  18.648  0.00  0.00    +0.000 C 
BRANCH  22  23
ATOM     23  C   UNL     1       0.691  10.446  18.910  0.00  0.00    +0.000 C 
ATOM     24  O   UNL     1       0.323  10.813  20.024  0.00  0.00    +0.000 OA
ATOM     25  N   UNL     1      -0.104  10.266  17.798  0.00  0.00    +0.000 N 
ATOM     26  C   UNL     1      -1.432  10.580  17.799  0.00  0.00    +0.000 A 
ATOM     27  N   UNL     1      -2.110  11.317  18.638  0.00  0.00    +0.000 NA
ATOM     28  C   UNL     1      -3.446  11.334  18.275  0.00  0.00    +0.000 A 
ATOM     29  C   UNL     1      -4.402  12.110  19.104  0.00  0.00    +0.000 C 
ATOM     30  C   UNL     1      -3.746  10.586  17.151  0.00  0.00    +0.000 A 
ATOM     31  S   UNL     1      -2.311   9.908  16.499  0.00  0.00    +0.000 S 
ATOM     32  H   UNL     1       0.228   9.697  17.025  0.00  0.00    +0.000 HD
ENDBRANCH  22  23
ENDBRANCH  21  22
ENDBRANCH   5  21
TORSDOF 7
ENDMDL
MODEL 8
REMARK VINA RESULT:      -7.7      3.989      6.392
REMARK  Name = 
REMARK  10 active torsions:
REMARK  status: ('A' for Active; 'I' for Inactive)
REMARK    1  A    between atoms: C_1  and  O_2
REMARK    2  A    between atoms: O_2  and  C_3
REMARK    3  A    between atoms: C_6  and  N_7
REMARK    4  A    between atoms: C_8  and  C_9
REMARK    5  A    between atoms: C_9  and  C_10
REMARK    6  A    between atoms: N_14  and  C_15
REMARK    7  A    between atoms: C_18  and  S_19
REMARK    8  A    between atoms: S_19  and  C_20
REMARK    9  A    between atoms: C_20  and  C_21
REMARK   10  A    between atoms: C_26  and  C_27
REMARK                            x       y       z     vdW  Elec       q    Type
REMARK                         _______ _______ _______ _____ _____    ______ ____
ROOT
ATOM      1  N   UNL     1       3.016   6.105  19.334  0.00  0.00    +0.000 N 
ATOM      2  C   UNL     1       2.358   5.427  20.371  0.00  0.00    +0.000 A 
ATOM      3  N   UNL     1       1.432   6.218  20.891  0.00  0.00    +0.000 NA
ATOM      4  N   UNL     1       1.430   7.400  20.217  0.00  0.00    +0.000 NA
ATOM      5  C   UNL     1       2.355   7.333  19.288  0.00  0.00    +0.000 A 
ENDROOT
BRANCH   1   9
ATOM      6  C   UNL     1       6.320   4.938  16.917  0.00  0.00    +0.000 A 
ATOM      7  C   UNL     1       5.018   4.804  16.441  0.00  0.00    +0.000 A 
ATOM      8  C   UNL     1       3.925   5.184  17.231  0.00  0.00    +0.000 A 
ATOM      9  C   UNL     1       4.116   5.657  18.532  0.00  0.00    +0.000 A 
ATOM     10  C   UNL     1       5.427   5.707  19.029  0.00  0.00    +0.000 A 
ATOM     11  C   UNL     1       6.521   5.373  18.221  0.00  0.00    +0.000 A 
BRANCH   6  13
ATOM     12  C   UNL     1       6.950   4.603  14.673  0.00  0.00    +0.000 C 
ATOM     13  O   UNL     1       7.314   4.577  16.051  0.00  0.00    +0.000 OA
ENDBRANCH   6  13
ENDBRANCH   1   9
BRANCH   2  14
ATOM     14  C   UNL     1       2.755   4.119  20.994  0.00  0.00    +0.000 C 
BRANCH  14  15
ATOM     15  C   UNL     1       3.062   3.001  20.030  0.00  0.00    +0.000 A 
ATOM     16  C   UNL     1       4.248   2.330  19.772  0.00  0.00    +0.000 A 
ATOM     17  C   UNL     1       4.015   1.397  18.726  0.00  0.00    +0.000 A 
ATOM     18  C   UNL     1       2.694   1.517  18.369  0.00  0.00    +0.000 A 
ATOM     19  N   UNL     1       2.117   2.472  19.167  0.00  0.00    +0.000 N 
ATOM     20  C   UNL     1       0.719   2.844  19.094  0.00  0.00    +0.000 C 
ENDBRANCH  14  15
ENDBRANCH   2  14
BRANCH   5  21
ATOM     21  S   UNL     1       2.561   8.569  18.081  0.00  0.00    +0.000 S 
BRANCH  21  22
ATOM     22  C   UNL     1       1.127   9.642  18.348  0.00  0.00    +0.000 C 
BRANCH  22  23
ATOM     23  C   UNL     1       1.522  11.107  18.436  0.00  0.00    +0.000 C 
ATOM     24  O   UNL     1       2.599  11.491  17.985  0.00  0.00    +0.000 OA
ATOM     25  N   UNL     1       0.570  11.881  19.065  0.00  0.00    +0.000 N 
ATOM     26  C   UNL     1       0.694  13.235  19.176  0.00  0.00    +0.000 A 
ATOM     27  N   UNL     1       1.483  14.052  18.529  0.00  0.00    +0.000 NA
ATOM     28  C   UNL     1       1.301  15.344  18.990  0.00  0.00    +0.000 A 
ATOM     29  C   UNL     1       2.111  16.436  18.394  0.00  0.00    +0.000 C 
ATOM     30  C   UNL     1       0.366  15.468  20.002  0.00  0.00    +0.000 A 
ATOM     31  S   UNL     1      -0.350  13.942  20.326  0.00  0.00    +0.000 S 
ATOM     32  H   UNL     1      -0.136  11.440  19.647  0.00  0.00    +0.000 HD
ENDBRANCH  22  23
ENDBRANCH  21  22
ENDBRANCH   5  21
TORSDOF 7
ENDMDL
MODEL 9
REMARK VINA RESULT:      -7.7      5.527      9.571
REMARK  Name = 
REMARK  10 active torsions:
REMARK  status: ('A' for Active; 'I' for Inactive)
REMARK    1  A    between atoms: C_1  and  O_2
REMARK    2  A    between atoms: O_2  and  C_3
REMARK    3  A    between atoms: C_6  and  N_7
REMARK    4  A    between atoms: C_8  and  C_9
REMARK    5  A    between atoms: C_9  and  C_10
REMARK    6  A    between atoms: N_14  and  C_15
REMARK    7  A    between atoms: C_18  and  S_19
REMARK    8  A    between atoms: S_19  and  C_20
REMARK    9  A    between atoms: C_20  and  C_21
REMARK   10  A    between atoms: C_26  and  C_27
REMARK                            x       y       z     vdW  Elec       q    Type
REMARK                         _______ _______ _______ _____ _____    ______ ____
ROOT
ATOM      1  N   UNL     1      -0.581  11.715  20.040  0.00  0.00    +0.000 N 
ATOM      2  C   UNL     1      -0.000  12.954  20.351  0.00  0.00    +0.000 A 
ATOM      3  N   UNL     1       0.686  12.843  21.478  0.00  0.00    +0.000 NA
ATOM      4  N   UNL     1       0.604  11.559  21.921  0.00  0.00    +0.000 NA
ATOM      5  C   UNL     1      -0.132  10.886  21.068  0.00  0.00    +0.000 A 
ENDROOT
BRANCH   1   9
ATOM      6  C   UNL     1      -3.226  10.617  16.891  0.00  0.00    +0.000 A 
ATOM      7  C   UNL     1      -1.899  10.198  16.873  0.00  0.00    +0.000 A 
ATOM      8  C   UNL     1      -1.021  10.557  17.904  0.00  0.00    +0.000 A 
ATOM      9  C   UNL     1      -1.447  11.385  18.947  0.00  0.00    +0.000 A 
ATOM     10  C   UNL     1      -2.763  11.868  18.908  0.00  0.00    +0.000 A 
ATOM     11  C   UNL     1      -3.652  11.470  17.902  0.00  0.00    +0.000 A 
BRANCH   6  13
ATOM     12  C   UNL     1      -3.367  10.157  14.586  0.00  0.00    +0.000 C 
ATOM     13  O   UNL     1      -4.008  10.177  15.859  0.00  0.00    +0.000 OA
ENDBRANCH   6  13
ENDBRANCH   1   9
BRANCH   2  14
ATOM     14  C   UNL     1      -0.273  14.275  19.690  0.00  0.00    +0.000 C 
BRANCH  14  15
ATOM     15  C   UNL     1       0.907  14.926  19.015  0.00  0.00    +0.000 A 
ATOM     16  C   UNL     1       2.122  14.395  18.608  0.00  0.00    +0.000 A 
ATOM     17  C   UNL     1       2.913  15.449  18.075  0.00  0.00    +0.000 A 
ATOM     18  C   UNL     1       2.165  16.598  18.168  0.00  0.00    +0.000 A 
ATOM     19  N   UNL     1       0.951  16.278  18.719  0.00  0.00    +0.000 N 
ATOM     20  C   UNL     1      -0.110  17.239  18.939  0.00  0.00    +0.000 C 
ENDBRANCH  14  15
ENDBRANCH   2  14
BRANCH   5  21
ATOM     21  S   UNL     1      -0.338   9.162  21.166  0.00  0.00    +0.000 S 
BRANCH  21  22
ATOM     22  C   UNL     1       1.341   8.569  21.497  0.00  0.00    +0.000 C 
BRANCH  22  23
ATOM     23  C   UNL     1       1.784   7.523  20.488  0.00  0.00    +0.000 C 
ATOM     24  O   UNL     1       2.089   7.850  19.343  0.00  0.00    +0.000 OA
ATOM     25  N   UNL     1       1.778   6.245  21.005  0.00  0.00    +0.000 N 
ATOM     26  C   UNL     1       2.218   5.171  20.287  0.00  0.00    +0.000 A 
ATOM     27  N   UNL     1       2.944   5.140  19.200  0.00  0.00    +0.000 NA
ATOM     28  C   UNL     1       3.121   3.829  18.793  0.00  0.00    +0.000 A 
ATOM     29  C   UNL     1       3.912   3.564  17.564  0.00  0.00    +0.000 C 
ATOM     30  C   UNL     1       2.504   2.887  19.596  0.00  0.00    +0.000 A 
ATOM     31  S   UNL     1       1.748   3.661  20.929  0.00  0.00    +0.000 S 
ATOM     32  H   UNL     1       1.249   6.042  21.847  0.00  0.00    +0.000 HD
ENDBRANCH  22  23
ENDBRANCH  21  22
ENDBRANCH   5  21
TORSDOF 7
ENDMDL
