MODEL 1
REMARK VINA RESULT:      -6.9      0.000      0.000
REMARK  Name = 
REMARK  6 active torsions:
REMARK  status: ('A' for Active; 'I' for Inactive)
REMARK    1  A    between atoms: C_1  and  N_2
REMARK    2  A    between atoms: C_6  and  C_7
REMARK    3  A    between atoms: C_8  and  C_9
REMARK    4  A    between atoms: C_11  and  N_12
REMARK    5  A    between atoms: C_19  and  C_20
REMARK    6  A    between atoms: C_19  and  C_21
REMARK                            x       y       z     vdW  Elec       q    Type
REMARK                         _______ _______ _______ _____ _____    ______ ____
ROOT
ATOM      1  C   UNL     1       2.607   5.560  18.818  0.00  0.00    +0.000 C 
ATOM      2  C   UNL     1       2.262   7.032  19.063  0.00  0.00    +0.000 C 
ATOM      3  C   UNL     1       2.751   7.972  18.229  0.00  0.00    +0.000 C 
ATOM      4  O   UNL     1       3.584   7.611  17.174  0.00  0.00    +0.000 OA
ATOM      5  C   UNL     1       4.294   6.422  17.249  0.00  0.00    +0.000 C 
ATOM      6  C   UNL     1       3.935   5.438  18.100  0.00  0.00    +0.000 C 
ATOM      7  C   UNL     1       4.820   4.238  18.166  0.00  0.00    +0.000 C 
ATOM      8  O   UNL     1       4.515   3.235  18.805  0.00  0.00    +0.000 OA
ATOM      9  C   UNL     1       6.151   4.306  17.438  0.00  0.00    +0.000 C 
ATOM     10  C   UNL     1       5.964   4.925  16.047  0.00  0.00    +0.000 C 
ATOM     11  C   UNL     1       7.310   4.980  15.305  0.00  0.00    +0.000 C 
ATOM     12  C   UNL     1       4.990   4.073  15.203  0.00  0.00    +0.000 C 
ATOM     13  C   UNL     1       5.427   6.355  16.253  0.00  0.00    +0.000 C 
ENDROOT
BRANCH   1  19
ATOM     14  C   UNL     1       0.745   2.978  18.580  0.00  0.00    +0.000 C 
ATOM     15  N   UNL     1       1.520   3.392  19.728  0.00  0.00    +0.000 N 
ATOM     16  C   UNL     1       1.707   2.609  20.842  0.00  0.00    +0.000 A 
ATOM     17  C   UNL     1       2.283   3.387  21.819  0.00  0.00    +0.000 A 
ATOM     18  C   UNL     1       2.513   4.656  21.251  0.00  0.00    +0.000 A 
ATOM     19  C   UNL     1       2.196   4.582  19.899  0.00  0.00    +0.000 A 
ENDBRANCH   1  19
BRANCH   3  20
ATOM     20  N   UNL     1       2.506   9.321  18.271  0.00  0.00    +0.000 N 
ATOM     21  H   UNL     1       2.439   9.724  19.206  0.00  0.00    +0.000 HD
ATOM     22  H   UNL     1       1.727   9.585  17.676  0.00  0.00    +0.000 HD
ENDBRANCH   3  20
BRANCH   2  23
ATOM     23  C   UNL     1       1.406   7.417  20.141  0.00  0.00    +0.000 C 
ATOM     24  N   UNL     1       0.753   7.777  21.029  0.00  0.00    +0.000 NA
ENDBRANCH   2  23
TORSDOF 3
ENDMDL
MODEL 2
REMARK VINA RESULT:      -5.9      2.204      5.455
REMARK  Name = 
REMARK  6 active torsions:
REMARK  status: ('A' for Active; 'I' for Inactive)
REMARK    1  A    between atoms: C_1  and  N_2
REMARK    2  A    between atoms: C_6  and  C_7
REMARK    3  A    between atoms: C_8  and  C_9
REMARK    4  A    between atoms: C_11  and  N_12
REMARK    5  A    between atoms: C_19  and  C_20
REMARK    6  A    between atoms: C_19  and  C_21
REMARK                            x       y       z     vdW  Elec       q    Type
REMARK                         _______ _______ _______ _____ _____    ______ ____
ROOT
ATOM      1  C   UNL     1       3.447   5.142  18.312  0.00  0.00    +0.000 C 
ATOM      2  C   UNL     1       3.401   4.302  19.591  0.00  0.00    +0.000 C 
ATOM      3  C   UNL     1       2.549   4.647  20.578  0.00  0.00    +0.000 C 
ATOM      4  O   UNL     1       1.741   5.772  20.447  0.00  0.00    +0.000 OA
ATOM      5  C   UNL     1       2.126   6.786  19.581  0.00  0.00    +0.000 C 
ATOM      6  C   UNL     1       3.027   6.569  18.600  0.00  0.00    +0.000 C 
ATOM      7  C   UNL     1       3.440   7.748  17.783  0.00  0.00    +0.000 C 
ATOM      8  O   UNL     1       4.148   7.638  16.786  0.00  0.00    +0.000 OA
ATOM      9  C   UNL     1       2.983   9.120  18.248  0.00  0.00    +0.000 C 
ATOM     10  C   UNL     1       1.507   9.075  18.661  0.00  0.00    +0.000 C 
ATOM     11  C   UNL     1       1.040  10.468  19.117  0.00  0.00    +0.000 C 
ATOM     12  C   UNL     1       0.623   8.646  17.468  0.00  0.00    +0.000 C 
ATOM     13  C   UNL     1       1.391   8.080  19.833  0.00  0.00    +0.000 C 
ENDROOT
BRANCH   1  19
ATOM     14  C   UNL     1       6.564   5.794  18.544  0.00  0.00    +0.000 C 
ATOM     15  N   UNL     1       5.914   4.980  17.541  0.00  0.00    +0.000 N 
ATOM     16  C   UNL     1       6.595   4.206  16.632  0.00  0.00    +0.000 A 
ATOM     17  C   UNL     1       5.696   3.758  15.693  0.00  0.00    +0.000 A 
ATOM     18  C   UNL     1       4.425   4.219  16.090  0.00  0.00    +0.000 A 
ATOM     19  C   UNL     1       4.560   4.823  17.335  0.00  0.00    +0.000 A 
ENDBRANCH   1  19
BRANCH   3  20
ATOM     20  N   UNL     1       2.343   3.984  21.761  0.00  0.00    +0.000 N 
ATOM     21  H   UNL     1       2.158   2.984  21.675  0.00  0.00    +0.000 HD
ATOM     22  H   UNL     1       1.665   4.457  22.350  0.00  0.00    +0.000 HD
ENDBRANCH   3  20
BRANCH   2  23
ATOM     23  C   UNL     1       4.223   3.141  19.739  0.00  0.00    +0.000 C 
ATOM     24  N   UNL     1       4.874   2.200  19.922  0.00  0.00    +0.000 NA
ENDBRANCH   2  23
TORSDOF 3
ENDMDL
MODEL 3
REMARK VINA RESULT:      -5.9      3.225      6.098
REMARK  Name = 
REMARK  6 active torsions:
REMARK  status: ('A' for Active; 'I' for Inactive)
REMARK    1  A    between atoms: C_1  and  N_2
REMARK    2  A    between atoms: C_6  and  C_7
REMARK    3  A    between atoms: C_8  and  C_9
REMARK    4  A    between atoms: C_11  and  N_12
REMARK    5  A    between atoms: C_19  and  C_20
REMARK    6  A    between atoms: C_19  and  C_21
REMARK                            x       y       z     vdW  Elec       q    Type
REMARK                         _______ _______ _______ _____ _____    ______ ____
ROOT
ATOM      1  C   UNL     1       5.536   5.597  16.652  0.00  0.00    +0.000 C 
ATOM      2  C   UNL     1       6.126   4.905  15.420  0.00  0.00    +0.000 C 
ATOM      3  C   UNL     1       5.462   3.872  14.861  0.00  0.00    +0.000 C 
ATOM      4  O   UNL     1       4.268   3.422  15.416  0.00  0.00    +0.000 OA
ATOM      5  C   UNL     1       4.008   3.671  16.756  0.00  0.00    +0.000 C 
ATOM      6  C   UNL     1       4.665   4.635  17.434  0.00  0.00    +0.000 C 
ATOM      7  C   UNL     1       4.374   4.760  18.892  0.00  0.00    +0.000 C 
ATOM      8  O   UNL     1       4.815   5.684  19.571  0.00  0.00    +0.000 OA
ATOM      9  C   UNL     1       3.534   3.672  19.537  0.00  0.00    +0.000 C 
ATOM     10  C   UNL     1       2.336   3.327  18.643  0.00  0.00    +0.000 C 
ATOM     11  C   UNL     1       1.477   2.236  19.303  0.00  0.00    +0.000 C 
ATOM     12  C   UNL     1       1.444   4.570  18.430  0.00  0.00    +0.000 C 
ATOM     13  C   UNL     1       2.900   2.805  17.306  0.00  0.00    +0.000 C 
ENDROOT
BRANCH   1  19
ATOM     14  C   UNL     1       7.954   5.089  18.673  0.00  0.00    +0.000 C 
ATOM     15  N   UNL     1       7.556   6.349  18.087  0.00  0.00    +0.000 N 
ATOM     16  C   UNL     1       8.300   7.501  18.183  0.00  0.00    +0.000 A 
ATOM     17  C   UNL     1       7.532   8.545  17.727  0.00  0.00    +0.000 A 
ATOM     18  C   UNL     1       6.315   7.994  17.278  0.00  0.00    +0.000 A 
ATOM     19  C   UNL     1       6.423   6.609  17.346  0.00  0.00    +0.000 A 
ENDBRANCH   1  19
BRANCH   3  20
ATOM     20  N   UNL     1       5.818   3.174  13.735  0.00  0.00    +0.000 N 
ATOM     21  H   UNL     1       6.792   3.273  13.450  0.00  0.00    +0.000 HD
ATOM     22  H   UNL     1       5.169   3.331  12.970  0.00  0.00    +0.000 HD
ENDBRANCH   3  20
BRANCH   2  23
ATOM     23  C   UNL     1       7.350   5.359  14.837  0.00  0.00    +0.000 C 
ATOM     24  N   UNL     1       8.316   5.716  14.306  0.00  0.00    +0.000 NA
ENDBRANCH   2  23
TORSDOF 3
ENDMDL
MODEL 4
REMARK VINA RESULT:      -5.8      1.216      1.668
REMARK  Name = 
REMARK  6 active torsions:
REMARK  status: ('A' for Active; 'I' for Inactive)
REMARK    1  A    between atoms: C_1  and  N_2
REMARK    2  A    between atoms: C_6  and  C_7
REMARK    3  A    between atoms: C_8  and  C_9
REMARK    4  A    between atoms: C_11  and  N_12
REMARK    5  A    between atoms: C_19  and  C_20
REMARK    6  A    between atoms: C_19  and  C_21
REMARK                            x       y       z     vdW  Elec       q    Type
REMARK                         _______ _______ _______ _____ _____    ______ ____
ROOT
ATOM      1  C   UNL     1       2.858   5.029  17.858  0.00  0.00    +0.000 C 
ATOM      2  C   UNL     1       2.672   6.423  18.466  0.00  0.00    +0.000 C 
ATOM      3  C   UNL     1       3.226   7.489  17.853  0.00  0.00    +0.000 C 
ATOM      4  O   UNL     1       3.982   7.322  16.698  0.00  0.00    +0.000 OA
ATOM      5  C   UNL     1       4.571   6.091  16.446  0.00  0.00    +0.000 C 
ATOM      6  C   UNL     1       4.143   4.967  17.057  0.00  0.00    +0.000 C 
ATOM      7  C   UNL     1       4.904   3.713  16.785  0.00  0.00    +0.000 C 
ATOM      8  O   UNL     1       4.521   2.616  17.182  0.00  0.00    +0.000 OA
ATOM      9  C   UNL     1       6.210   3.835  16.020  0.00  0.00    +0.000 C 
ATOM     10  C   UNL     1       6.040   4.787  14.830  0.00  0.00    +0.000 C 
ATOM     11  C   UNL     1       7.359   4.900  14.047  0.00  0.00    +0.000 C 
ATOM     12  C   UNL     1       4.958   4.257  13.863  0.00  0.00    +0.000 C 
ATOM     13  C   UNL     1       5.658   6.168  15.400  0.00  0.00    +0.000 C 
ENDROOT
BRANCH   1  19
ATOM     14  C   UNL     1       4.273   3.673  20.377  0.00  0.00    +0.000 C 
ATOM     15  N   UNL     1       2.946   3.403  19.871  0.00  0.00    +0.000 N 
ATOM     16  C   UNL     1       2.021   2.634  20.535  0.00  0.00    +0.000 A 
ATOM     17  C   UNL     1       0.973   2.391  19.679  0.00  0.00    +0.000 A 
ATOM     18  C   UNL     1       1.244   3.095  18.489  0.00  0.00    +0.000 A 
ATOM     19  C   UNL     1       2.387   3.860  18.696  0.00  0.00    +0.000 A 
ENDBRANCH   1  19
BRANCH   3  20
ATOM     20  N   UNL     1       3.119   8.804  18.230  0.00  0.00    +0.000 N 
ATOM     21  H   UNL     1       2.171   9.127  18.425  0.00  0.00    +0.000 HD
ATOM     22  H   UNL     1       3.620   9.423  17.599  0.00  0.00    +0.000 HD
ENDBRANCH   3  20
BRANCH   2  23
ATOM     23  C   UNL     1       1.895   6.610  19.651  0.00  0.00    +0.000 C 
ATOM     24  N   UNL     1       1.321   6.769  20.645  0.00  0.00    +0.000 NA
ENDBRANCH   2  23
TORSDOF 3
ENDMDL
MODEL 5
REMARK VINA RESULT:      -5.7      6.738     10.346
REMARK  Name = 
REMARK  6 active torsions:
REMARK  status: ('A' for Active; 'I' for Inactive)
REMARK    1  A    between atoms: C_1  and  N_2
REMARK    2  A    between atoms: C_6  and  C_7
REMARK    3  A    between atoms: C_8  and  C_9
REMARK    4  A    between atoms: C_11  and  N_12
REMARK    5  A    between atoms: C_19  and  C_20
REMARK    6  A    between atoms: C_19  and  C_21
REMARK                            x       y       z     vdW  Elec       q    Type
REMARK                         _______ _______ _______ _____ _____    ______ ____
ROOT
ATOM      1  C   UNL     1      -1.963  12.124  19.091  0.00  0.00    +0.000 C 
ATOM      2  C   UNL     1      -3.078  11.707  18.127  0.00  0.00    +0.000 C 
ATOM      3  C   UNL     1      -4.363  11.940  18.464  0.00  0.00    +0.000 C 
ATOM      4  O   UNL     1      -4.674  12.525  19.686  0.00  0.00    +0.000 OA
ATOM      5  C   UNL     1      -3.770  12.428  20.734  0.00  0.00    +0.000 C 
ATOM      6  C   UNL     1      -2.472  12.130  20.519  0.00  0.00    +0.000 C 
ATOM      7  C   UNL     1      -1.604  11.959  21.721  0.00  0.00    +0.000 C 
ATOM      8  O   UNL     1      -0.387  11.820  21.635  0.00  0.00    +0.000 OA
ATOM      9  C   UNL     1      -2.283  11.924  23.078  0.00  0.00    +0.000 C 
ATOM     10  C   UNL     1      -3.344  13.028  23.169  0.00  0.00    +0.000 C 
ATOM     11  C   UNL     1      -4.021  13.002  24.550  0.00  0.00    +0.000 C 
ATOM     12  C   UNL     1      -2.695  14.418  22.985  0.00  0.00    +0.000 C 
ATOM     13  C   UNL     1      -4.391  12.746  22.073  0.00  0.00    +0.000 C 
ENDROOT
BRANCH   1  19
ATOM     14  C   UNL     1       0.648  13.869  18.520  0.00  0.00    +0.000 C 
ATOM     15  N   UNL     1       0.572  12.432  18.663  0.00  0.00    +0.000 N 
ATOM     16  C   UNL     1       1.675  11.618  18.755  0.00  0.00    +0.000 A 
ATOM     17  C   UNL     1       1.255  10.314  18.645  0.00  0.00    +0.000 A 
ATOM     18  C   UNL     1      -0.151  10.342  18.554  0.00  0.00    +0.000 A 
ATOM     19  C   UNL     1      -0.565  11.656  18.748  0.00  0.00    +0.000 A 
ENDBRANCH   1  19
BRANCH   3  20
ATOM     20  N   UNL     1      -5.476  11.678  17.704  0.00  0.00    +0.000 N 
ATOM     21  H   UNL     1      -5.518  10.741  17.301  0.00  0.00    +0.000 HD
ATOM     22  H   UNL     1      -5.648  12.406  17.019  0.00  0.00    +0.000 HD
ENDBRANCH   3  20
BRANCH   2  23
ATOM     23  C   UNL     1      -2.773  11.107  16.866  0.00  0.00    +0.000 C 
ATOM     24  N   UNL     1      -2.581  10.645  15.821  0.00  0.00    +0.000 NA
ENDBRANCH   2  23
TORSDOF 3
ENDMDL
MODEL 6
REMARK VINA RESULT:      -5.7      7.255     10.815
REMARK  Name = 
REMARK  6 active torsions:
REMARK  status: ('A' for Active; 'I' for Inactive)
REMARK    1  A    between atoms: C_1  and  N_2
REMARK    2  A    between atoms: C_6  and  C_7
REMARK    3  A    between atoms: C_8  and  C_9
REMARK    4  A    between atoms: C_11  and  N_12
REMARK    5  A    between atoms: C_19  and  C_20
REMARK    6  A    between atoms: C_19  and  C_21
REMARK                            x       y       z     vdW  Elec       q    Type
REMARK                         _______ _______ _______ _____ _____    ______ ____
ROOT
ATOM      1  C   UNL     1      -2.502  12.068  19.094  0.00  0.00    +0.000 C 
ATOM      2  C   UNL     1      -3.413  11.466  18.020  0.00  0.00    +0.000 C 
ATOM      3  C   UNL     1      -4.723  11.787  18.009  0.00  0.00    +0.000 C 
ATOM      4  O   UNL     1      -5.247  12.634  18.980  0.00  0.00    +0.000 OA
ATOM      5  C   UNL     1      -4.591  12.756  20.197  0.00  0.00    +0.000 C 
ATOM      6  C   UNL     1      -3.298  12.398  20.340  0.00  0.00    +0.000 C 
ATOM      7  C   UNL     1      -2.716  12.484  21.711  0.00  0.00    +0.000 C 
ATOM      8  O   UNL     1      -1.519  12.311  21.926  0.00  0.00    +0.000 OA
ATOM      9  C   UNL     1      -3.667  12.761  22.862  0.00  0.00    +0.000 C 
ATOM     10  C   UNL     1      -4.651  13.874  22.481  0.00  0.00    +0.000 C 
ATOM     11  C   UNL     1      -5.604  14.165  23.653  0.00  0.00    +0.000 C 
ATOM     12  C   UNL     1      -3.891  15.179  22.153  0.00  0.00    +0.000 C 
ATOM     13  C   UNL     1      -5.459  13.373  21.268  0.00  0.00    +0.000 C 
ENDROOT
BRANCH   1  19
ATOM     14  C   UNL     1       0.265  13.534  18.476  0.00  0.00    +0.000 C 
ATOM     15  N   UNL     1       0.083  12.221  19.051  0.00  0.00    +0.000 N 
ATOM     16  C   UNL     1       1.105  11.479  19.594  0.00  0.00    +0.000 A 
ATOM     17  C   UNL     1       0.634  10.209  19.830  0.00  0.00    +0.000 A 
ATOM     18  C   UNL     1      -0.732  10.208  19.484  0.00  0.00    +0.000 A 
ATOM     19  C   UNL     1      -1.095  11.514  19.173  0.00  0.00    +0.000 A 
ENDBRANCH   1  19
BRANCH   3  20
ATOM     20  N   UNL     1      -5.664  11.381  17.097  0.00  0.00    +0.000 N 
ATOM     21  H   UNL     1      -6.376  12.075  16.866  0.00  0.00    +0.000 HD
ATOM     22  H   UNL     1      -6.062  10.479  17.337  0.00  0.00    +0.000 HD
ENDBRANCH   3  20
BRANCH   2  23
ATOM     23  C   UNL     1      -2.888  10.597  17.013  0.00  0.00    +0.000 C 
ATOM     24  N   UNL     1      -2.506   9.916  16.156  0.00  0.00    +0.000 NA
ENDBRANCH   2  23
TORSDOF 3
ENDMDL
MODEL 7
REMARK VINA RESULT:      -5.7      7.822     10.872
REMARK  Name = 
REMARK  6 active torsions:
REMARK  status: ('A' for Active; 'I' for Inactive)
REMARK    1  A    between atoms: C_1  and  N_2
REMARK    2  A    between atoms: C_6  and  C_7
REMARK    3  A    between atoms: C_8  and  C_9
REMARK    4  A    between atoms: C_11  and  N_12
REMARK    5  A    between atoms: C_19  and  C_20
REMARK    6  A    between atoms: C_19  and  C_21
REMARK                            x       y       z     vdW  Elec       q    Type
REMARK                         _______ _______ _______ _____ _____    ______ ____
ROOT
ATOM      1  C   UNL     1      -3.881  11.368  18.699  0.00  0.00    +0.000 C 
ATOM      2  C   UNL     1      -2.847  10.788  17.730  0.00  0.00    +0.000 C 
ATOM      3  C   UNL     1      -1.580  10.599  18.152  0.00  0.00    +0.000 C 
ATOM      4  O   UNL     1      -1.209  10.955  19.445  0.00  0.00    +0.000 OA
ATOM      5  C   UNL     1      -1.949  11.914  20.122  0.00  0.00    +0.000 C 
ATOM      6  C   UNL     1      -3.204  12.233  19.742  0.00  0.00    +0.000 C 
ATOM      7  C   UNL     1      -3.877  13.341  20.481  0.00  0.00    +0.000 C 
ATOM      8  O   UNL     1      -5.060  13.621  20.306  0.00  0.00    +0.000 OA
ATOM      9  C   UNL     1      -3.035  14.155  21.448  0.00  0.00    +0.000 C 
ATOM     10  C   UNL     1      -2.151  13.228  22.291  0.00  0.00    +0.000 C 
ATOM     11  C   UNL     1      -1.309  14.051  23.280  0.00  0.00    +0.000 C 
ATOM     12  C   UNL     1      -3.022  12.248  23.109  0.00  0.00    +0.000 C 
ATOM     13  C   UNL     1      -1.220  12.476  21.319  0.00  0.00    +0.000 C 
ENDROOT
BRANCH   1  19
ATOM     14  C   UNL     1      -6.769  10.198  19.393  0.00  0.00    +0.000 C 
ATOM     15  N   UNL     1      -6.466  11.327  18.543  0.00  0.00    +0.000 N 
ATOM     16  C   UNL     1      -7.419  12.186  18.050  0.00  0.00    +0.000 A 
ATOM     17  C   UNL     1      -6.825  12.988  17.105  0.00  0.00    +0.000 A 
ATOM     18  C   UNL     1      -5.457  12.649  17.080  0.00  0.00    +0.000 A 
ATOM     19  C   UNL     1      -5.224  11.741  18.108  0.00  0.00    +0.000 A 
ENDBRANCH   1  19
BRANCH   3  20
ATOM     20  N   UNL     1      -0.545  10.050  17.438  0.00  0.00    +0.000 N 
ATOM     21  H   UNL     1      -0.207   9.150  17.782  0.00  0.00    +0.000 HD
ATOM     22  H   UNL     1       0.206  10.715  17.282  0.00  0.00    +0.000 HD
ENDBRANCH   3  20
BRANCH   2  23
ATOM     23  C   UNL     1      -3.213  10.416  16.399  0.00  0.00    +0.000 C 
ATOM     24  N   UNL     1      -3.449  10.094  15.311  0.00  0.00    +0.000 NA
ENDBRANCH   2  23
TORSDOF 3
ENDMDL
MODEL 8
REMARK VINA RESULT:      -5.6      9.628     11.833
REMARK  Name = 
REMARK  6 active torsions:
REMARK  status: ('A' for Active; 'I' for Inactive)
REMARK    1  A    between atoms: C_1  and  N_2
REMARK    2  A    between atoms: C_6  and  C_7
REMARK    3  A    between atoms: C_8  and  C_9
REMARK    4  A    between atoms: C_11  and  N_12
REMARK    5  A    between atoms: C_19  and  C_20
REMARK    6  A    between atoms: C_19  and  C_21
REMARK                            x       y       z     vdW  Elec       q    Type
REMARK                         _______ _______ _______ _____ _____    ______ ____
ROOT
ATOM      1  C   UNL     1      10.341  13.790  21.066  0.00  0.00    +0.000 C 
ATOM      2  C   UNL     1      10.440  15.272  20.691  0.00  0.00    +0.000 C 
ATOM      3  C   UNL     1       9.916  16.198  21.520  0.00  0.00    +0.000 C 
ATOM      4  O   UNL     1       9.268  15.810  22.688  0.00  0.00    +0.000 OA
ATOM      5  C   UNL     1       8.733  14.533  22.774  0.00  0.00    +0.000 C 
ATOM      6  C   UNL     1       9.133  13.545  21.947  0.00  0.00    +0.000 C 
ATOM      7  C   UNL     1       8.430  12.234  22.062  0.00  0.00    +0.000 C 
ATOM      8  O   UNL     1       8.803  11.235  21.453  0.00  0.00    +0.000 OA
ATOM      9  C   UNL     1       7.193  12.175  22.941  0.00  0.00    +0.000 C 
ATOM     10  C   UNL     1       7.443  12.920  24.258  0.00  0.00    +0.000 C 
ATOM     11  C   UNL     1       6.195  12.848  25.155  0.00  0.00    +0.000 C 
ATOM     12  C   UNL     1       8.618  12.277  25.029  0.00  0.00    +0.000 C 
ATOM     13  C   UNL     1       7.741  14.390  23.903  0.00  0.00    +0.000 C 
ENDROOT
BRANCH   1  19
ATOM     14  C   UNL     1       8.833  12.968  18.375  0.00  0.00    +0.000 C 
ATOM     15  N   UNL     1      10.167  12.585  18.781  0.00  0.00    +0.000 N 
ATOM     16  C   UNL     1      11.058  11.944  17.953  0.00  0.00    +0.000 A 
ATOM     17  C   UNL     1      12.123  11.524  18.715  0.00  0.00    +0.000 A 
ATOM     18  C   UNL     1      11.897  11.989  20.027  0.00  0.00    +0.000 A 
ATOM     19  C   UNL     1      10.766  12.797  20.004  0.00  0.00    +0.000 A 
ENDBRANCH   1  19
BRANCH   3  20
ATOM     20  N   UNL     1       9.957  17.561  21.366  0.00  0.00    +0.000 N 
ATOM     21  H   UNL     1      10.700  18.036  21.881  0.00  0.00    +0.000 HD
ATOM     22  H   UNL     1       9.048  17.988  21.511  0.00  0.00    +0.000 HD
ENDBRANCH   3  20
BRANCH   2  23
ATOM     23  C   UNL     1      11.105  15.686  19.496  0.00  0.00    +0.000 C 
ATOM     24  N   UNL     1      11.586  16.027  18.498  0.00  0.00    +0.000 NA
ENDBRANCH   2  23
TORSDOF 3
ENDMDL
MODEL 9
REMARK VINA RESULT:      -5.6      6.544      9.320
REMARK  Name = 
REMARK  6 active torsions:
REMARK  status: ('A' for Active; 'I' for Inactive)
REMARK    1  A    between atoms: C_1  and  N_2
REMARK    2  A    between atoms: C_6  and  C_7
REMARK    3  A    between atoms: C_8  and  C_9
REMARK    4  A    between atoms: C_11  and  N_12
REMARK    5  A    between atoms: C_19  and  C_20
REMARK    6  A    between atoms: C_19  and  C_21
REMARK                            x       y       z     vdW  Elec       q    Type
REMARK                         _______ _______ _______ _____ _____    ______ ____
ROOT
ATOM      1  C   UNL     1      -1.832  12.586  21.049  0.00  0.00    +0.000 C 
ATOM      2  C   UNL     1      -3.131  12.864  20.288  0.00  0.00    +0.000 C 
ATOM      3  C   UNL     1      -3.447  12.102  19.220  0.00  0.00    +0.000 C 
ATOM      4  O   UNL     1      -2.588  11.094  18.797  0.00  0.00    +0.000 OA
ATOM      5  C   UNL     1      -1.241  11.170  19.125  0.00  0.00    +0.000 C 
ATOM      6  C   UNL     1      -0.804  11.955  20.131  0.00  0.00    +0.000 C 
ATOM      7  C   UNL     1       0.671  12.035  20.341  0.00  0.00    +0.000 C 
ATOM      8  O   UNL     1       1.165  12.611  21.306  0.00  0.00    +0.000 OA
ATOM      9  C   UNL     1       1.565  11.403  19.289  0.00  0.00    +0.000 C 
ATOM     10  C   UNL     1       1.019  10.028  18.885  0.00  0.00    +0.000 C 
ATOM     11  C   UNL     1       1.933   9.381  17.831  0.00  0.00    +0.000 C 
ATOM     12  C   UNL     1       0.966   9.086  20.109  0.00  0.00    +0.000 C 
ATOM     13  C   UNL     1      -0.384  10.252  18.287  0.00  0.00    +0.000 C 
ENDROOT
BRANCH   1  19
ATOM     14  C   UNL     1      -0.689  15.541  20.665  0.00  0.00    +0.000 C 
ATOM     15  N   UNL     1      -1.100  14.918  21.903  0.00  0.00    +0.000 N 
ATOM     16  C   UNL     1      -1.227  15.598  23.091  0.00  0.00    +0.000 A 
ATOM     17  C   UNL     1      -1.400  14.675  24.095  0.00  0.00    +0.000 A 
ATOM     18  C   UNL     1      -1.449  13.407  23.483  0.00  0.00    +0.000 A 
ATOM     19  C   UNL     1      -1.440  13.597  22.105  0.00  0.00    +0.000 A 
ENDBRANCH   1  19
BRANCH   3  20
ATOM     20  N   UNL     1      -4.586  12.180  18.458  0.00  0.00    +0.000 N 
ATOM     21  H   UNL     1      -4.702  13.048  17.934  0.00  0.00    +0.000 HD
ATOM     22  H   UNL     1      -5.415  11.930  18.987  0.00  0.00    +0.000 HD
ENDBRANCH   3  20
BRANCH   2  23
ATOM     23  C   UNL     1      -4.026  13.895  20.712  0.00  0.00    +0.000 C 
ATOM     24  N   UNL     1      -4.702  14.758  21.088  0.00  0.00    +0.000 NA
ENDBRANCH   2  23
TORSDOF 3
ENDMDL
