MODEL 1
REMARK VINA RESULT:      -8.6      0.000      0.000
REMARK  Name = 
REMARK  6 active torsions:
REMARK  status: ('A' for Active; 'I' for Inactive)
REMARK    1  A    between atoms: C_1  and  S_2
REMARK    2  A    between atoms: S_2  and  N_5
REMARK    3  A    between atoms: C_6  and  C_8
REMARK    4  A    between atoms: C_12  and  O_13
REMARK    5  A    between atoms: O_13  and  C_14
REMARK    6  A    between atoms: C_14  and  C_15
REMARK                            x       y       z     vdW  Elec       q    Type
REMARK                         _______ _______ _______ _____ _____    ______ ____
ROOT
ATOM      1  C   UNL     1      -0.003  10.663  21.529  0.00  0.00    +0.000 A 
ATOM      2  C   UNL     1       0.265  10.571  20.156  0.00  0.00    +0.000 A 
ATOM      3  C   UNL     1       0.963   9.463  19.653  0.00  0.00    +0.000 A 
ATOM      4 CL   UNL     1       1.304   9.427  17.959  0.00  0.00    +0.000 Cl
ATOM      5  C   UNL     1       1.373   8.422  20.502  0.00  0.00    +0.000 A 
ATOM      6  C   UNL     1       1.078   8.517  21.864  0.00  0.00    +0.000 A 
ATOM      7  C   UNL     1       0.405   9.633  22.367  0.00  0.00    +0.000 A 
ATOM      8  F   UNL     1       0.149   9.673  23.682  0.00  0.00    +0.000 F 
ENDROOT
BRANCH   1  10
ATOM      9  N   UNL     1      -2.103  11.738  22.235  0.00  0.00    +0.000 N 
ATOM     10  C   UNL     1      -0.724  11.848  22.042  0.00  0.00    +0.000 C 
ATOM     11  O   UNL     1      -0.112  12.898  22.209  0.00  0.00    +0.000 OA
ATOM     12  H   UNL     1      -2.614  10.883  22.017  0.00  0.00    +0.000 HD
BRANCH   9  14
ATOM     13  C   UNL     1      -3.208  14.055  21.434  0.00  0.00    +0.000 C 
ATOM     14  S   UNL     1      -3.019  12.985  22.839  0.00  0.00    +0.000 S 
ATOM     15  O   UNL     1      -2.263  13.674  23.856  0.00  0.00    +0.000 OA
ATOM     16  O   UNL     1      -4.331  12.436  23.139  0.00  0.00    +0.000 OA
ENDBRANCH   9  14
ENDBRANCH   1  10
BRANCH   5  17
ATOM     17  O   UNL     1       2.040   7.364  19.928  0.00  0.00    +0.000 OA
BRANCH  17  18
ATOM     18  C   UNL     1       1.848   6.076  20.516  0.00  0.00    +0.000 C 
BRANCH  18  19
ATOM     19  C   UNL     1       2.446   4.939  19.646  0.00  0.00    +0.000 C 
ATOM     20  C   UNL     1       2.323   3.569  20.359  0.00  0.00    +0.000 C 
ATOM     21  C   UNL     1       2.988   2.455  19.526  0.00  0.00    +0.000 C 
ATOM     22  C   UNL     1       2.300   2.363  18.156  0.00  0.00    +0.000 C 
ATOM     23  C   UNL     1       2.421   3.707  17.417  0.00  0.00    +0.000 C 
ATOM     24  C   UNL     1       3.910   4.042  17.216  0.00  0.00    +0.000 C 
ATOM     25  C   UNL     1       4.613   4.128  18.581  0.00  0.00    +0.000 C 
ATOM     26 CL   UNL     1       6.343   4.512  18.347  0.00  0.00    +0.000 Cl
ATOM     27  C   UNL     1       4.476   2.785  19.322  0.00  0.00    +0.000 C 
ATOM     28  C   UNL     1       3.953   5.235  19.420  0.00  0.00    +0.000 C 
ATOM     29  C   UNL     1       1.755   4.816  18.262  0.00  0.00    +0.000 C 
ENDBRANCH  18  19
ENDBRANCH  17  18
ENDBRANCH   5  17
TORSDOF 5
ENDMDL
MODEL 2
REMARK VINA RESULT:      -8.5      1.632      2.162
REMARK  Name = 
REMARK  6 active torsions:
REMARK  status: ('A' for Active; 'I' for Inactive)
REMARK    1  A    between atoms: C_1  and  S_2
REMARK    2  A    between atoms: S_2  and  N_5
REMARK    3  A    between atoms: C_6  and  C_8
REMARK    4  A    between atoms: C_12  and  O_13
REMARK    5  A    between atoms: O_13  and  C_14
REMARK    6  A    between atoms: C_14  and  C_15
REMARK                            x       y       z     vdW  Elec       q    Type
REMARK                         _______ _______ _______ _____ _____    ______ ____
ROOT
ATOM      1  C   UNL     1       0.138  10.259  21.047  0.00  0.00    +0.000 A 
ATOM      2  C   UNL     1       0.636  10.378  19.743  0.00  0.00    +0.000 A 
ATOM      3  C   UNL     1       1.462   9.375  19.216  0.00  0.00    +0.000 A 
ATOM      4 CL   UNL     1       2.083   9.599  17.618  0.00  0.00    +0.000 Cl
ATOM      5  C   UNL     1       1.778   8.230  19.967  0.00  0.00    +0.000 A 
ATOM      6  C   UNL     1       1.256   8.115  21.258  0.00  0.00    +0.000 A 
ATOM      7  C   UNL     1       0.452   9.126  21.789  0.00  0.00    +0.000 A 
ATOM      8  F   UNL     1      -0.022   8.965  23.033  0.00  0.00    +0.000 F 
ENDROOT
BRANCH   1  10
ATOM      9  N   UNL     1      -1.843  11.709  20.852  0.00  0.00    +0.000 N 
ATOM     10  C   UNL     1      -0.718  11.335  21.591  0.00  0.00    +0.000 C 
ATOM     11  O   UNL     1      -0.379  11.910  22.620  0.00  0.00    +0.000 OA
ATOM     12  H   UNL     1      -2.072  11.276  19.957  0.00  0.00    +0.000 HD
BRANCH   9  14
ATOM     13  C   UNL     1      -4.166  12.851  20.126  0.00  0.00    +0.000 C 
ATOM     14  S   UNL     1      -2.901  12.878  21.372  0.00  0.00    +0.000 S 
ATOM     15  O   UNL     1      -2.237  14.159  21.341  0.00  0.00    +0.000 OA
ATOM     16  O   UNL     1      -3.500  12.387  22.602  0.00  0.00    +0.000 OA
ENDBRANCH   9  14
ENDBRANCH   1  10
BRANCH   5  17
ATOM     17  O   UNL     1       2.584   7.287  19.372  0.00  0.00    +0.000 OA
BRANCH  17  18
ATOM     18  C   UNL     1       1.973   6.415  18.419  0.00  0.00    +0.000 C 
BRANCH  18  19
ATOM     19  C   UNL     1       2.358   4.930  18.651  0.00  0.00    +0.000 C 
ATOM     20  C   UNL     1       1.782   4.024  17.534  0.00  0.00    +0.000 C 
ATOM     21  C   UNL     1       2.102   2.541  17.810  0.00  0.00    +0.000 C 
ATOM     22  C   UNL     1       3.625   2.350  17.865  0.00  0.00    +0.000 C 
ATOM     23  C   UNL     1       4.223   3.226  18.979  0.00  0.00    +0.000 C 
ATOM     24  C   UNL     1       3.611   2.817  20.330  0.00  0.00    +0.000 C 
ATOM     25  C   UNL     1       2.084   2.996  20.285  0.00  0.00    +0.000 C 
ATOM     26 CL   UNL     1       1.372   2.516  21.852  0.00  0.00    +0.000 Cl
ATOM     27  C   UNL     1       1.492   2.128  19.160  0.00  0.00    +0.000 C 
ATOM     28  C   UNL     1       1.756   4.473  20.006  0.00  0.00    +0.000 C 
ATOM     29  C   UNL     1       3.894   4.709  18.694  0.00  0.00    +0.000 C 
ENDBRANCH  18  19
ENDBRANCH  17  18
ENDBRANCH   5  17
TORSDOF 5
ENDMDL
MODEL 3
REMARK VINA RESULT:      -8.4      1.106      1.251
REMARK  Name = 
REMARK  6 active torsions:
REMARK  status: ('A' for Active; 'I' for Inactive)
REMARK    1  A    between atoms: C_1  and  S_2
REMARK    2  A    between atoms: S_2  and  N_5
REMARK    3  A    between atoms: C_6  and  C_8
REMARK    4  A    between atoms: C_12  and  O_13
REMARK    5  A    between atoms: O_13  and  C_14
REMARK    6  A    between atoms: C_14  and  C_15
REMARK                            x       y       z     vdW  Elec       q    Type
REMARK                         _______ _______ _______ _____ _____    ______ ____
ROOT
ATOM      1  C   UNL     1      -0.239  10.659  21.098  0.00  0.00    +0.000 A 
ATOM      2  C   UNL     1       0.267  10.510  19.799  0.00  0.00    +0.000 A 
ATOM      3  C   UNL     1       1.064   9.401  19.483  0.00  0.00    +0.000 A 
ATOM      4 CL   UNL     1       1.698   9.296  17.878  0.00  0.00    +0.000 Cl
ATOM      5  C   UNL     1       1.341   8.413  20.442  0.00  0.00    +0.000 A 
ATOM      6  C   UNL     1       0.811   8.563  21.726  0.00  0.00    +0.000 A 
ATOM      7  C   UNL     1       0.038   9.681  22.046  0.00  0.00    +0.000 A 
ATOM      8  F   UNL     1      -0.446   9.775  23.293  0.00  0.00    +0.000 F 
ENDROOT
BRANCH   1  10
ATOM      9  N   UNL     1      -0.707  12.603  22.534  0.00  0.00    +0.000 N 
ATOM     10  C   UNL     1      -1.063  11.844  21.417  0.00  0.00    +0.000 C 
ATOM     11  O   UNL     1      -2.063  12.080  20.747  0.00  0.00    +0.000 OA
ATOM     12  H   UNL     1       0.081  12.352  23.131  0.00  0.00    +0.000 HD
BRANCH   9  14
ATOM     13  C   UNL     1      -3.033  13.330  23.672  0.00  0.00    +0.000 C 
ATOM     14  S   UNL     1      -1.531  13.975  22.977  0.00  0.00    +0.000 S 
ATOM     15  O   UNL     1      -1.848  14.736  21.793  0.00  0.00    +0.000 OA
ATOM     16  O   UNL     1      -0.782  14.583  24.065  0.00  0.00    +0.000 OA
ENDBRANCH   9  14
ENDBRANCH   1  10
BRANCH   5  17
ATOM     17  O   UNL     1       2.120   7.350  20.047  0.00  0.00    +0.000 OA
BRANCH  17  18
ATOM     18  C   UNL     1       1.730   6.051  20.500  0.00  0.00    +0.000 C 
BRANCH  18  19
ATOM     19  C   UNL     1       2.368   4.918  19.654  0.00  0.00    +0.000 C 
ATOM     20  C   UNL     1       2.259   3.554  20.379  0.00  0.00    +0.000 C 
ATOM     21  C   UNL     1       2.962   2.445  19.571  0.00  0.00    +0.000 C 
ATOM     22  C   UNL     1       2.303   2.325  18.189  0.00  0.00    +0.000 C 
ATOM     23  C   UNL     1       2.411   3.663  17.438  0.00  0.00    +0.000 C 
ATOM     24  C   UNL     1       3.896   4.027  17.262  0.00  0.00    +0.000 C 
ATOM     25  C   UNL     1       4.571   4.141  18.640  0.00  0.00    +0.000 C 
ATOM     26 CL   UNL     1       6.297   4.558  18.435  0.00  0.00    +0.000 Cl
ATOM     27  C   UNL     1       4.447   2.804  19.392  0.00  0.00    +0.000 C 
ATOM     28  C   UNL     1       3.872   5.243  19.454  0.00  0.00    +0.000 C 
ATOM     29  C   UNL     1       1.706   4.767  18.258  0.00  0.00    +0.000 C 
ENDBRANCH  18  19
ENDBRANCH  17  18
ENDBRANCH   5  17
TORSDOF 5
ENDMDL
MODEL 4
REMARK VINA RESULT:      -8.4      1.262      1.417
REMARK  Name = 
REMARK  6 active torsions:
REMARK  status: ('A' for Active; 'I' for Inactive)
REMARK    1  A    between atoms: C_1  and  S_2
REMARK    2  A    between atoms: S_2  and  N_5
REMARK    3  A    between atoms: C_6  and  C_8
REMARK    4  A    between atoms: C_12  and  O_13
REMARK    5  A    between atoms: O_13  and  C_14
REMARK    6  A    between atoms: C_14  and  C_15
REMARK                            x       y       z     vdW  Elec       q    Type
REMARK                         _______ _______ _______ _____ _____    ______ ____
ROOT
ATOM      1  C   UNL     1       0.025  10.718  21.274  0.00  0.00    +0.000 A 
ATOM      2  C   UNL     1       0.355  10.539  19.923  0.00  0.00    +0.000 A 
ATOM      3  C   UNL     1       1.077   9.405  19.525  0.00  0.00    +0.000 A 
ATOM      4 CL   UNL     1       1.494   9.261  17.854  0.00  0.00    +0.000 Cl
ATOM      5  C   UNL     1       1.450   8.422  20.457  0.00  0.00    +0.000 A 
ATOM      6  C   UNL     1       1.095   8.603  21.795  0.00  0.00    +0.000 A 
ATOM      7  C   UNL     1       0.397   9.746  22.194  0.00  0.00    +0.000 A 
ATOM      8  F   UNL     1       0.081   9.869  23.491  0.00  0.00    +0.000 F 
ENDROOT
BRANCH   1  10
ATOM      9  N   UNL     1       0.015  13.080  21.970  0.00  0.00    +0.000 N 
ATOM     10  C   UNL     1      -0.721  11.930  21.677  0.00  0.00    +0.000 C 
ATOM     11  O   UNL     1      -1.938  11.869  21.812  0.00  0.00    +0.000 OA
ATOM     12  H   UNL     1       1.034  13.096  21.930  0.00  0.00    +0.000 HD
BRANCH   9  14
ATOM     13  C   UNL     1       0.647  15.663  22.372  0.00  0.00    +0.000 C 
ATOM     14  S   UNL     1      -0.706  14.512  22.400  0.00  0.00    +0.000 S 
ATOM     15  O   UNL     1      -1.203  14.402  23.750  0.00  0.00    +0.000 OA
ATOM     16  O   UNL     1      -1.601  14.876  21.313  0.00  0.00    +0.000 OA
ENDBRANCH   9  14
ENDBRANCH   1  10
BRANCH   5  17
ATOM     17  O   UNL     1       2.145   7.333  19.982  0.00  0.00    +0.000 OA
BRANCH  17  18
ATOM     18  C   UNL     1       1.708   6.042  20.414  0.00  0.00    +0.000 C 
BRANCH  18  19
ATOM     19  C   UNL     1       2.370   4.897  19.605  0.00  0.00    +0.000 C 
ATOM     20  C   UNL     1       2.253   3.546  20.353  0.00  0.00    +0.000 C 
ATOM     21  C   UNL     1       2.980   2.426  19.582  0.00  0.00    +0.000 C 
ATOM     22  C   UNL     1       2.351   2.276  18.188  0.00  0.00    +0.000 C 
ATOM     23  C   UNL     1       2.469   3.600  17.415  0.00  0.00    +0.000 C 
ATOM     24  C   UNL     1       3.955   3.969  17.264  0.00  0.00    +0.000 C 
ATOM     25  C   UNL     1       4.599   4.114  18.653  0.00  0.00    +0.000 C 
ATOM     26 CL   UNL     1       6.327   4.537  18.478  0.00  0.00    +0.000 Cl
ATOM     27  C   UNL     1       4.466   2.790  19.428  0.00  0.00    +0.000 C 
ATOM     28  C   UNL     1       3.877   5.227  19.431  0.00  0.00    +0.000 C 
ATOM     29  C   UNL     1       1.740   4.715  18.197  0.00  0.00    +0.000 C 
ENDBRANCH  18  19
ENDBRANCH  17  18
ENDBRANCH   5  17
TORSDOF 5
ENDMDL
MODEL 5
REMARK VINA RESULT:      -8.2      0.996      1.101
REMARK  Name = 
REMARK  6 active torsions:
REMARK  status: ('A' for Active; 'I' for Inactive)
REMARK    1  A    between atoms: C_1  and  S_2
REMARK    2  A    between atoms: S_2  and  N_5
REMARK    3  A    between atoms: C_6  and  C_8
REMARK    4  A    between atoms: C_12  and  O_13
REMARK    5  A    between atoms: O_13  and  C_14
REMARK    6  A    between atoms: C_14  and  C_15
REMARK                            x       y       z     vdW  Elec       q    Type
REMARK                         _______ _______ _______ _____ _____    ______ ____
ROOT
ATOM      1  C   UNL     1      -0.183  10.444  21.584  0.00  0.00    +0.000 A 
ATOM      2  C   UNL     1       0.095  10.479  20.211  0.00  0.00    +0.000 A 
ATOM      3  C   UNL     1       0.926   9.504  19.642  0.00  0.00    +0.000 A 
ATOM      4 CL   UNL     1       1.270   9.625  17.952  0.00  0.00    +0.000 Cl
ATOM      5  C   UNL     1       1.464   8.467  20.423  0.00  0.00    +0.000 A 
ATOM      6  C   UNL     1       1.159   8.433  21.786  0.00  0.00    +0.000 A 
ATOM      7  C   UNL     1       0.351   9.419  22.355  0.00  0.00    +0.000 A 
ATOM      8  F   UNL     1       0.091   9.338  23.668  0.00  0.00    +0.000 F 
ENDROOT
BRANCH   1  10
ATOM      9  N   UNL     1      -2.242  11.793  21.512  0.00  0.00    +0.000 N 
ATOM     10  C   UNL     1      -1.048  11.492  22.170  0.00  0.00    +0.000 C 
ATOM     11  O   UNL     1      -0.661  12.108  23.157  0.00  0.00    +0.000 OA
ATOM     12  H   UNL     1      -2.516  11.329  20.646  0.00  0.00    +0.000 HD
BRANCH   9  14
ATOM     13  C   UNL     1      -4.567  12.960  20.827  0.00  0.00    +0.000 C 
ATOM     14  S   UNL     1      -3.314  12.924  22.086  0.00  0.00    +0.000 S 
ATOM     15  O   UNL     1      -2.660  14.209  22.136  0.00  0.00    +0.000 OA
ATOM     16  O   UNL     1      -3.922  12.359  23.280  0.00  0.00    +0.000 OA
ENDBRANCH   9  14
ENDBRANCH   1  10
BRANCH   5  17
ATOM     17  O   UNL     1       2.258   7.543  19.785  0.00  0.00    +0.000 OA
BRANCH  17  18
ATOM     18  C   UNL     1       1.911   6.165  19.942  0.00  0.00    +0.000 C 
BRANCH  18  19
ATOM     19  C   UNL     1       2.843   5.229  19.130  0.00  0.00    +0.000 C 
ATOM     20  C   UNL     1       3.567   4.222  20.058  0.00  0.00    +0.000 C 
ATOM     21  C   UNL     1       4.551   3.345  19.258  0.00  0.00    +0.000 C 
ATOM     22  C   UNL     1       3.778   2.562  18.186  0.00  0.00    +0.000 C 
ATOM     23  C   UNL     1       3.062   3.538  17.238  0.00  0.00    +0.000 C 
ATOM     24  C   UNL     1       4.105   4.439  16.554  0.00  0.00    +0.000 C 
ATOM     25  C   UNL     1       4.893   5.223  17.618  0.00  0.00    +0.000 C 
ATOM     26 CL   UNL     1       6.109   6.265  16.824  0.00  0.00    +0.000 Cl
ATOM     27  C   UNL     1       5.596   4.241  18.572  0.00  0.00    +0.000 C 
ATOM     28  C   UNL     1       3.918   6.098  18.424  0.00  0.00    +0.000 C 
ATOM     29  C   UNL     1       2.082   4.413  18.050  0.00  0.00    +0.000 C 
ENDBRANCH  18  19
ENDBRANCH  17  18
ENDBRANCH   5  17
TORSDOF 5
ENDMDL
MODEL 6
REMARK VINA RESULT:      -8.2      1.788      2.289
REMARK  Name = 
REMARK  6 active torsions:
REMARK  status: ('A' for Active; 'I' for Inactive)
REMARK    1  A    between atoms: C_1  and  S_2
REMARK    2  A    between atoms: S_2  and  N_5
REMARK    3  A    between atoms: C_6  and  C_8
REMARK    4  A    between atoms: C_12  and  O_13
REMARK    5  A    between atoms: O_13  and  C_14
REMARK    6  A    between atoms: C_14  and  C_15
REMARK                            x       y       z     vdW  Elec       q    Type
REMARK                         _______ _______ _______ _____ _____    ______ ____
ROOT
ATOM      1  C   UNL     1       0.089  10.504  21.417  0.00  0.00    +0.000 A 
ATOM      2  C   UNL     1       0.444  10.780  20.090  0.00  0.00    +0.000 A 
ATOM      3  C   UNL     1       1.116   9.812  19.330  0.00  0.00    +0.000 A 
ATOM      4 CL   UNL     1       1.568  10.228  17.714  0.00  0.00    +0.000 Cl
ATOM      5  C   UNL     1       1.414   8.550  19.870  0.00  0.00    +0.000 A 
ATOM      6  C   UNL     1       1.034   8.281  21.186  0.00  0.00    +0.000 A 
ATOM      7  C   UNL     1       0.386   9.255  21.949  0.00  0.00    +0.000 A 
ATOM      8  F   UNL     1       0.044   8.944  23.208  0.00  0.00    +0.000 F 
ENDROOT
BRANCH   1  10
ATOM      9  N   UNL     1      -0.365  12.880  21.877  0.00  0.00    +0.000 N 
ATOM     10  C   UNL     1      -0.604  11.544  22.208  0.00  0.00    +0.000 C 
ATOM     11  O   UNL     1      -1.297  11.211  23.163  0.00  0.00    +0.000 OA
ATOM     12  H   UNL     1       0.276  13.147  21.130  0.00  0.00    +0.000 HD
BRANCH   9  14
ATOM     13  C   UNL     1      -0.387  15.569  21.899  0.00  0.00    +0.000 C 
ATOM     14  S   UNL     1      -1.108  14.138  22.666  0.00  0.00    +0.000 S 
ATOM     15  O   UNL     1      -0.729  14.110  24.058  0.00  0.00    +0.000 OA
ATOM     16  O   UNL     1      -2.509  14.107  22.282  0.00  0.00    +0.000 OA
ENDBRANCH   9  14
ENDBRANCH   1  10
BRANCH   5  17
ATOM     17  O   UNL     1       2.063   7.652  19.053  0.00  0.00    +0.000 OA
BRANCH  17  18
ATOM     18  C   UNL     1       3.093   6.858  19.647  0.00  0.00    +0.000 C 
BRANCH  18  19
ATOM     19  C   UNL     1       2.911   5.346  19.352  0.00  0.00    +0.000 C 
ATOM     20  C   UNL     1       1.956   5.122  18.154  0.00  0.00    +0.000 C 
ATOM     21  C   UNL     1       1.717   3.618  17.914  0.00  0.00    +0.000 C 
ATOM     22  C   UNL     1       3.058   2.931  17.613  0.00  0.00    +0.000 C 
ATOM     23  C   UNL     1       4.022   3.122  18.796  0.00  0.00    +0.000 C 
ATOM     24  C   UNL     1       3.405   2.498  20.059  0.00  0.00    +0.000 C 
ATOM     25  C   UNL     1       2.056   3.171  20.367  0.00  0.00    +0.000 C 
ATOM     26 CL   UNL     1       1.337   2.443  21.832  0.00  0.00    +0.000 Cl
ATOM     27  C   UNL     1       1.100   2.989  19.174  0.00  0.00    +0.000 C 
ATOM     28  C   UNL     1       2.285   4.674  20.604  0.00  0.00    +0.000 C 
ATOM     29  C   UNL     1       4.251   4.632  19.029  0.00  0.00    +0.000 C 
ENDBRANCH  18  19
ENDBRANCH  17  18
ENDBRANCH   5  17
TORSDOF 5
ENDMDL
MODEL 7
REMARK VINA RESULT:      -8.2      1.770      2.326
REMARK  Name = 
REMARK  6 active torsions:
REMARK  status: ('A' for Active; 'I' for Inactive)
REMARK    1  A    between atoms: C_1  and  S_2
REMARK    2  A    between atoms: S_2  and  N_5
REMARK    3  A    between atoms: C_6  and  C_8
REMARK    4  A    between atoms: C_12  and  O_13
REMARK    5  A    between atoms: O_13  and  C_14
REMARK    6  A    between atoms: C_14  and  C_15
REMARK                            x       y       z     vdW  Elec       q    Type
REMARK                         _______ _______ _______ _____ _____    ______ ____
ROOT
ATOM      1  C   UNL     1      -0.132  10.491  20.897  0.00  0.00    +0.000 A 
ATOM      2  C   UNL     1       0.529  10.504  19.662  0.00  0.00    +0.000 A 
ATOM      3  C   UNL     1       1.387   9.450  19.318  0.00  0.00    +0.000 A 
ATOM      4 CL   UNL     1       2.211   9.543  17.801  0.00  0.00    +0.000 Cl
ATOM      5  C   UNL     1       1.572   8.358  20.182  0.00  0.00    +0.000 A 
ATOM      6  C   UNL     1       0.888   8.348  21.400  0.00  0.00    +0.000 A 
ATOM      7  C   UNL     1       0.053   9.411  21.751  0.00  0.00    +0.000 A 
ATOM      8  F   UNL     1      -0.578   9.351  22.932  0.00  0.00    +0.000 F 
ENDROOT
BRANCH   1  10
ATOM      9  N   UNL     1      -0.679  12.393  22.364  0.00  0.00    +0.000 N 
ATOM     10  C   UNL     1      -1.019  11.622  21.250  0.00  0.00    +0.000 C 
ATOM     11  O   UNL     1      -2.049  11.800  20.609  0.00  0.00    +0.000 OA
ATOM     12  H   UNL     1       0.139  12.186  22.937  0.00  0.00    +0.000 HD
BRANCH   9  14
ATOM     13  C   UNL     1      -3.026  12.967  23.545  0.00  0.00    +0.000 C 
ATOM     14  S   UNL     1      -1.573  13.708  22.841  0.00  0.00    +0.000 S 
ATOM     15  O   UNL     1      -1.950  14.469  21.675  0.00  0.00    +0.000 OA
ATOM     16  O   UNL     1      -0.845  14.339  23.930  0.00  0.00    +0.000 OA
ENDBRANCH   9  14
ENDBRANCH   1  10
BRANCH   5  17
ATOM     17  O   UNL     1       2.420   7.357  19.763  0.00  0.00    +0.000 OA
BRANCH  17  18
ATOM     18  C   UNL     1       2.020   6.601  18.619  0.00  0.00    +0.000 C 
BRANCH  18  19
ATOM     19  C   UNL     1       2.370   5.096  18.758  0.00  0.00    +0.000 C 
ATOM     20  C   UNL     1       1.742   4.269  17.609  0.00  0.00    +0.000 C 
ATOM     21  C   UNL     1       2.027   2.765  17.794  0.00  0.00    +0.000 C 
ATOM     22  C   UNL     1       3.546   2.532  17.799  0.00  0.00    +0.000 C 
ATOM     23  C   UNL     1       4.195   3.329  18.943  0.00  0.00    +0.000 C 
ATOM     24  C   UNL     1       3.606   2.862  20.285  0.00  0.00    +0.000 C 
ATOM     25  C   UNL     1       2.083   3.082  20.290  0.00  0.00    +0.000 C 
ATOM     26 CL   UNL     1       1.398   2.534  21.847  0.00  0.00    +0.000 Cl
ATOM     27  C   UNL     1       1.440   2.293  19.135  0.00  0.00    +0.000 C 
ATOM     28  C   UNL     1       1.790   4.580  20.101  0.00  0.00    +0.000 C 
ATOM     29  C   UNL     1       3.900   4.833  18.749  0.00  0.00    +0.000 C 
ENDBRANCH  18  19
ENDBRANCH  17  18
ENDBRANCH   5  17
TORSDOF 5
ENDMDL
MODEL 8
REMARK VINA RESULT:      -8.1      1.270      1.615
REMARK  Name = 
REMARK  6 active torsions:
REMARK  status: ('A' for Active; 'I' for Inactive)
REMARK    1  A    between atoms: C_1  and  S_2
REMARK    2  A    between atoms: S_2  and  N_5
REMARK    3  A    between atoms: C_6  and  C_8
REMARK    4  A    between atoms: C_12  and  O_13
REMARK    5  A    between atoms: O_13  and  C_14
REMARK    6  A    between atoms: C_14  and  C_15
REMARK                            x       y       z     vdW  Elec       q    Type
REMARK                         _______ _______ _______ _____ _____    ______ ____
ROOT
ATOM      1  C   UNL     1      -0.236  10.602  21.521  0.00  0.00    +0.000 A 
ATOM      2  C   UNL     1       0.090  10.749  20.166  0.00  0.00    +0.000 A 
ATOM      3  C   UNL     1       0.827   9.752  19.512  0.00  0.00    +0.000 A 
ATOM      4 CL   UNL     1       1.238  10.010  17.853  0.00  0.00    +0.000 Cl
ATOM      5  C   UNL     1       1.222   8.585  20.188  0.00  0.00    +0.000 A 
ATOM      6  C   UNL     1       0.871   8.443  21.532  0.00  0.00    +0.000 A 
ATOM      7  C   UNL     1       0.157   9.448  22.188  0.00  0.00    +0.000 A 
ATOM      8  F   UNL     1      -0.153   9.260  23.479  0.00  0.00    +0.000 F 
ENDROOT
BRANCH   1  10
ATOM      9  N   UNL     1      -2.248  12.015  21.672  0.00  0.00    +0.000 N 
ATOM     10  C   UNL     1      -0.999  11.673  22.197  0.00  0.00    +0.000 C 
ATOM     11  O   UNL     1      -0.489  12.272  23.138  0.00  0.00    +0.000 OA
ATOM     12  H   UNL     1      -2.628  11.563  20.840  0.00  0.00    +0.000 HD
BRANCH   9  14
ATOM     13  C   UNL     1      -3.616  12.472  23.941  0.00  0.00    +0.000 C 
ATOM     14  S   UNL     1      -3.215  13.175  22.360  0.00  0.00    +0.000 S 
ATOM     15  O   UNL     1      -4.423  13.303  21.582  0.00  0.00    +0.000 OA
ATOM     16  O   UNL     1      -2.372  14.333  22.608  0.00  0.00    +0.000 OA
ENDBRANCH   9  14
ENDBRANCH   1  10
BRANCH   5  17
ATOM     17  O   UNL     1       1.931   7.649  19.470  0.00  0.00    +0.000 OA
BRANCH  17  18
ATOM     18  C   UNL     1       2.676   6.683  20.216  0.00  0.00    +0.000 C 
BRANCH  18  19
ATOM     19  C   UNL     1       2.372   5.231  19.763  0.00  0.00    +0.000 C 
ATOM     20  C   UNL     1       1.122   4.671  20.487  0.00  0.00    +0.000 C 
ATOM     21  C   UNL     1       0.871   3.202  20.092  0.00  0.00    +0.000 C 
ATOM     22  C   UNL     1       0.645   3.114  18.575  0.00  0.00    +0.000 C 
ATOM     23  C   UNL     1       1.880   3.648  17.829  0.00  0.00    +0.000 C 
ATOM     24  C   UNL     1       3.107   2.802  18.210  0.00  0.00    +0.000 C 
ATOM     25  C   UNL     1       3.339   2.875  19.729  0.00  0.00    +0.000 C 
ATOM     26 CL   UNL     1       4.762   1.888  20.171  0.00  0.00    +0.000 Cl
ATOM     27  C   UNL     1       2.095   2.352  20.470  0.00  0.00    +0.000 C 
ATOM     28  C   UNL     1       3.587   4.338  20.132  0.00  0.00    +0.000 C 
ATOM     29  C   UNL     1       2.124   5.119  18.235  0.00  0.00    +0.000 C 
ENDBRANCH  18  19
ENDBRANCH  17  18
ENDBRANCH   5  17
TORSDOF 5
ENDMDL
MODEL 9
REMARK VINA RESULT:      -8.0      1.177      1.539
REMARK  Name = 
REMARK  6 active torsions:
REMARK  status: ('A' for Active; 'I' for Inactive)
REMARK    1  A    between atoms: C_1  and  S_2
REMARK    2  A    between atoms: S_2  and  N_5
REMARK    3  A    between atoms: C_6  and  C_8
REMARK    4  A    between atoms: C_12  and  O_13
REMARK    5  A    between atoms: O_13  and  C_14
REMARK    6  A    between atoms: C_14  and  C_15
REMARK                            x       y       z     vdW  Elec       q    Type
REMARK                         _______ _______ _______ _____ _____    ______ ____
ROOT
ATOM      1  C   UNL     1      -0.009  10.718  21.383  0.00  0.00    +0.000 A 
ATOM      2  C   UNL     1       0.319  10.501  20.038  0.00  0.00    +0.000 A 
ATOM      3  C   UNL     1       1.038   9.354  19.671  0.00  0.00    +0.000 A 
ATOM      4 CL   UNL     1       1.454   9.163  18.004  0.00  0.00    +0.000 Cl
ATOM      5  C   UNL     1       1.409   8.396  20.630  0.00  0.00    +0.000 A 
ATOM      6  C   UNL     1       1.055   8.616  21.962  0.00  0.00    +0.000 A 
ATOM      7  C   UNL     1       0.360   9.771  22.330  0.00  0.00    +0.000 A 
ATOM      8  F   UNL     1       0.046   9.931  23.623  0.00  0.00    +0.000 F 
ENDROOT
BRANCH   1  10
ATOM      9  N   UNL     1      -1.879  11.801  22.565  0.00  0.00    +0.000 N 
ATOM     10  C   UNL     1      -0.752  11.943  21.753  0.00  0.00    +0.000 C 
ATOM     11  O   UNL     1      -0.405  13.021  21.282  0.00  0.00    +0.000 OA
ATOM     12  H   UNL     1      -2.204  10.889  22.886  0.00  0.00    +0.000 HD
BRANCH   9  14
ATOM     13  C   UNL     1      -3.935  12.364  24.204  0.00  0.00    +0.000 C 
ATOM     14  S   UNL     1      -2.776  13.101  23.077  0.00  0.00    +0.000 S 
ATOM     15  O   UNL     1      -3.496  13.648  21.952  0.00  0.00    +0.000 OA
ATOM     16  O   UNL     1      -1.888  13.941  23.863  0.00  0.00    +0.000 OA
ENDBRANCH   9  14
ENDBRANCH   1  10
BRANCH   5  17
ATOM     17  O   UNL     1       2.100   7.293  20.185  0.00  0.00    +0.000 OA
BRANCH  17  18
ATOM     18  C   UNL     1       1.589   6.010  20.555  0.00  0.00    +0.000 C 
BRANCH  18  19
ATOM     19  C   UNL     1       2.132   4.877  19.646  0.00  0.00    +0.000 C 
ATOM     20  C   UNL     1       0.987   3.951  19.166  0.00  0.00    +0.000 C 
ATOM     21  C   UNL     1       1.541   2.782  18.327  0.00  0.00    +0.000 C 
ATOM     22  C   UNL     1       2.275   3.339  17.098  0.00  0.00    +0.000 C 
ATOM     23  C   UNL     1       3.430   4.251  17.546  0.00  0.00    +0.000 C 
ATOM     24  C   UNL     1       4.417   3.436  18.400  0.00  0.00    +0.000 C 
ATOM     25  C   UNL     1       3.692   2.864  19.631  0.00  0.00    +0.000 C 
ATOM     26 CL   UNL     1       4.838   1.912  20.619  0.00  0.00    +0.000 Cl
ATOM     27  C   UNL     1       2.529   1.964  19.176  0.00  0.00    +0.000 C 
ATOM     28  C   UNL     1       3.133   4.024  20.471  0.00  0.00    +0.000 C 
ATOM     29  C   UNL     1       2.864   5.416  18.388  0.00  0.00    +0.000 C 
ENDBRANCH  18  19
ENDBRANCH  17  18
ENDBRANCH   5  17
TORSDOF 5
ENDMDL
