MODEL 1
REMARK VINA RESULT:      -7.6      0.000      0.000
REMARK  Name = 
REMARK  5 active torsions:
REMARK  status: ('A' for Active; 'I' for Inactive)
REMARK    1  A    between atoms: C_1  and  C_2
REMARK    2  A    between atoms: C_3  and  C_4
REMARK    3  A    between atoms: C_4  and  C_5
REMARK    4  A    between atoms: C_4  and  N_6
REMARK    5  A    between atoms: N_9  and  C_10
REMARK                            x       y       z     vdW  Elec       q    Type
REMARK                         _______ _______ _______ _____ _____    ______ ____
ROOT
ATOM      1  C   UNL     1       3.012   5.886  19.378  0.00  0.00    +0.000 C 
ATOM      2  C   UNL     1       3.570   4.549  19.731  0.00  0.00    +0.000 A 
ATOM      3  C   UNL     1       2.933   3.484  20.352  0.00  0.00    +0.000 A 
ATOM      4  C   UNL     1       3.897   2.460  20.357  0.00  0.00    +0.000 A 
ATOM      5  N   UNL     1       5.028   2.814  19.762  0.00  0.00    +0.000 NA
ATOM      6  N   UNL     1       4.831   4.090  19.347  0.00  0.00    +0.000 N 
ENDROOT
BRANCH   6   7
ATOM      7  C   UNL     1       5.832   4.776  18.595  0.00  0.00    +0.000 A 
ATOM      8  C   UNL     1       6.736   5.591  19.296  0.00  0.00    +0.000 A 
ATOM      9  C   UNL     1       7.657   6.386  18.635  0.00  0.00    +0.000 A 
ATOM     10  C   UNL     1       7.733   6.324  17.247  0.00  0.00    +0.000 A 
ATOM     11  C   UNL     1       6.896   5.472  16.513  0.00  0.00    +0.000 A 
ATOM     12  C   UNL     1       7.023   5.433  15.115  0.00  0.00    +0.000 A 
ATOM     13  C   UNL     1       6.202   4.620  14.335  0.00  0.00    +0.000 A 
ATOM     14  C   UNL     1       5.233   3.842  14.941  0.00  0.00    +0.000 A 
ATOM     15  C   UNL     1       5.090   3.876  16.328  0.00  0.00    +0.000 A 
ATOM     16  C   UNL     1       5.921   4.672  17.168  0.00  0.00    +0.000 A 
ENDBRANCH   6   7
BRANCH   3  17
ATOM     17  C   UNL     1       1.523   3.423  20.859  0.00  0.00    +0.000 C 
ATOM     18  C   UNL     1       0.512   2.960  19.812  0.00  0.00    +0.000 C 
BRANCH  17  19
ATOM     19  N   UNL     1       1.493   2.544  22.020  0.00  0.00    +0.000 NA
ATOM     20  H   UNL     1       1.727   1.595  21.729  0.00  0.00    +0.000 HD
ATOM     21  H   UNL     1       0.544   2.499  22.379  0.00  0.00    +0.000 HD
ENDBRANCH  17  19
ENDBRANCH   3  17
TORSDOF 3
ENDMDL
MODEL 2
REMARK VINA RESULT:      -7.3      1.058      1.078
REMARK  Name = 
REMARK  5 active torsions:
REMARK  status: ('A' for Active; 'I' for Inactive)
REMARK    1  A    between atoms: C_1  and  C_2
REMARK    2  A    between atoms: C_3  and  C_4
REMARK    3  A    between atoms: C_4  and  C_5
REMARK    4  A    between atoms: C_4  and  N_6
REMARK    5  A    between atoms: N_9  and  C_10
REMARK                            x       y       z     vdW  Elec       q    Type
REMARK                         _______ _______ _______ _____ _____    ______ ____
ROOT
ATOM      1  C   UNL     1       2.712   5.016  18.123  0.00  0.00    +0.000 C 
ATOM      2  C   UNL     1       3.441   3.973  18.901  0.00  0.00    +0.000 A 
ATOM      3  C   UNL     1       2.919   2.889  19.593  0.00  0.00    +0.000 A 
ATOM      4  C   UNL     1       4.053   2.200  20.061  0.00  0.00    +0.000 A 
ATOM      5  N   UNL     1       5.192   2.760  19.676  0.00  0.00    +0.000 NA
ATOM      6  N   UNL     1       4.830   3.838  18.937  0.00  0.00    +0.000 N 
ENDROOT
BRANCH   6   7
ATOM      7  C   UNL     1       5.816   4.648  18.295  0.00  0.00    +0.000 A 
ATOM      8  C   UNL     1       6.540   5.552  19.089  0.00  0.00    +0.000 A 
ATOM      9  C   UNL     1       7.424   6.458  18.529  0.00  0.00    +0.000 A 
ATOM     10  C   UNL     1       7.650   6.426  17.157  0.00  0.00    +0.000 A 
ATOM     11  C   UNL     1       6.999   5.494  16.337  0.00  0.00    +0.000 A 
ATOM     12  C   UNL     1       7.273   5.490  14.960  0.00  0.00    +0.000 A 
ATOM     13  C   UNL     1       6.639   4.599  14.096  0.00  0.00    +0.000 A 
ATOM     14  C   UNL     1       5.711   3.704  14.596  0.00  0.00    +0.000 A 
ATOM     15  C   UNL     1       5.423   3.700  15.961  0.00  0.00    +0.000 A 
ATOM     16  C   UNL     1       6.062   4.576  16.885  0.00  0.00    +0.000 A 
ENDBRANCH   6   7
BRANCH   3  17
ATOM     17  C   UNL     1       1.478   2.512  19.761  0.00  0.00    +0.000 C 
ATOM     18  C   UNL     1       0.606   3.640  20.306  0.00  0.00    +0.000 C 
BRANCH  17  19
ATOM     19  N   UNL     1       0.973   2.055  18.473  0.00  0.00    +0.000 NA
ATOM     20  H   UNL     1       1.136   1.052  18.385  0.00  0.00    +0.000 HD
ATOM     21  H   UNL     1       1.513   2.491  17.730  0.00  0.00    +0.000 HD
ENDBRANCH  17  19
ENDBRANCH   3  17
TORSDOF 3
ENDMDL
MODEL 3
REMARK VINA RESULT:      -7.0      1.260      1.812
REMARK  Name = 
REMARK  5 active torsions:
REMARK  status: ('A' for Active; 'I' for Inactive)
REMARK    1  A    between atoms: C_1  and  C_2
REMARK    2  A    between atoms: C_3  and  C_4
REMARK    3  A    between atoms: C_4  and  C_5
REMARK    4  A    between atoms: C_4  and  N_6
REMARK    5  A    between atoms: N_9  and  C_10
REMARK                            x       y       z     vdW  Elec       q    Type
REMARK                         _______ _______ _______ _____ _____    ______ ____
ROOT
ATOM      1  C   UNL     1       4.509   2.347  19.722  0.00  0.00    +0.000 C 
ATOM      2  C   UNL     1       3.546   3.343  19.170  0.00  0.00    +0.000 A 
ATOM      3  C   UNL     1       2.176   3.422  19.372  0.00  0.00    +0.000 A 
ATOM      4  C   UNL     1       1.793   4.593  18.691  0.00  0.00    +0.000 A 
ATOM      5  N   UNL     1       2.820   5.227  18.140  0.00  0.00    +0.000 NA
ATOM      6  N   UNL     1       3.910   4.483  18.450  0.00  0.00    +0.000 N 
ENDROOT
BRANCH   6   7
ATOM      7  C   UNL     1       5.219   4.911  18.072  0.00  0.00    +0.000 A 
ATOM      8  C   UNL     1       6.030   5.493  19.060  0.00  0.00    +0.000 A 
ATOM      9  C   UNL     1       7.261   6.045  18.752  0.00  0.00    +0.000 A 
ATOM     10  C   UNL     1       7.734   5.962  17.447  0.00  0.00    +0.000 A 
ATOM     11  C   UNL     1       6.986   5.329  16.444  0.00  0.00    +0.000 A 
ATOM     12  C   UNL     1       7.514   5.257  15.145  0.00  0.00    +0.000 A 
ATOM     13  C   UNL     1       6.804   4.658  14.106  0.00  0.00    +0.000 A 
ATOM     14  C   UNL     1       5.548   4.132  14.348  0.00  0.00    +0.000 A 
ATOM     15  C   UNL     1       5.008   4.203  15.632  0.00  0.00    +0.000 A 
ATOM     16  C   UNL     1       5.705   4.784  16.730  0.00  0.00    +0.000 A 
ENDBRANCH   6   7
BRANCH   3  17
ATOM     17  C   UNL     1       1.308   2.499  20.174  0.00  0.00    +0.000 C 
ATOM     18  C   UNL     1       1.332   2.780  21.675  0.00  0.00    +0.000 C 
BRANCH  17  19
ATOM     19  N   UNL     1      -0.052   2.591  19.660  0.00  0.00    +0.000 NA
ATOM     20  H   UNL     1      -0.315   1.699  19.243  0.00  0.00    +0.000 HD
ATOM     21  H   UNL     1      -0.077   3.270  18.905  0.00  0.00    +0.000 HD
ENDBRANCH  17  19
ENDBRANCH   3  17
TORSDOF 3
ENDMDL
MODEL 4
REMARK VINA RESULT:      -6.8      1.064      1.677
REMARK  Name = 
REMARK  5 active torsions:
REMARK  status: ('A' for Active; 'I' for Inactive)
REMARK    1  A    between atoms: C_1  and  C_2
REMARK    2  A    between atoms: C_3  and  C_4
REMARK    3  A    between atoms: C_4  and  C_5
REMARK    4  A    between atoms: C_4  and  N_6
REMARK    5  A    between atoms: N_9  and  C_10
REMARK                            x       y       z     vdW  Elec       q    Type
REMARK                         _______ _______ _______ _____ _____    ______ ____
ROOT
ATOM      1  C   UNL     1       3.676   2.407  18.884  0.00  0.00    +0.000 C 
ATOM      2  C   UNL     1       3.152   3.789  19.081  0.00  0.00    +0.000 A 
ATOM      3  C   UNL     1       1.923   4.183  19.591  0.00  0.00    +0.000 A 
ATOM      4  C   UNL     1       1.998   5.587  19.630  0.00  0.00    +0.000 A 
ATOM      5  N   UNL     1       3.173   6.051  19.225  0.00  0.00    +0.000 NA
ATOM      6  N   UNL     1       3.904   4.954  18.909  0.00  0.00    +0.000 N 
ENDROOT
BRANCH   6   7
ATOM      7  C   UNL     1       5.265   5.076  18.496  0.00  0.00    +0.000 A 
ATOM      8  C   UNL     1       6.217   5.424  19.468  0.00  0.00    +0.000 A 
ATOM      9  C   UNL     1       7.534   5.683  19.129  0.00  0.00    +0.000 A 
ATOM     10  C   UNL     1       7.938   5.530  17.807  0.00  0.00    +0.000 A 
ATOM     11  C   UNL     1       7.035   5.118  16.817  0.00  0.00    +0.000 A 
ATOM     12  C   UNL     1       7.494   4.962  15.500  0.00  0.00    +0.000 A 
ATOM     13  C   UNL     1       6.634   4.575  14.473  0.00  0.00    +0.000 A 
ATOM     14  C   UNL     1       5.298   4.349  14.747  0.00  0.00    +0.000 A 
ATOM     15  C   UNL     1       4.825   4.508  16.049  0.00  0.00    +0.000 A 
ATOM     16  C   UNL     1       5.670   4.878  17.135  0.00  0.00    +0.000 A 
ENDBRANCH   6   7
BRANCH   3  17
ATOM     17  C   UNL     1       0.792   3.309  20.044  0.00  0.00    +0.000 C 
ATOM     18  C   UNL     1       0.451   2.187  19.065  0.00  0.00    +0.000 C 
BRANCH  17  19
ATOM     19  N   UNL     1       1.134   2.760  21.349  0.00  0.00    +0.000 NA
ATOM     20  H   UNL     1       1.528   1.827  21.228  0.00  0.00    +0.000 HD
ATOM     21  H   UNL     1       0.284   2.635  21.891  0.00  0.00    +0.000 HD
ENDBRANCH  17  19
ENDBRANCH   3  17
TORSDOF 3
ENDMDL
MODEL 5
REMARK VINA RESULT:      -6.8      1.834      5.888
REMARK  Name = 
REMARK  5 active torsions:
REMARK  status: ('A' for Active; 'I' for Inactive)
REMARK    1  A    between atoms: C_1  and  C_2
REMARK    2  A    between atoms: C_3  and  C_4
REMARK    3  A    between atoms: C_4  and  C_5
REMARK    4  A    between atoms: C_4  and  N_6
REMARK    5  A    between atoms: N_9  and  C_10
REMARK                            x       y       z     vdW  Elec       q    Type
REMARK                         _______ _______ _______ _____ _____    ______ ____
ROOT
ATOM      1  C   UNL     1       3.927   3.543  16.322  0.00  0.00    +0.000 C 
ATOM      2  C   UNL     1       5.184   3.924  17.029  0.00  0.00    +0.000 A 
ATOM      3  C   UNL     1       6.414   4.262  16.482  0.00  0.00    +0.000 A 
ATOM      4  C   UNL     1       7.203   4.609  17.594  0.00  0.00    +0.000 A 
ATOM      5  N   UNL     1       6.538   4.541  18.739  0.00  0.00    +0.000 NA
ATOM      6  N   UNL     1       5.284   4.146  18.404  0.00  0.00    +0.000 N 
ENDROOT
BRANCH   6   7
ATOM      7  C   UNL     1       4.264   4.034  19.396  0.00  0.00    +0.000 A 
ATOM      8  C   UNL     1       4.144   2.812  20.078  0.00  0.00    +0.000 A 
ATOM      9  C   UNL     1       3.107   2.577  20.965  0.00  0.00    +0.000 A 
ATOM     10  C   UNL     1       2.202   3.598  21.236  0.00  0.00    +0.000 A 
ATOM     11  C   UNL     1       2.325   4.856  20.628  0.00  0.00    +0.000 A 
ATOM     12  C   UNL     1       1.397   5.859  20.946  0.00  0.00    +0.000 A 
ATOM     13  C   UNL     1       1.460   7.120  20.356  0.00  0.00    +0.000 A 
ATOM     14  C   UNL     1       2.448   7.393  19.428  0.00  0.00    +0.000 A 
ATOM     15  C   UNL     1       3.373   6.404  19.095  0.00  0.00    +0.000 A 
ATOM     16  C   UNL     1       3.363   5.109  19.689  0.00  0.00    +0.000 A 
ENDBRANCH   6   7
BRANCH   3  17
ATOM     17  C   UNL     1       6.799   4.298  15.033  0.00  0.00    +0.000 C 
ATOM     18  C   UNL     1       5.606   4.347  14.081  0.00  0.00    +0.000 C 
BRANCH  17  19
ATOM     19  N   UNL     1       7.668   5.447  14.821  0.00  0.00    +0.000 NA
ATOM     20  H   UNL     1       7.096   6.275  14.653  0.00  0.00    +0.000 HD
ATOM     21  H   UNL     1       8.207   5.305  13.972  0.00  0.00    +0.000 HD
ENDBRANCH  17  19
ENDBRANCH   3  17
TORSDOF 3
ENDMDL
MODEL 6
REMARK VINA RESULT:      -6.8      2.082      5.993
REMARK  Name = 
REMARK  5 active torsions:
REMARK  status: ('A' for Active; 'I' for Inactive)
REMARK    1  A    between atoms: C_1  and  C_2
REMARK    2  A    between atoms: C_3  and  C_4
REMARK    3  A    between atoms: C_4  and  C_5
REMARK    4  A    between atoms: C_4  and  N_6
REMARK    5  A    between atoms: N_9  and  C_10
REMARK                            x       y       z     vdW  Elec       q    Type
REMARK                         _______ _______ _______ _____ _____    ______ ____
ROOT
ATOM      1  C   UNL     1       4.119   3.775  16.225  0.00  0.00    +0.000 C 
ATOM      2  C   UNL     1       5.176   4.692  16.740  0.00  0.00    +0.000 A 
ATOM      3  C   UNL     1       6.401   5.006  16.167  0.00  0.00    +0.000 A 
ATOM      4  C   UNL     1       6.947   5.975  17.030  0.00  0.00    +0.000 A 
ATOM      5  N   UNL     1       6.139   6.285  18.034  0.00  0.00    +0.000 NA
ATOM      6  N   UNL     1       5.032   5.522  17.854  0.00  0.00    +0.000 N 
ENDROOT
BRANCH   6   7
ATOM      7  C   UNL     1       3.908   5.648  18.724  0.00  0.00    +0.000 A 
ATOM      8  C   UNL     1       3.195   6.859  18.705  0.00  0.00    +0.000 A 
ATOM      9  C   UNL     1       2.171   7.109  19.602  0.00  0.00    +0.000 A 
ATOM     10  C   UNL     1       1.795   6.114  20.498  0.00  0.00    +0.000 A 
ATOM     11  C   UNL     1       2.434   4.866  20.505  0.00  0.00    +0.000 A 
ATOM     12  C   UNL     1       2.008   3.888  21.417  0.00  0.00    +0.000 A 
ATOM     13  C   UNL     1       2.622   2.638  21.480  0.00  0.00    +0.000 A 
ATOM     14  C   UNL     1       3.681   2.352  20.639  0.00  0.00    +0.000 A 
ATOM     15  C   UNL     1       4.121   3.316  19.733  0.00  0.00    +0.000 A 
ATOM     16  C   UNL     1       3.511   4.598  19.615  0.00  0.00    +0.000 A 
ENDBRANCH   6   7
BRANCH   3  17
ATOM     17  C   UNL     1       6.986   4.472  14.895  0.00  0.00    +0.000 C 
ATOM     18  C   UNL     1       5.940   4.022  13.877  0.00  0.00    +0.000 C 
BRANCH  17  19
ATOM     19  N   UNL     1       7.845   5.500  14.322  0.00  0.00    +0.000 NA
ATOM     20  H   UNL     1       7.944   5.335  13.320  0.00  0.00    +0.000 HD
ATOM     21  H   UNL     1       8.778   5.410  14.712  0.00  0.00    +0.000 HD
ENDBRANCH  17  19
ENDBRANCH   3  17
TORSDOF 3
ENDMDL
MODEL 7
REMARK VINA RESULT:      -6.6      3.589      5.527
REMARK  Name = 
REMARK  5 active torsions:
REMARK  status: ('A' for Active; 'I' for Inactive)
REMARK    1  A    between atoms: C_1  and  C_2
REMARK    2  A    between atoms: C_3  and  C_4
REMARK    3  A    between atoms: C_4  and  C_5
REMARK    4  A    between atoms: C_4  and  N_6
REMARK    5  A    between atoms: N_9  and  C_10
REMARK                            x       y       z     vdW  Elec       q    Type
REMARK                         _______ _______ _______ _____ _____    ______ ____
ROOT
ATOM      1  C   UNL     1       2.002   8.994  17.711  0.00  0.00    +0.000 C 
ATOM      2  C   UNL     1       1.833   8.488  19.103  0.00  0.00    +0.000 A 
ATOM      3  C   UNL     1       1.198   9.102  20.174  0.00  0.00    +0.000 A 
ATOM      4  C   UNL     1       1.264   8.149  21.207  0.00  0.00    +0.000 A 
ATOM      5  N   UNL     1       1.845   7.018  20.829  0.00  0.00    +0.000 NA
ATOM      6  N   UNL     1       2.176   7.202  19.527  0.00  0.00    +0.000 N 
ENDROOT
BRANCH   6   7
ATOM      7  C   UNL     1       2.767   6.148  18.767  0.00  0.00    +0.000 A 
ATOM      8  C   UNL     1       3.846   6.468  17.927  0.00  0.00    +0.000 A 
ATOM      9  C   UNL     1       4.395   5.534  17.067  0.00  0.00    +0.000 A 
ATOM     10  C   UNL     1       3.911   4.230  17.082  0.00  0.00    +0.000 A 
ATOM     11  C   UNL     1       2.880   3.850  17.954  0.00  0.00    +0.000 A 
ATOM     12  C   UNL     1       2.437   2.519  17.943  0.00  0.00    +0.000 A 
ATOM     13  C   UNL     1       1.402   2.092  18.774  0.00  0.00    +0.000 A 
ATOM     14  C   UNL     1       0.786   2.996  19.620  0.00  0.00    +0.000 A 
ATOM     15  C   UNL     1       1.210   4.324  19.635  0.00  0.00    +0.000 A 
ATOM     16  C   UNL     1       2.279   4.801  18.823  0.00  0.00    +0.000 A 
ENDBRANCH   6   7
BRANCH   3  17
ATOM     17  C   UNL     1       0.549  10.453  20.207  0.00  0.00    +0.000 C 
ATOM     18  C   UNL     1      -0.874  10.465  19.654  0.00  0.00    +0.000 C 
BRANCH  17  19
ATOM     19  N   UNL     1       0.564  10.931  21.583  0.00  0.00    +0.000 NA
ATOM     20  H   UNL     1       0.064  10.268  22.176  0.00  0.00    +0.000 HD
ATOM     21  H   UNL     1       0.044  11.802  21.639  0.00  0.00    +0.000 HD
ENDBRANCH  17  19
ENDBRANCH   3  17
TORSDOF 3
ENDMDL
MODEL 8
REMARK VINA RESULT:      -6.6      1.273      2.822
REMARK  Name = 
REMARK  5 active torsions:
REMARK  status: ('A' for Active; 'I' for Inactive)
REMARK    1  A    between atoms: C_1  and  C_2
REMARK    2  A    between atoms: C_3  and  C_4
REMARK    3  A    between atoms: C_4  and  C_5
REMARK    4  A    between atoms: C_4  and  N_6
REMARK    5  A    between atoms: N_9  and  C_10
REMARK                            x       y       z     vdW  Elec       q    Type
REMARK                         _______ _______ _______ _____ _____    ______ ____
ROOT
ATOM      1  C   UNL     1       2.809   5.154  19.530  0.00  0.00    +0.000 C 
ATOM      2  C   UNL     1       3.114   3.763  19.089  0.00  0.00    +0.000 A 
ATOM      3  C   UNL     1       2.510   2.578  19.488  0.00  0.00    +0.000 A 
ATOM      4  C   UNL     1       3.129   1.592  18.699  0.00  0.00    +0.000 A 
ATOM      5  N   UNL     1       4.014   2.093  17.848  0.00  0.00    +0.000 NA
ATOM      6  N   UNL     1       3.996   3.432  18.058  0.00  0.00    +0.000 N 
ENDROOT
BRANCH   6   7
ATOM      7  C   UNL     1       4.789   4.309  17.256  0.00  0.00    +0.000 A 
ATOM      8  C   UNL     1       4.493   4.391  15.885  0.00  0.00    +0.000 A 
ATOM      9  C   UNL     1       5.287   5.119  15.017  0.00  0.00    +0.000 A 
ATOM     10  C   UNL     1       6.363   5.840  15.524  0.00  0.00    +0.000 A 
ATOM     11  C   UNL     1       6.652   5.841  16.896  0.00  0.00    +0.000 A 
ATOM     12  C   UNL     1       7.739   6.598  17.361  0.00  0.00    +0.000 A 
ATOM     13  C   UNL     1       8.084   6.618  18.711  0.00  0.00    +0.000 A 
ATOM     14  C   UNL     1       7.353   5.870  19.616  0.00  0.00    +0.000 A 
ATOM     15  C   UNL     1       6.275   5.107  19.168  0.00  0.00    +0.000 A 
ATOM     16  C   UNL     1       5.871   5.074  17.802  0.00  0.00    +0.000 A 
ENDBRANCH   6   7
BRANCH   3  17
ATOM     17  C   UNL     1       1.413   2.398  20.493  0.00  0.00    +0.000 C 
ATOM     18  C   UNL     1       1.813   2.781  21.916  0.00  0.00    +0.000 C 
BRANCH  17  19
ATOM     19  N   UNL     1       0.264   3.181  20.060  0.00  0.00    +0.000 NA
ATOM     20  H   UNL     1       0.511   4.170  20.060  0.00  0.00    +0.000 HD
ATOM     21  H   UNL     1      -0.484   3.081  20.740  0.00  0.00    +0.000 HD
ENDBRANCH  17  19
ENDBRANCH   3  17
TORSDOF 3
ENDMDL
MODEL 9
REMARK VINA RESULT:      -6.5      3.752      5.220
REMARK  Name = 
REMARK  5 active torsions:
REMARK  status: ('A' for Active; 'I' for Inactive)
REMARK    1  A    between atoms: C_1  and  C_2
REMARK    2  A    between atoms: C_3  and  C_4
REMARK    3  A    between atoms: C_4  and  C_5
REMARK    4  A    between atoms: C_4  and  N_6
REMARK    5  A    between atoms: N_9  and  C_10
REMARK                            x       y       z     vdW  Elec       q    Type
REMARK                         _______ _______ _______ _____ _____    ______ ____
ROOT
ATOM      1  C   UNL     1       1.962   7.230  20.625  0.00  0.00    +0.000 C 
ATOM      2  C   UNL     1       1.845   8.050  19.385  0.00  0.00    +0.000 A 
ATOM      3  C   UNL     1       1.160   9.243  19.199  0.00  0.00    +0.000 A 
ATOM      4  C   UNL     1       1.458   9.610  17.874  0.00  0.00    +0.000 A 
ATOM      5  N   UNL     1       2.286   8.762  17.278  0.00  0.00    +0.000 NA
ATOM      6  N   UNL     1       2.555   7.810  18.206  0.00  0.00    +0.000 N 
ENDROOT
BRANCH   6   7
ATOM      7  C   UNL     1       3.480   6.759  17.928  0.00  0.00    +0.000 A 
ATOM      8  C   UNL     1       4.821   7.109  17.700  0.00  0.00    +0.000 A 
ATOM      9  C   UNL     1       5.757   6.169  17.304  0.00  0.00    +0.000 A 
ATOM     10  C   UNL     1       5.374   4.836  17.194  0.00  0.00    +0.000 A 
ATOM     11  C   UNL     1       4.062   4.433  17.479  0.00  0.00    +0.000 A 
ATOM     12  C   UNL     1       3.729   3.074  17.370  0.00  0.00    +0.000 A 
ATOM     13  C   UNL     1       2.434   2.622  17.620  0.00  0.00    +0.000 A 
ATOM     14  C   UNL     1       1.449   3.526  17.974  0.00  0.00    +0.000 A 
ATOM     15  C   UNL     1       1.763   4.880  18.079  0.00  0.00    +0.000 A 
ATOM     16  C   UNL     1       3.076   5.386  17.855  0.00  0.00    +0.000 A 
ENDBRANCH   6   7
BRANCH   3  17
ATOM     17  C   UNL     1       0.331   9.993  20.197  0.00  0.00    +0.000 C 
ATOM     18  C   UNL     1       1.023  11.229  20.767  0.00  0.00    +0.000 C 
BRANCH  17  19
ATOM     19  N   UNL     1      -0.927  10.361  19.560  0.00  0.00    +0.000 NA
ATOM     20  H   UNL     1      -1.546  10.778  20.255  0.00  0.00    +0.000 HD
ATOM     21  H   UNL     1      -1.396   9.520  19.238  0.00  0.00    +0.000 HD
ENDBRANCH  17  19
ENDBRANCH   3  17
TORSDOF 3
ENDMDL
