MODEL 1
REMARK VINA RESULT:      -8.0      0.000      0.000
REMARK  Name = 
REMARK  3 active torsions:
REMARK  status: ('A' for Active; 'I' for Inactive)
REMARK    1  A    between atoms: C_1  and  C_2
REMARK    2  A    between atoms: C_2  and  C_3
REMARK    3  A    between atoms: N_6  and  C_7
REMARK                            x       y       z     vdW  Elec       q    Type
REMARK                         _______ _______ _______ _____ _____    ______ ____
ROOT
ATOM      1  C   UNL     1       5.229   4.652  15.739  0.00  0.00    +0.000 C 
ATOM      2  C   UNL     1       4.930   4.793  17.232  0.00  0.00    +0.000 C 
ATOM      3  C   UNL     1       6.144   4.434  18.090  0.00  0.00    +0.000 C 
ATOM      4  C   UNL     1       4.490   6.235  17.538  0.00  0.00    +0.000 C 
ATOM      5  O   UNL     1       5.201   7.215  17.339  0.00  0.00    +0.000 OA
ATOM      6  N   UNL     1       3.196   6.179  18.116  0.00  0.00    +0.000 N 
ATOM      7  C   UNL     1       2.739   4.839  18.169  0.00  0.00    +0.000 A 
ATOM      8  C   UNL     1       1.525   4.291  18.561  0.00  0.00    +0.000 A 
ATOM      9  C   UNL     1       1.340   2.902  18.482  0.00  0.00    +0.000 A 
ATOM     10  C   UNL     1       2.346   2.070  17.976  0.00  0.00    +0.000 A 
ATOM     11  C   UNL     1       3.548   2.617  17.545  0.00  0.00    +0.000 A 
ATOM     12  C   UNL     1       3.727   3.992  17.648  0.00  0.00    +0.000 A 
ENDROOT
BRANCH   6  13
ATOM     13  C   UNL     1       2.481   7.327  18.567  0.00  0.00    +0.000 A 
ATOM     14  C   UNL     1       2.138   7.451  19.927  0.00  0.00    +0.000 A 
ATOM     15  C   UNL     1       1.391   8.534  20.407  0.00  0.00    +0.000 A 
ATOM     16  C   UNL     1       0.975   9.526  19.530  0.00  0.00    +0.000 A 
ATOM     17 CL   UNL     1       0.036  10.845  20.105  0.00  0.00    +0.000 Cl
ATOM     18  C   UNL     1       1.298   9.436  18.181  0.00  0.00    +0.000 A 
ATOM     19  C   UNL     1       2.032   8.337  17.704  0.00  0.00    +0.000 A 
ENDBRANCH   6  13
TORSDOF 1
ENDMDL
MODEL 2
REMARK VINA RESULT:      -7.6      3.315      5.670
REMARK  Name = 
REMARK  3 active torsions:
REMARK  status: ('A' for Active; 'I' for Inactive)
REMARK    1  A    between atoms: C_1  and  C_2
REMARK    2  A    between atoms: C_2  and  C_3
REMARK    3  A    between atoms: N_6  and  C_7
REMARK                            x       y       z     vdW  Elec       q    Type
REMARK                         _______ _______ _______ _____ _____    ______ ____
ROOT
ATOM      1  C   UNL     1       1.065   2.438  19.489  0.00  0.00    +0.000 C 
ATOM      2  C   UNL     1       2.409   3.091  19.812  0.00  0.00    +0.000 C 
ATOM      3  C   UNL     1       3.006   2.548  21.111  0.00  0.00    +0.000 C 
ATOM      4  C   UNL     1       3.392   2.852  18.653  0.00  0.00    +0.000 C 
ATOM      5  O   UNL     1       3.746   1.736  18.287  0.00  0.00    +0.000 OA
ATOM      6  N   UNL     1       3.815   4.119  18.176  0.00  0.00    +0.000 N 
ATOM      7  C   UNL     1       3.161   5.155  18.888  0.00  0.00    +0.000 A 
ATOM      8  C   UNL     1       3.176   6.534  18.733  0.00  0.00    +0.000 A 
ATOM      9  C   UNL     1       2.393   7.330  19.584  0.00  0.00    +0.000 A 
ATOM     10  C   UNL     1       1.569   6.750  20.556  0.00  0.00    +0.000 A 
ATOM     11  C   UNL     1       1.520   5.367  20.689  0.00  0.00    +0.000 A 
ATOM     12  C   UNL     1       2.316   4.592  19.854  0.00  0.00    +0.000 A 
ENDROOT
BRANCH   6  13
ATOM     13  C   UNL     1       4.762   4.293  17.125  0.00  0.00    +0.000 A 
ATOM     14  C   UNL     1       6.098   4.614  17.431  0.00  0.00    +0.000 A 
ATOM     15  C   UNL     1       7.052   4.846  16.431  0.00  0.00    +0.000 A 
ATOM     16  C   UNL     1       6.686   4.753  15.096  0.00  0.00    +0.000 A 
ATOM     17 CL   UNL     1       7.842   5.061  13.863  0.00  0.00    +0.000 Cl
ATOM     18  C   UNL     1       5.375   4.434  14.759  0.00  0.00    +0.000 A 
ATOM     19  C   UNL     1       4.421   4.221  15.767  0.00  0.00    +0.000 A 
ENDBRANCH   6  13
TORSDOF 1
ENDMDL
MODEL 3
REMARK VINA RESULT:      -7.6      1.264      1.344
REMARK  Name = 
REMARK  3 active torsions:
REMARK  status: ('A' for Active; 'I' for Inactive)
REMARK    1  A    between atoms: C_1  and  C_2
REMARK    2  A    between atoms: C_2  and  C_3
REMARK    3  A    between atoms: N_6  and  C_7
REMARK                            x       y       z     vdW  Elec       q    Type
REMARK                         _______ _______ _______ _____ _____    ______ ____
ROOT
ATOM      1  C   UNL     1       4.544   4.069  16.924  0.00  0.00    +0.000 C 
ATOM      2  C   UNL     1       4.514   4.776  18.279  0.00  0.00    +0.000 C 
ATOM      3  C   UNL     1       5.887   4.769  18.954  0.00  0.00    +0.000 C 
ATOM      4  C   UNL     1       4.037   6.227  18.096  0.00  0.00    +0.000 C 
ATOM      5  O   UNL     1       4.629   7.050  17.405  0.00  0.00    +0.000 OA
ATOM      6  N   UNL     1       2.878   6.406  18.893  0.00  0.00    +0.000 N 
ATOM      7  C   UNL     1       2.534   5.192  19.539  0.00  0.00    +0.000 A 
ATOM      8  C   UNL     1       1.454   4.845  20.339  0.00  0.00    +0.000 A 
ATOM      9  C   UNL     1       1.356   3.534  20.830  0.00  0.00    +0.000 A 
ATOM     10  C   UNL     1       2.309   2.565  20.492  0.00  0.00    +0.000 A 
ATOM     11  C   UNL     1       3.370   2.897  19.658  0.00  0.00    +0.000 A 
ATOM     12  C   UNL     1       3.467   4.204  19.196  0.00  0.00    +0.000 A 
ENDROOT
BRANCH   6  13
ATOM     13  C   UNL     1       2.178   7.642  19.006  0.00  0.00    +0.000 A 
ATOM     14  C   UNL     1       1.742   8.089  20.268  0.00  0.00    +0.000 A 
ATOM     15  C   UNL     1       1.005   9.271  20.421  0.00  0.00    +0.000 A 
ATOM     16  C   UNL     1       0.695  10.038  19.307  0.00  0.00    +0.000 A 
ATOM     17 CL   UNL     1      -0.230  11.475  19.482  0.00  0.00    +0.000 Cl
ATOM     18  C   UNL     1       1.114   9.628  18.046  0.00  0.00    +0.000 A 
ATOM     19  C   UNL     1       1.835   8.432  17.899  0.00  0.00    +0.000 A 
ENDBRANCH   6  13
TORSDOF 1
ENDMDL
MODEL 4
REMARK VINA RESULT:      -7.6      0.672      1.283
REMARK  Name = 
REMARK  3 active torsions:
REMARK  status: ('A' for Active; 'I' for Inactive)
REMARK    1  A    between atoms: C_1  and  C_2
REMARK    2  A    between atoms: C_2  and  C_3
REMARK    3  A    between atoms: N_6  and  C_7
REMARK                            x       y       z     vdW  Elec       q    Type
REMARK                         _______ _______ _______ _____ _____    ______ ____
ROOT
ATOM      1  C   UNL     1       4.805   4.212  16.283  0.00  0.00    +0.000 C 
ATOM      2  C   UNL     1       4.619   4.610  17.747  0.00  0.00    +0.000 C 
ATOM      3  C   UNL     1       5.899   4.403  18.559  0.00  0.00    +0.000 C 
ATOM      4  C   UNL     1       4.186   6.083  17.833  0.00  0.00    +0.000 C 
ATOM      5  O   UNL     1       4.868   7.013  17.414  0.00  0.00    +0.000 OA
ATOM      6  N   UNL     1       2.940   6.129  18.509  0.00  0.00    +0.000 N 
ATOM      7  C   UNL     1       2.505   4.819  18.828  0.00  0.00    +0.000 A 
ATOM      8  C   UNL     1       1.331   4.348  19.401  0.00  0.00    +0.000 A 
ATOM      9  C   UNL     1       1.158   2.967  19.578  0.00  0.00    +0.000 A 
ATOM     10  C   UNL     1       2.133   2.059  19.147  0.00  0.00    +0.000 A 
ATOM     11  C   UNL     1       3.292   2.522  18.537  0.00  0.00    +0.000 A 
ATOM     12  C   UNL     1       3.461   3.894  18.387  0.00  0.00    +0.000 A 
ENDROOT
BRANCH   6  13
ATOM     13  C   UNL     1       2.247   7.338  18.809  0.00  0.00    +0.000 A 
ATOM     14  C   UNL     1       1.942   8.247  17.778  0.00  0.00    +0.000 A 
ATOM     15  C   UNL     1       1.309   9.471  18.031  0.00  0.00    +0.000 A 
ATOM     16  C   UNL     1       0.959   9.808  19.331  0.00  0.00    +0.000 A 
ATOM     17 CL   UNL     1       0.206  11.317  19.656  0.00  0.00    +0.000 Cl
ATOM     18  C   UNL     1       1.242   8.932  20.373  0.00  0.00    +0.000 A 
ATOM     19  C   UNL     1       1.894   7.715  20.113  0.00  0.00    +0.000 A 
ENDBRANCH   6  13
TORSDOF 1
ENDMDL
MODEL 5
REMARK VINA RESULT:      -7.5      3.309      5.705
REMARK  Name = 
REMARK  3 active torsions:
REMARK  status: ('A' for Active; 'I' for Inactive)
REMARK    1  A    between atoms: C_1  and  C_2
REMARK    2  A    between atoms: C_2  and  C_3
REMARK    3  A    between atoms: N_6  and  C_7
REMARK                            x       y       z     vdW  Elec       q    Type
REMARK                         _______ _______ _______ _____ _____    ______ ____
ROOT
ATOM      1  C   UNL     1       1.102   2.442  19.353  0.00  0.00    +0.000 C 
ATOM      2  C   UNL     1       2.428   3.105  19.724  0.00  0.00    +0.000 C 
ATOM      3  C   UNL     1       3.015   2.521  21.010  0.00  0.00    +0.000 C 
ATOM      4  C   UNL     1       3.433   2.932  18.573  0.00  0.00    +0.000 C 
ATOM      5  O   UNL     1       3.813   1.839  18.167  0.00  0.00    +0.000 OA
ATOM      6  N   UNL     1       3.839   4.225  18.155  0.00  0.00    +0.000 N 
ATOM      7  C   UNL     1       3.155   5.219  18.897  0.00  0.00    +0.000 A 
ATOM      8  C   UNL     1       3.146   6.604  18.799  0.00  0.00    +0.000 A 
ATOM      9  C   UNL     1       2.335   7.349  19.669  0.00  0.00    +0.000 A 
ATOM     10  C   UNL     1       1.508   6.715  20.603  0.00  0.00    +0.000 A 
ATOM     11  C   UNL     1       1.483   5.327  20.678  0.00  0.00    +0.000 A 
ATOM     12  C   UNL     1       2.306   4.601  19.825  0.00  0.00    +0.000 A 
ENDROOT
BRANCH   6  13
ATOM     13  C   UNL     1       4.799   4.460  17.127  0.00  0.00    +0.000 A 
ATOM     14  C   UNL     1       4.436   4.301  15.777  0.00  0.00    +0.000 A 
ATOM     15  C   UNL     1       5.358   4.470  14.736  0.00  0.00    +0.000 A 
ATOM     16  C   UNL     1       6.671   4.810  15.029  0.00  0.00    +0.000 A 
ATOM     17 CL   UNL     1       7.816   4.993  13.761  0.00  0.00    +0.000 Cl
ATOM     18  C   UNL     1       7.064   4.977  16.352  0.00  0.00    +0.000 A 
ATOM     19  C   UNL     1       6.137   4.788  17.391  0.00  0.00    +0.000 A 
ENDBRANCH   6  13
TORSDOF 1
ENDMDL
MODEL 6
REMARK VINA RESULT:      -7.4      1.436      2.942
REMARK  Name = 
REMARK  3 active torsions:
REMARK  status: ('A' for Active; 'I' for Inactive)
REMARK    1  A    between atoms: C_1  and  C_2
REMARK    2  A    between atoms: C_2  and  C_3
REMARK    3  A    between atoms: N_6  and  C_7
REMARK                            x       y       z     vdW  Elec       q    Type
REMARK                         _______ _______ _______ _____ _____    ______ ____
ROOT
ATOM      1  C   UNL     1       4.130   2.759  19.323  0.00  0.00    +0.000 C 
ATOM      2  C   UNL     1       3.335   3.539  18.275  0.00  0.00    +0.000 C 
ATOM      3  C   UNL     1       2.398   2.628  17.480  0.00  0.00    +0.000 C 
ATOM      4  C   UNL     1       2.519   4.646  18.963  0.00  0.00    +0.000 C 
ATOM      5  O   UNL     1       1.656   4.424  19.806  0.00  0.00    +0.000 OA
ATOM      6  N   UNL     1       2.914   5.887  18.402  0.00  0.00    +0.000 N 
ATOM      7  C   UNL     1       3.944   5.689  17.449  0.00  0.00    +0.000 A 
ATOM      8  C   UNL     1       4.703   6.586  16.710  0.00  0.00    +0.000 A 
ATOM      9  C   UNL     1       5.692   6.098  15.842  0.00  0.00    +0.000 A 
ATOM     10  C   UNL     1       5.950   4.725  15.745  0.00  0.00    +0.000 A 
ATOM     11  C   UNL     1       5.220   3.825  16.512  0.00  0.00    +0.000 A 
ATOM     12  C   UNL     1       4.229   4.321  17.352  0.00  0.00    +0.000 A 
ENDROOT
BRANCH   6  13
ATOM     13  C   UNL     1       2.341   7.140  18.768  0.00  0.00    +0.000 A 
ATOM     14  C   UNL     1       2.015   7.396  20.114  0.00  0.00    +0.000 A 
ATOM     15  C   UNL     1       1.403   8.591  20.514  0.00  0.00    +0.000 A 
ATOM     16  C   UNL     1       1.109   9.563  19.568  0.00  0.00    +0.000 A 
ATOM     17 CL   UNL     1       0.334  11.021  20.044  0.00  0.00    +0.000 Cl
ATOM     18  C   UNL     1       1.420   9.344  18.230  0.00  0.00    +0.000 A 
ATOM     19  C   UNL     1       2.017   8.136  17.835  0.00  0.00    +0.000 A 
ENDBRANCH   6  13
TORSDOF 1
ENDMDL
MODEL 7
REMARK VINA RESULT:      -7.3      1.457      3.148
REMARK  Name = 
REMARK  3 active torsions:
REMARK  status: ('A' for Active; 'I' for Inactive)
REMARK    1  A    between atoms: C_1  and  C_2
REMARK    2  A    between atoms: C_2  and  C_3
REMARK    3  A    between atoms: N_6  and  C_7
REMARK                            x       y       z     vdW  Elec       q    Type
REMARK                         _______ _______ _______ _____ _____    ______ ____
ROOT
ATOM      1  C   UNL     1       4.114   2.829  19.378  0.00  0.00    +0.000 C 
ATOM      2  C   UNL     1       3.314   3.596  18.325  0.00  0.00    +0.000 C 
ATOM      3  C   UNL     1       2.409   2.666  17.513  0.00  0.00    +0.000 C 
ATOM      4  C   UNL     1       2.461   4.678  19.009  0.00  0.00    +0.000 C 
ATOM      5  O   UNL     1       1.594   4.429  19.840  0.00  0.00    +0.000 OA
ATOM      6  N   UNL     1       2.833   5.932  18.460  0.00  0.00    +0.000 N 
ATOM      7  C   UNL     1       3.879   5.765  17.518  0.00  0.00    +0.000 A 
ATOM      8  C   UNL     1       4.625   6.685  16.794  0.00  0.00    +0.000 A 
ATOM      9  C   UNL     1       5.637   6.227  15.937  0.00  0.00    +0.000 A 
ATOM     10  C   UNL     1       5.930   4.861  15.834  0.00  0.00    +0.000 A 
ATOM     11  C   UNL     1       5.213   3.939  16.588  0.00  0.00    +0.000 A 
ATOM     12  C   UNL     1       4.199   4.405  17.417  0.00  0.00    +0.000 A 
ENDROOT
BRANCH   6  13
ATOM     13  C   UNL     1       2.224   7.168  18.826  0.00  0.00    +0.000 A 
ATOM     14  C   UNL     1       1.932   8.126  17.837  0.00  0.00    +0.000 A 
ATOM     15  C   UNL     1       1.381   9.375  18.155  0.00  0.00    +0.000 A 
ATOM     16  C   UNL     1       1.105   9.688  19.479  0.00  0.00    +0.000 A 
ATOM     17 CL   UNL     1       0.455  11.226  19.881  0.00  0.00    +0.000 Cl
ATOM     18  C   UNL     1       1.378   8.763  20.480  0.00  0.00    +0.000 A 
ATOM     19  C   UNL     1       1.947   7.521  20.155  0.00  0.00    +0.000 A 
ENDBRANCH   6  13
TORSDOF 1
ENDMDL
MODEL 8
REMARK VINA RESULT:      -6.7      3.205      5.644
REMARK  Name = 
REMARK  3 active torsions:
REMARK  status: ('A' for Active; 'I' for Inactive)
REMARK    1  A    between atoms: C_1  and  C_2
REMARK    2  A    between atoms: C_2  and  C_3
REMARK    3  A    between atoms: N_6  and  C_7
REMARK                            x       y       z     vdW  Elec       q    Type
REMARK                         _______ _______ _______ _____ _____    ______ ____
ROOT
ATOM      1  C   UNL     1       0.620   3.099  19.990  0.00  0.00    +0.000 C 
ATOM      2  C   UNL     1       1.994   3.731  20.217  0.00  0.00    +0.000 C 
ATOM      3  C   UNL     1       2.620   3.268  21.534  0.00  0.00    +0.000 C 
ATOM      4  C   UNL     1       2.927   3.374  19.048  0.00  0.00    +0.000 C 
ATOM      5  O   UNL     1       3.235   2.223  18.756  0.00  0.00    +0.000 OA
ATOM      6  N   UNL     1       3.370   4.588  18.462  0.00  0.00    +0.000 N 
ATOM      7  C   UNL     1       2.772   5.695  19.114  0.00  0.00    +0.000 A 
ATOM      8  C   UNL     1       2.822   7.058  18.855  0.00  0.00    +0.000 A 
ATOM      9  C   UNL     1       2.094   7.939  19.668  0.00  0.00    +0.000 A 
ATOM     10  C   UNL     1       1.288   7.460  20.709  0.00  0.00    +0.000 A 
ATOM     11  C   UNL     1       1.203   6.094  20.947  0.00  0.00    +0.000 A 
ATOM     12  C   UNL     1       1.946   5.233  20.148  0.00  0.00    +0.000 A 
ENDROOT
BRANCH   6  13
ATOM     13  C   UNL     1       4.284   4.653  17.370  0.00  0.00    +0.000 A 
ATOM     14  C   UNL     1       4.643   5.901  16.828  0.00  0.00    +0.000 A 
ATOM     15  C   UNL     1       5.496   6.012  15.723  0.00  0.00    +0.000 A 
ATOM     16  C   UNL     1       6.017   4.866  15.139  0.00  0.00    +0.000 A 
ATOM     17 CL   UNL     1       7.044   4.989  13.766  0.00  0.00    +0.000 Cl
ATOM     18  C   UNL     1       5.686   3.616  15.651  0.00  0.00    +0.000 A 
ATOM     19  C   UNL     1       4.815   3.513  16.748  0.00  0.00    +0.000 A 
ENDBRANCH   6  13
TORSDOF 1
ENDMDL
MODEL 9
REMARK VINA RESULT:      -6.6      3.026      6.592
REMARK  Name = 
REMARK  3 active torsions:
REMARK  status: ('A' for Active; 'I' for Inactive)
REMARK    1  A    between atoms: C_1  and  C_2
REMARK    2  A    between atoms: C_2  and  C_3
REMARK    3  A    between atoms: N_6  and  C_7
REMARK                            x       y       z     vdW  Elec       q    Type
REMARK                         _______ _______ _______ _____ _____    ______ ____
ROOT
ATOM      1  C   UNL     1       1.325  11.858  18.767  0.00  0.00    +0.000 C 
ATOM      2  C   UNL     1       0.519  10.577  18.985  0.00  0.00    +0.000 C 
ATOM      3  C   UNL     1      -0.787  10.587  18.188  0.00  0.00    +0.000 C 
ATOM      4  C   UNL     1       1.364   9.359  18.576  0.00  0.00    +0.000 C 
ATOM      5  O   UNL     1       1.794   9.185  17.441  0.00  0.00    +0.000 OA
ATOM      6  N   UNL     1       1.476   8.511  19.708  0.00  0.00    +0.000 N 
ATOM      7  C   UNL     1       0.821   9.092  20.823  0.00  0.00    +0.000 A 
ATOM      8  C   UNL     1       0.730   8.695  22.150  0.00  0.00    +0.000 A 
ATOM      9  C   UNL     1       0.023   9.496  23.060  0.00  0.00    +0.000 A 
ATOM     10  C   UNL     1      -0.554  10.707  22.656  0.00  0.00    +0.000 A 
ATOM     11  C   UNL     1      -0.431  11.128  21.337  0.00  0.00    +0.000 A 
ATOM     12  C   UNL     1       0.254  10.315  20.442  0.00  0.00    +0.000 A 
ENDROOT
BRANCH   6  13
ATOM     13  C   UNL     1       2.159   7.260  19.696  0.00  0.00    +0.000 A 
ATOM     14  C   UNL     1       3.215   7.046  18.789  0.00  0.00    +0.000 A 
ATOM     15  C   UNL     1       3.881   5.816  18.705  0.00  0.00    +0.000 A 
ATOM     16  C   UNL     1       3.505   4.772  19.538  0.00  0.00    +0.000 A 
ATOM     17 CL   UNL     1       4.298   3.252  19.423  0.00  0.00    +0.000 Cl
ATOM     18  C   UNL     1       2.468   4.950  20.447  0.00  0.00    +0.000 A 
ATOM     19  C   UNL     1       1.794   6.180  20.513  0.00  0.00    +0.000 A 
ENDBRANCH   6  13
TORSDOF 1
ENDMDL
