MODEL 1
REMARK VINA RESULT:      -7.5      0.000      0.000
REMARK  Name = 
REMARK  7 active torsions:
REMARK  status: ('A' for Active; 'I' for Inactive)
REMARK    1  A    between atoms: C_1  and  C_2
REMARK    2  A    between atoms: C_2  and  C_3
REMARK    3  A    between atoms: C_3  and  C_4
REMARK    4  A    between atoms: C_4  and  C_5
REMARK    5  A    between atoms: N_6  and  N_7
REMARK    6  A    between atoms: N_13  and  C_14
REMARK    7  A    between atoms: C_14  and  C_15
REMARK                            x       y       z     vdW  Elec       q    Type
REMARK                         _______ _______ _______ _____ _____    ______ ____
ROOT
ATOM      1  N   UNL     1       5.657   4.431  19.266  0.00  0.00    +0.000 NA
ATOM      2  C   UNL     1       4.474   3.961  19.014  0.00  0.00    +0.000 C 
ATOM      3  S   UNL     1       4.151   2.330  19.574  0.00  0.00    +0.000 S 
ATOM      4  C   UNL     1       2.507   2.293  18.857  0.00  0.00    +0.000 C 
ATOM      5  C   UNL     1       2.289   3.644  18.233  0.00  0.00    +0.000 C 
ATOM      6  O   UNL     1       1.247   3.911  17.632  0.00  0.00    +0.000 OA
ATOM      7  N   UNL     1       3.371   4.489  18.378  0.00  0.00    +0.000 N 
ENDROOT
BRANCH   1   9
ATOM      8  C   UNL     1       6.783   5.829  17.887  0.00  0.00    +0.000 C 
ATOM      9  N   UNL     1       5.920   5.723  18.855  0.00  0.00    +0.000 NA
BRANCH   8  11
ATOM     10  C   UNL     1       8.284   7.838  18.330  0.00  0.00    +0.000 C 
ATOM     11  C   UNL     1       7.195   7.234  17.471  0.00  0.00    +0.000 C 
ENDBRANCH   8  11
BRANCH   8  12
ATOM     12  C   UNL     1       7.437   4.663  17.159  0.00  0.00    +0.000 C 
ATOM     13  C   UNL     1       6.939   4.521  15.733  0.00  0.00    +0.000 C 
ENDBRANCH   8  12
ENDBRANCH   1   9
BRANCH   7  14
ATOM     14  C   UNL     1       3.339   5.760  17.666  0.00  0.00    +0.000 C 
BRANCH  14  15
ATOM     15  C   UNL     1       2.679   6.932  18.365  0.00  0.00    +0.000 A 
ATOM     16  C   UNL     1       2.370   6.786  19.731  0.00  0.00    +0.000 A 
ATOM     17  C   UNL     1       1.676   7.780  20.419  0.00  0.00    +0.000 A 
ATOM     18  C   UNL     1       1.308   8.949  19.761  0.00  0.00    +0.000 A 
ATOM     19  C   UNL     1       1.667   9.136  18.428  0.00  0.00    +0.000 A 
ATOM     20  C   UNL     1       2.359   8.139  17.733  0.00  0.00    +0.000 A 
ENDBRANCH  14  15
ENDBRANCH   7  14
TORSDOF 5
ENDMDL
MODEL 2
REMARK VINA RESULT:      -7.5      0.201      1.094
REMARK  Name = 
REMARK  7 active torsions:
REMARK  status: ('A' for Active; 'I' for Inactive)
REMARK    1  A    between atoms: C_1  and  C_2
REMARK    2  A    between atoms: C_2  and  C_3
REMARK    3  A    between atoms: C_3  and  C_4
REMARK    4  A    between atoms: C_4  and  C_5
REMARK    5  A    between atoms: N_6  and  N_7
REMARK    6  A    between atoms: N_13  and  C_14
REMARK    7  A    between atoms: C_14  and  C_15
REMARK                            x       y       z     vdW  Elec       q    Type
REMARK                         _______ _______ _______ _____ _____    ______ ____
ROOT
ATOM      1  N   UNL     1       5.625   4.338  19.273  0.00  0.00    +0.000 NA
ATOM      2  C   UNL     1       4.454   3.822  19.060  0.00  0.00    +0.000 C 
ATOM      3  S   UNL     1       4.208   2.187  19.646  0.00  0.00    +0.000 S 
ATOM      4  C   UNL     1       2.548   2.080  18.975  0.00  0.00    +0.000 C 
ATOM      5  C   UNL     1       2.263   3.413  18.341  0.00  0.00    +0.000 C 
ATOM      6  O   UNL     1       1.196   3.634  17.766  0.00  0.00    +0.000 OA
ATOM      7  N   UNL     1       3.316   4.300  18.447  0.00  0.00    +0.000 N 
ENDROOT
BRANCH   1   9
ATOM      8  C   UNL     1       6.680   5.762  17.865  0.00  0.00    +0.000 C 
ATOM      9  N   UNL     1       5.828   5.634  18.840  0.00  0.00    +0.000 NA
BRANCH   8  11
ATOM     10  C   UNL     1       8.151   7.812  18.214  0.00  0.00    +0.000 C 
ATOM     11  C   UNL     1       7.027   7.177  17.425  0.00  0.00    +0.000 C 
ENDBRANCH   8  11
BRANCH   8  12
ATOM     12  C   UNL     1       7.380   4.615  17.151  0.00  0.00    +0.000 C 
ATOM     13  C   UNL     1       7.093   4.602  15.661  0.00  0.00    +0.000 C 
ENDBRANCH   8  12
ENDBRANCH   1   9
BRANCH   7  14
ATOM     14  C   UNL     1       3.217   5.560  17.722  0.00  0.00    +0.000 C 
BRANCH  14  15
ATOM     15  C   UNL     1       2.557   6.723  18.435  0.00  0.00    +0.000 A 
ATOM     16  C   UNL     1       2.256   7.868  17.673  0.00  0.00    +0.000 A 
ATOM     17  C   UNL     1       1.738   9.014  18.275  0.00  0.00    +0.000 A 
ATOM     18  C   UNL     1       1.484   9.023  19.642  0.00  0.00    +0.000 A 
ATOM     19  C   UNL     1       1.713   7.874  20.397  0.00  0.00    +0.000 A 
ATOM     20  C   UNL     1       2.237   6.725  19.797  0.00  0.00    +0.000 A 
ENDBRANCH  14  15
ENDBRANCH   7  14
TORSDOF 5
ENDMDL
MODEL 3
REMARK VINA RESULT:      -7.4      1.349      1.858
REMARK  Name = 
REMARK  7 active torsions:
REMARK  status: ('A' for Active; 'I' for Inactive)
REMARK    1  A    between atoms: C_1  and  C_2
REMARK    2  A    between atoms: C_2  and  C_3
REMARK    3  A    between atoms: C_3  and  C_4
REMARK    4  A    between atoms: C_4  and  C_5
REMARK    5  A    between atoms: N_6  and  N_7
REMARK    6  A    between atoms: N_13  and  C_14
REMARK    7  A    between atoms: C_14  and  C_15
REMARK                            x       y       z     vdW  Elec       q    Type
REMARK                         _______ _______ _______ _____ _____    ______ ____
ROOT
ATOM      1  N   UNL     1       4.574   3.767  17.608  0.00  0.00    +0.000 NA
ATOM      2  C   UNL     1       3.451   3.596  18.236  0.00  0.00    +0.000 C 
ATOM      3  S   UNL     1       2.455   2.257  17.694  0.00  0.00    +0.000 S 
ATOM      4  C   UNL     1       1.126   2.642  18.835  0.00  0.00    +0.000 C 
ATOM      5  C   UNL     1       1.590   3.826  19.638  0.00  0.00    +0.000 C 
ATOM      6  O   UNL     1       0.868   4.341  20.494  0.00  0.00    +0.000 OA
ATOM      7  N   UNL     1       2.849   4.264  19.279  0.00  0.00    +0.000 N 
ENDROOT
BRANCH   1   9
ATOM      8  C   UNL     1       5.896   5.531  17.091  0.00  0.00    +0.000 C 
ATOM      9  N   UNL     1       5.382   4.801  18.039  0.00  0.00    +0.000 NA
BRANCH   8  11
ATOM     10  C   UNL     1       7.739   6.246  18.697  0.00  0.00    +0.000 C 
ATOM     11  C   UNL     1       6.884   6.612  17.503  0.00  0.00    +0.000 C 
ENDBRANCH   8  11
BRANCH   8  12
ATOM     12  C   UNL     1       5.613   5.369  15.605  0.00  0.00    +0.000 C 
ATOM     13  C   UNL     1       6.779   4.744  14.861  0.00  0.00    +0.000 C 
ENDBRANCH   8  12
ENDBRANCH   1   9
BRANCH   7  14
ATOM     14  C   UNL     1       3.328   5.507  19.871  0.00  0.00    +0.000 C 
BRANCH  14  15
ATOM     15  C   UNL     1       2.637   6.789  19.451  0.00  0.00    +0.000 A 
ATOM     16  C   UNL     1       2.794   7.208  18.116  0.00  0.00    +0.000 A 
ATOM     17  C   UNL     1       2.272   8.423  17.679  0.00  0.00    +0.000 A 
ATOM     18  C   UNL     1       1.556   9.226  18.562  0.00  0.00    +0.000 A 
ATOM     19  C   UNL     1       1.335   8.793  19.867  0.00  0.00    +0.000 A 
ATOM     20  C   UNL     1       1.862   7.576  20.310  0.00  0.00    +0.000 A 
ENDBRANCH  14  15
ENDBRANCH   7  14
TORSDOF 5
ENDMDL
MODEL 4
REMARK VINA RESULT:      -7.3      1.408      1.639
REMARK  Name = 
REMARK  7 active torsions:
REMARK  status: ('A' for Active; 'I' for Inactive)
REMARK    1  A    between atoms: C_1  and  C_2
REMARK    2  A    between atoms: C_2  and  C_3
REMARK    3  A    between atoms: C_3  and  C_4
REMARK    4  A    between atoms: C_4  and  C_5
REMARK    5  A    between atoms: N_6  and  N_7
REMARK    6  A    between atoms: N_13  and  C_14
REMARK    7  A    between atoms: C_14  and  C_15
REMARK                            x       y       z     vdW  Elec       q    Type
REMARK                         _______ _______ _______ _____ _____    ______ ____
ROOT
ATOM      1  N   UNL     1       4.472   4.071  17.446  0.00  0.00    +0.000 NA
ATOM      2  C   UNL     1       3.386   3.831  18.116  0.00  0.00    +0.000 C 
ATOM      3  S   UNL     1       2.414   2.481  17.561  0.00  0.00    +0.000 S 
ATOM      4  C   UNL     1       1.126   2.768  18.775  0.00  0.00    +0.000 C 
ATOM      5  C   UNL     1       1.584   3.934  19.608  0.00  0.00    +0.000 C 
ATOM      6  O   UNL     1       0.886   4.385  20.517  0.00  0.00    +0.000 OA
ATOM      7  N   UNL     1       2.810   4.432  19.213  0.00  0.00    +0.000 N 
ENDROOT
BRANCH   1   9
ATOM      8  C   UNL     1       5.855   5.791  16.944  0.00  0.00    +0.000 C 
ATOM      9  N   UNL     1       5.263   5.115  17.885  0.00  0.00    +0.000 NA
BRANCH   8  11
ATOM     10  C   UNL     1       7.799   6.449  18.453  0.00  0.00    +0.000 C 
ATOM     11  C   UNL     1       6.827   6.880  17.376  0.00  0.00    +0.000 C 
ENDBRANCH   8  11
BRANCH   8  12
ATOM     12  C   UNL     1       5.679   5.561  15.451  0.00  0.00    +0.000 C 
ATOM     13  C   UNL     1       6.854   4.820  14.839  0.00  0.00    +0.000 C 
ENDBRANCH   8  12
ENDBRANCH   1   9
BRANCH   7  14
ATOM     14  C   UNL     1       3.272   5.667  19.836  0.00  0.00    +0.000 C 
BRANCH  14  15
ATOM     15  C   UNL     1       2.639   6.961  19.368  0.00  0.00    +0.000 A 
ATOM     16  C   UNL     1       1.878   7.690  20.303  0.00  0.00    +0.000 A 
ATOM     17  C   UNL     1       1.185   8.839  19.924  0.00  0.00    +0.000 A 
ATOM     18  C   UNL     1       1.267   9.295  18.613  0.00  0.00    +0.000 A 
ATOM     19  C   UNL     1       2.070   8.623  17.694  0.00  0.00    +0.000 A 
ATOM     20  C   UNL     1       2.762   7.467  18.069  0.00  0.00    +0.000 A 
ENDBRANCH  14  15
ENDBRANCH   7  14
TORSDOF 5
ENDMDL
MODEL 5
REMARK VINA RESULT:      -6.9      1.850      5.118
REMARK  Name = 
REMARK  7 active torsions:
REMARK  status: ('A' for Active; 'I' for Inactive)
REMARK    1  A    between atoms: C_1  and  C_2
REMARK    2  A    between atoms: C_2  and  C_3
REMARK    3  A    between atoms: C_3  and  C_4
REMARK    4  A    between atoms: C_4  and  C_5
REMARK    5  A    between atoms: N_6  and  N_7
REMARK    6  A    between atoms: N_13  and  C_14
REMARK    7  A    between atoms: C_14  and  C_15
REMARK                            x       y       z     vdW  Elec       q    Type
REMARK                         _______ _______ _______ _____ _____    ______ ____
ROOT
ATOM      1  N   UNL     1       1.924   6.032  20.653  0.00  0.00    +0.000 NA
ATOM      2  C   UNL     1       2.256   4.855  20.218  0.00  0.00    +0.000 C 
ATOM      3  S   UNL     1       1.933   3.509  21.296  0.00  0.00    +0.000 S 
ATOM      4  C   UNL     1       2.675   2.306  20.192  0.00  0.00    +0.000 C 
ATOM      5  C   UNL     1       3.109   3.067  18.970  0.00  0.00    +0.000 C 
ATOM      6  O   UNL     1       3.684   2.504  18.036  0.00  0.00    +0.000 OA
ATOM      7  N   UNL     1       2.831   4.417  19.045  0.00  0.00    +0.000 N 
ENDROOT
BRANCH   1   9
ATOM      8  C   UNL     1       1.480   8.180  20.093  0.00  0.00    +0.000 C 
ATOM      9  N   UNL     1       2.147   7.100  19.806  0.00  0.00    +0.000 NA
BRANCH   8  11
ATOM     10  C   UNL     1       2.140   8.975  17.765  0.00  0.00    +0.000 C 
ATOM     11  C   UNL     1       1.602   9.350  19.128  0.00  0.00    +0.000 C 
ENDBRANCH   8  11
BRANCH   8  12
ATOM     12  C   UNL     1       0.565   8.355  21.296  0.00  0.00    +0.000 C 
ATOM     13  C   UNL     1       1.164   9.272  22.347  0.00  0.00    +0.000 C 
ENDBRANCH   8  12
ENDBRANCH   1   9
BRANCH   7  14
ATOM     14  C   UNL     1       3.361   5.278  17.995  0.00  0.00    +0.000 C 
BRANCH  14  15
ATOM     15  C   UNL     1       4.801   5.728  18.125  0.00  0.00    +0.000 A 
ATOM     16  C   UNL     1       5.273   6.680  17.201  0.00  0.00    +0.000 A 
ATOM     17  C   UNL     1       6.610   7.072  17.193  0.00  0.00    +0.000 A 
ATOM     18  C   UNL     1       7.492   6.542  18.130  0.00  0.00    +0.000 A 
ATOM     19  C   UNL     1       7.025   5.651  19.093  0.00  0.00    +0.000 A 
ATOM     20  C   UNL     1       5.684   5.251  19.100  0.00  0.00    +0.000 A 
ENDBRANCH  14  15
ENDBRANCH   7  14
TORSDOF 5
ENDMDL
MODEL 6
REMARK VINA RESULT:      -6.8      2.443      5.350
REMARK  Name = 
REMARK  7 active torsions:
REMARK  status: ('A' for Active; 'I' for Inactive)
REMARK    1  A    between atoms: C_1  and  C_2
REMARK    2  A    between atoms: C_2  and  C_3
REMARK    3  A    between atoms: C_3  and  C_4
REMARK    4  A    between atoms: C_4  and  C_5
REMARK    5  A    between atoms: N_6  and  N_7
REMARK    6  A    between atoms: N_13  and  C_14
REMARK    7  A    between atoms: C_14  and  C_15
REMARK                            x       y       z     vdW  Elec       q    Type
REMARK                         _______ _______ _______ _____ _____    ______ ____
ROOT
ATOM      1  N   UNL     1       3.122   7.611  17.522  0.00  0.00    +0.000 NA
ATOM      2  C   UNL     1       4.087   6.745  17.541  0.00  0.00    +0.000 C 
ATOM      3  S   UNL     1       5.093   6.671  16.105  0.00  0.00    +0.000 S 
ATOM      4  C   UNL     1       6.073   5.306  16.729  0.00  0.00    +0.000 C 
ATOM      5  C   UNL     1       5.554   5.009  18.109  0.00  0.00    +0.000 C 
ATOM      6  O   UNL     1       6.019   4.090  18.784  0.00  0.00    +0.000 OA
ATOM      7  N   UNL     1       4.511   5.833  18.483  0.00  0.00    +0.000 N 
ENDROOT
BRANCH   1   9
ATOM      8  C   UNL     1       1.786   8.863  18.854  0.00  0.00    +0.000 C 
ATOM      9  N   UNL     1       2.336   7.700  18.654  0.00  0.00    +0.000 NA
BRANCH   8  11
ATOM     10  C   UNL     1       1.157   7.913  21.132  0.00  0.00    +0.000 C 
ATOM     11  C   UNL     1       1.003   9.050  20.146  0.00  0.00    +0.000 C 
ENDBRANCH   8  11
BRANCH   8  12
ATOM     12  C   UNL     1       1.889  10.057  17.918  0.00  0.00    +0.000 C 
ATOM     13  C   UNL     1       1.559  11.365  18.614  0.00  0.00    +0.000 C 
ENDBRANCH   8  12
ENDBRANCH   1   9
BRANCH   7  14
ATOM     14  C   UNL     1       3.817   5.525  19.728  0.00  0.00    +0.000 C 
BRANCH  14  15
ATOM     15  C   UNL     1       2.692   4.513  19.665  0.00  0.00    +0.000 A 
ATOM     16  C   UNL     1       2.166   4.045  20.885  0.00  0.00    +0.000 A 
ATOM     17  C   UNL     1       1.199   3.043  20.912  0.00  0.00    +0.000 A 
ATOM     18  C   UNL     1       0.717   2.513  19.719  0.00  0.00    +0.000 A 
ATOM     19  C   UNL     1       1.178   3.013  18.503  0.00  0.00    +0.000 A 
ATOM     20  C   UNL     1       2.153   4.016  18.473  0.00  0.00    +0.000 A 
ENDBRANCH  14  15
ENDBRANCH   7  14
TORSDOF 5
ENDMDL
MODEL 7
REMARK VINA RESULT:      -6.8      1.908      5.213
REMARK  Name = 
REMARK  7 active torsions:
REMARK  status: ('A' for Active; 'I' for Inactive)
REMARK    1  A    between atoms: C_1  and  C_2
REMARK    2  A    between atoms: C_2  and  C_3
REMARK    3  A    between atoms: C_3  and  C_4
REMARK    4  A    between atoms: C_4  and  C_5
REMARK    5  A    between atoms: N_6  and  N_7
REMARK    6  A    between atoms: N_13  and  C_14
REMARK    7  A    between atoms: C_14  and  C_15
REMARK                            x       y       z     vdW  Elec       q    Type
REMARK                         _______ _______ _______ _____ _____    ______ ____
ROOT
ATOM      1  N   UNL     1       1.941   5.766  20.602  0.00  0.00    +0.000 NA
ATOM      2  C   UNL     1       1.978   4.578  20.081  0.00  0.00    +0.000 C 
ATOM      3  S   UNL     1       1.523   3.252  21.137  0.00  0.00    +0.000 S 
ATOM      4  C   UNL     1       1.874   2.003  19.899  0.00  0.00    +0.000 C 
ATOM      5  C   UNL     1       2.304   2.743  18.663  0.00  0.00    +0.000 C 
ATOM      6  O   UNL     1       2.640   2.142  17.641  0.00  0.00    +0.000 OA
ATOM      7  N   UNL     1       2.311   4.113  18.828  0.00  0.00    +0.000 N 
ENDROOT
BRANCH   1   9
ATOM      8  C   UNL     1       1.678   7.947  20.057  0.00  0.00    +0.000 C 
ATOM      9  N   UNL     1       2.272   6.823  19.777  0.00  0.00    +0.000 NA
BRANCH   8  11
ATOM     10  C   UNL     1       2.206   8.706  17.684  0.00  0.00    +0.000 C 
ATOM     11  C   UNL     1       1.918   9.115  19.112  0.00  0.00    +0.000 C 
ENDBRANCH   8  11
BRANCH   8  12
ATOM     12  C   UNL     1       0.739   8.178  21.232  0.00  0.00    +0.000 C 
ATOM     13  C   UNL     1       0.078   9.543  21.182  0.00  0.00    +0.000 C 
ENDBRANCH   8  12
ENDBRANCH   1   9
BRANCH   7  14
ATOM     14  C   UNL     1       2.874   4.922  17.753  0.00  0.00    +0.000 C 
BRANCH  14  15
ATOM     15  C   UNL     1       4.379   4.903  17.583  0.00  0.00    +0.000 A 
ATOM     16  C   UNL     1       4.890   4.473  16.344  0.00  0.00    +0.000 A 
ATOM     17  C   UNL     1       6.262   4.335  16.142  0.00  0.00    +0.000 A 
ATOM     18  C   UNL     1       7.148   4.655  17.166  0.00  0.00    +0.000 A 
ATOM     19  C   UNL     1       6.660   5.146  18.375  0.00  0.00    +0.000 A 
ATOM     20  C   UNL     1       5.283   5.281  18.583  0.00  0.00    +0.000 A 
ENDBRANCH  14  15
ENDBRANCH   7  14
TORSDOF 5
ENDMDL
MODEL 8
REMARK VINA RESULT:      -6.8      2.596      4.539
REMARK  Name = 
REMARK  7 active torsions:
REMARK  status: ('A' for Active; 'I' for Inactive)
REMARK    1  A    between atoms: C_1  and  C_2
REMARK    2  A    between atoms: C_2  and  C_3
REMARK    3  A    between atoms: C_3  and  C_4
REMARK    4  A    between atoms: C_4  and  C_5
REMARK    5  A    between atoms: N_6  and  N_7
REMARK    6  A    between atoms: N_13  and  C_14
REMARK    7  A    between atoms: C_14  and  C_15
REMARK                            x       y       z     vdW  Elec       q    Type
REMARK                         _______ _______ _______ _____ _____    ______ ____
ROOT
ATOM      1  N   UNL     1       3.803   7.388  17.204  0.00  0.00    +0.000 NA
ATOM      2  C   UNL     1       2.952   7.751  18.114  0.00  0.00    +0.000 C 
ATOM      3  S   UNL     1       2.111   9.264  17.832  0.00  0.00    +0.000 S 
ATOM      4  C   UNL     1       1.245   9.200  19.401  0.00  0.00    +0.000 C 
ATOM      5  C   UNL     1       1.656   7.912  20.058  0.00  0.00    +0.000 C 
ATOM      6  O   UNL     1       1.240   7.601  21.175  0.00  0.00    +0.000 OA
ATOM      7  N   UNL     1       2.550   7.180  19.302  0.00  0.00    +0.000 N 
ENDROOT
BRANCH   1   9
ATOM      8  C   UNL     1       5.755   6.256  17.381  0.00  0.00    +0.000 C 
ATOM      9  N   UNL     1       4.456   6.187  17.398  0.00  0.00    +0.000 NA
BRANCH   8  11
ATOM     10  C   UNL     1       6.969   4.392  16.140  0.00  0.00    +0.000 C 
ATOM     11  C   UNL     1       6.524   4.946  17.476  0.00  0.00    +0.000 C 
ENDBRANCH   8  11
BRANCH   8  12
ATOM     12  C   UNL     1       6.566   7.536  17.243  0.00  0.00    +0.000 C 
ATOM     13  C   UNL     1       7.894   7.460  17.975  0.00  0.00    +0.000 C 
ENDBRANCH   8  12
ENDBRANCH   1   9
BRANCH   7  14
ATOM     14  C   UNL     1       3.148   6.000  19.913  0.00  0.00    +0.000 C 
BRANCH  14  15
ATOM     15  C   UNL     1       2.347   4.714  19.873  0.00  0.00    +0.000 A 
ATOM     16  C   UNL     1       2.027   4.185  18.608  0.00  0.00    +0.000 A 
ATOM     17  C   UNL     1       1.213   3.060  18.485  0.00  0.00    +0.000 A 
ATOM     18  C   UNL     1       0.730   2.428  19.627  0.00  0.00    +0.000 A 
ATOM     19  C   UNL     1       1.093   2.900  20.886  0.00  0.00    +0.000 A 
ATOM     20  C   UNL     1       1.907   4.031  21.012  0.00  0.00    +0.000 A 
ENDBRANCH  14  15
ENDBRANCH   7  14
TORSDOF 5
ENDMDL
MODEL 9
REMARK VINA RESULT:      -6.8      2.702      4.536
REMARK  Name = 
REMARK  7 active torsions:
REMARK  status: ('A' for Active; 'I' for Inactive)
REMARK    1  A    between atoms: C_1  and  C_2
REMARK    2  A    between atoms: C_2  and  C_3
REMARK    3  A    between atoms: C_3  and  C_4
REMARK    4  A    between atoms: C_4  and  C_5
REMARK    5  A    between atoms: N_6  and  N_7
REMARK    6  A    between atoms: N_13  and  C_14
REMARK    7  A    between atoms: C_14  and  C_15
REMARK                            x       y       z     vdW  Elec       q    Type
REMARK                         _______ _______ _______ _____ _____    ______ ____
ROOT
ATOM      1  N   UNL     1       3.536   7.542  17.211  0.00  0.00    +0.000 NA
ATOM      2  C   UNL     1       2.724   7.943  18.140  0.00  0.00    +0.000 C 
ATOM      3  S   UNL     1       1.935   9.487  17.869  0.00  0.00    +0.000 S 
ATOM      4  C   UNL     1       1.107   9.466  19.459  0.00  0.00    +0.000 C 
ATOM      5  C   UNL     1       1.484   8.166  20.114  0.00  0.00    +0.000 C 
ATOM      6  O   UNL     1       1.085   7.879  21.244  0.00  0.00    +0.000 OA
ATOM      7  N   UNL     1       2.329   7.396  19.341  0.00  0.00    +0.000 N 
ENDROOT
BRANCH   1   9
ATOM      8  C   UNL     1       5.447   6.338  17.362  0.00  0.00    +0.000 C 
ATOM      9  N   UNL     1       4.146   6.317  17.396  0.00  0.00    +0.000 NA
BRANCH   8  11
ATOM     10  C   UNL     1       5.640   4.081  18.527  0.00  0.00    +0.000 C 
ATOM     11  C   UNL     1       6.167   5.000  17.447  0.00  0.00    +0.000 C 
ENDBRANCH   8  11
BRANCH   8  12
ATOM     12  C   UNL     1       6.304   7.587  17.212  0.00  0.00    +0.000 C 
ATOM     13  C   UNL     1       7.714   7.385  17.736  0.00  0.00    +0.000 C 
ENDBRANCH   8  12
ENDBRANCH   1   9
BRANCH   7  14
ATOM     14  C   UNL     1       2.896   6.196  19.945  0.00  0.00    +0.000 C 
BRANCH  14  15
ATOM     15  C   UNL     1       2.124   4.903  19.781  0.00  0.00    +0.000 A 
ATOM     16  C   UNL     1       1.813   4.177  20.947  0.00  0.00    +0.000 A 
ATOM     17  C   UNL     1       1.191   2.932  20.873  0.00  0.00    +0.000 A 
ATOM     18  C   UNL     1       0.841   2.406  19.633  0.00  0.00    +0.000 A 
ATOM     19  C   UNL     1       1.080   3.144  18.476  0.00  0.00    +0.000 A 
ATOM     20  C   UNL     1       1.709   4.391  18.547  0.00  0.00    +0.000 A 
ENDBRANCH  14  15
ENDBRANCH   7  14
TORSDOF 5
ENDMDL
