MODEL 1
REMARK VINA RESULT:      -7.3      0.000      0.000
REMARK  Name = 
REMARK  5 active torsions:
REMARK  status: ('A' for Active; 'I' for Inactive)
REMARK    1  A    between atoms: C_1  and  O_2
REMARK    2  A    between atoms: O_2  and  C_3
REMARK    3  A    between atoms: C_5  and  C_6
REMARK    4  A    between atoms: C_6  and  N_7
REMARK    5  A    between atoms: N_10  and  C_11
REMARK                            x       y       z     vdW  Elec       q    Type
REMARK                         _______ _______ _______ _____ _____    ______ ____
ROOT
ATOM      1  N   UNL     1       2.101   8.090  19.902  0.00  0.00    +0.000 NA
ATOM      2  C   UNL     1       2.216   8.752  18.585  0.00  0.00    +0.000 C 
ATOM      3  C   UNL     1       0.939   9.372  17.954  0.00  0.00    +0.000 C 
ATOM      4  N   UNL     1       0.063  10.083  18.923  0.00  0.00    +0.000 N 
ATOM      5  C   UNL     1      -0.016   9.430  20.254  0.00  0.00    +0.000 C 
ATOM      6  C   UNL     1       1.345   8.981  20.797  0.00  0.00    +0.000 C 
ENDROOT
BRANCH   4   7
ATOM      7  C   UNL     1      -1.205  10.433  18.371  0.00  0.00    +0.000 A 
ATOM      8  C   UNL     1      -1.687   9.876  17.171  0.00  0.00    +0.000 A 
ATOM      9  C   UNL     1      -2.985  10.147  16.707  0.00  0.00    +0.000 A 
ATOM     10  C   UNL     1      -3.846  10.967  17.448  0.00  0.00    +0.000 A 
ATOM     11  C   UNL     1      -3.376  11.530  18.610  0.00  0.00    +0.000 A 
ATOM     12  C   UNL     1      -2.062  11.333  19.019  0.00  0.00    +0.000 A 
ATOM     13  O   UNL     1      -4.148  12.218  19.500  0.00  0.00    +0.000 OA
ATOM     14  C   UNL     1      -5.317  12.766  18.930  0.00  0.00    +0.000 C 
ATOM     15  C   UNL     1      -5.911  12.057  17.714  0.00  0.00    +0.000 C 
ATOM     16  O   UNL     1      -5.106  11.137  16.981  0.00  0.00    +0.000 OA
ENDBRANCH   4   7
BRANCH   1  17
ATOM     17  C   UNL     1       1.528   6.735  19.842  0.00  0.00    +0.000 C 
BRANCH  17  20
ATOM     18  C   UNL     1       4.493   4.517  18.799  0.00  0.00    +0.000 A 
ATOM     19  C   UNL     1       3.740   5.521  19.416  0.00  0.00    +0.000 A 
ATOM     20  C   UNL     1       2.385   5.724  19.090  0.00  0.00    +0.000 A 
ATOM     21  C   UNL     1       1.794   4.886  18.127  0.00  0.00    +0.000 A 
ATOM     22  C   UNL     1       2.554   3.906  17.483  0.00  0.00    +0.000 A 
ATOM     23  C   UNL     1       3.894   3.735  17.814  0.00  0.00    +0.000 A 
ATOM     24  F   UNL     1       4.595   2.772  17.194  0.00  0.00    +0.000 F 
BRANCH  18  26
ATOM     25  C   UNL     1       6.646   5.401  19.144  0.00  0.00    +0.000 C 
ATOM     26  O   UNL     1       5.805   4.251  19.094  0.00  0.00    +0.000 OA
ENDBRANCH  18  26
ENDBRANCH  17  20
ENDBRANCH   1  17
TORSDOF 4
ENDMDL
MODEL 2
REMARK VINA RESULT:      -7.2      3.229      9.142
REMARK  Name = 
REMARK  5 active torsions:
REMARK  status: ('A' for Active; 'I' for Inactive)
REMARK    1  A    between atoms: C_1  and  O_2
REMARK    2  A    between atoms: O_2  and  C_3
REMARK    3  A    between atoms: C_5  and  C_6
REMARK    4  A    between atoms: C_6  and  N_7
REMARK    5  A    between atoms: N_10  and  C_11
REMARK                            x       y       z     vdW  Elec       q    Type
REMARK                         _______ _______ _______ _____ _____    ______ ____
ROOT
ATOM      1  N   UNL     1       0.553  10.377  18.634  0.00  0.00    +0.000 NA
ATOM      2  C   UNL     1       0.581   9.909  20.035  0.00  0.00    +0.000 C 
ATOM      3  C   UNL     1       1.003   8.440  20.316  0.00  0.00    +0.000 C 
ATOM      4  N   UNL     1       2.141   7.962  19.487  0.00  0.00    +0.000 N 
ATOM      5  C   UNL     1       2.123   8.469  18.092  0.00  0.00    +0.000 C 
ATOM      6  C   UNL     1       1.810   9.965  17.988  0.00  0.00    +0.000 C 
ENDROOT
BRANCH   4   7
ATOM      7  C   UNL     1       2.352   6.555  19.593  0.00  0.00    +0.000 A 
ATOM      8  C   UNL     1       1.862   5.796  20.672  0.00  0.00    +0.000 A 
ATOM      9  C   UNL     1       1.981   4.397  20.697  0.00  0.00    +0.000 A 
ATOM     10  C   UNL     1       2.575   3.717  19.626  0.00  0.00    +0.000 A 
ATOM     11  C   UNL     1       3.074   4.452  18.579  0.00  0.00    +0.000 A 
ATOM     12  C   UNL     1       3.036   5.842  18.599  0.00  0.00    +0.000 A 
ATOM     13  O   UNL     1       3.536   3.916  17.412  0.00  0.00    +0.000 OA
ATOM     14  C   UNL     1       3.958   2.575  17.533  0.00  0.00    +0.000 C 
ATOM     15  C   UNL     1       3.303   1.722  18.619  0.00  0.00    +0.000 C 
ATOM     16  O   UNL     1       2.601   2.363  19.680  0.00  0.00    +0.000 OA
ENDBRANCH   4   7
BRANCH   1  17
ATOM     17  C   UNL     1      -0.635   9.940  17.881  0.00  0.00    +0.000 C 
BRANCH  17  20
ATOM     18  C   UNL     1      -3.118  12.351  19.560  0.00  0.00    +0.000 A 
ATOM     19  C   UNL     1      -1.942  11.660  19.253  0.00  0.00    +0.000 A 
ATOM     20  C   UNL     1      -1.932  10.616  18.308  0.00  0.00    +0.000 A 
ATOM     21  C   UNL     1      -3.139  10.280  17.668  0.00  0.00    +0.000 A 
ATOM     22  C   UNL     1      -4.322  10.945  17.999  0.00  0.00    +0.000 A 
ATOM     23  C   UNL     1      -4.307  11.964  18.946  0.00  0.00    +0.000 A 
ATOM     24  F   UNL     1      -5.455  12.599  19.231  0.00  0.00    +0.000 F 
BRANCH  18  26
ATOM     25  C   UNL     1      -3.340  13.004  21.810  0.00  0.00    +0.000 C 
ATOM     26  O   UNL     1      -3.185  13.394  20.447  0.00  0.00    +0.000 OA
ENDBRANCH  18  26
ENDBRANCH  17  20
ENDBRANCH   1  17
TORSDOF 4
ENDMDL
MODEL 3
REMARK VINA RESULT:      -7.1      4.192      6.285
REMARK  Name = 
REMARK  5 active torsions:
REMARK  status: ('A' for Active; 'I' for Inactive)
REMARK    1  A    between atoms: C_1  and  O_2
REMARK    2  A    between atoms: O_2  and  C_3
REMARK    3  A    between atoms: C_5  and  C_6
REMARK    4  A    between atoms: C_6  and  N_7
REMARK    5  A    between atoms: N_10  and  C_11
REMARK                            x       y       z     vdW  Elec       q    Type
REMARK                         _______ _______ _______ _____ _____    ______ ____
ROOT
ATOM      1  N   UNL     1       5.083   4.494  16.870  0.00  0.00    +0.000 NA
ATOM      2  C   UNL     1       5.606   5.113  18.106  0.00  0.00    +0.000 C 
ATOM      3  C   UNL     1       4.706   6.127  18.864  0.00  0.00    +0.000 C 
ATOM      4  N   UNL     1       3.272   5.739  18.933  0.00  0.00    +0.000 N 
ATOM      5  C   UNL     1       2.767   5.085  17.700  0.00  0.00    +0.000 C 
ATOM      6  C   UNL     1       3.716   4.020  17.139  0.00  0.00    +0.000 C 
ENDROOT
BRANCH   4   7
ATOM      7  C   UNL     1       2.436   6.787  19.420  0.00  0.00    +0.000 A 
ATOM      8  C   UNL     1       1.798   6.725  20.673  0.00  0.00    +0.000 A 
ATOM      9  C   UNL     1       1.075   7.816  21.181  0.00  0.00    +0.000 A 
ATOM     10  C   UNL     1       0.992   9.012  20.456  0.00  0.00    +0.000 A 
ATOM     11  C   UNL     1       1.595   9.073  19.223  0.00  0.00    +0.000 A 
ATOM     12  C   UNL     1       2.233   7.962  18.683  0.00  0.00    +0.000 A 
ATOM     13  O   UNL     1       1.723  10.213  18.483  0.00  0.00    +0.000 OA
ATOM     14  C   UNL     1       0.764  11.200  18.796  0.00  0.00    +0.000 C 
ATOM     15  C   UNL     1       0.191  11.208  20.213  0.00  0.00    +0.000 C 
ATOM     16  O   UNL     1       0.336  10.049  21.029  0.00  0.00    +0.000 OA
ENDBRANCH   4   7
BRANCH   1  17
ATOM     17  C   UNL     1       5.151   5.370  15.688  0.00  0.00    +0.000 C 
BRANCH  17  20
ATOM     18  C   UNL     1       5.756   3.378  12.454  0.00  0.00    +0.000 A 
ATOM     19  C   UNL     1       5.156   3.864  13.619  0.00  0.00    +0.000 A 
ATOM     20  C   UNL     1       5.839   4.743  14.481  0.00  0.00    +0.000 A 
ATOM     21  C   UNL     1       7.147   5.133  14.142  0.00  0.00    +0.000 A 
ATOM     22  C   UNL     1       7.762   4.621  12.996  0.00  0.00    +0.000 A 
ATOM     23  C   UNL     1       7.070   3.742  12.169  0.00  0.00    +0.000 A 
ATOM     24  F   UNL     1       7.678   3.281  11.065  0.00  0.00    +0.000 F 
BRANCH  18  26
ATOM     25  C   UNL     1       3.883   3.024  11.074  0.00  0.00    +0.000 C 
ATOM     26  O   UNL     1       5.134   2.544  11.561  0.00  0.00    +0.000 OA
ENDBRANCH  18  26
ENDBRANCH  17  20
ENDBRANCH   1  17
TORSDOF 4
ENDMDL
MODEL 4
REMARK VINA RESULT:      -7.1      3.240      9.364
REMARK  Name = 
REMARK  5 active torsions:
REMARK  status: ('A' for Active; 'I' for Inactive)
REMARK    1  A    between atoms: C_1  and  O_2
REMARK    2  A    between atoms: O_2  and  C_3
REMARK    3  A    between atoms: C_5  and  C_6
REMARK    4  A    between atoms: C_6  and  N_7
REMARK    5  A    between atoms: N_10  and  C_11
REMARK                            x       y       z     vdW  Elec       q    Type
REMARK                         _______ _______ _______ _____ _____    ______ ____
ROOT
ATOM      1  N   UNL     1       0.487  10.521  18.994  0.00  0.00    +0.000 NA
ATOM      2  C   UNL     1       0.698  10.030  20.371  0.00  0.00    +0.000 C 
ATOM      3  C   UNL     1       1.113   8.546  20.572  0.00  0.00    +0.000 C 
ATOM      4  N   UNL     1       2.109   8.051  19.585  0.00  0.00    +0.000 N 
ATOM      5  C   UNL     1       1.910   8.580  18.213  0.00  0.00    +0.000 C 
ATOM      6  C   UNL     1       1.628  10.086  18.172  0.00  0.00    +0.000 C 
ENDROOT
BRANCH   4   7
ATOM      7  C   UNL     1       2.293   6.638  19.643  0.00  0.00    +0.000 A 
ATOM      8  C   UNL     1       1.742   5.845  20.668  0.00  0.00    +0.000 A 
ATOM      9  C   UNL     1       1.837   4.444  20.641  0.00  0.00    +0.000 A 
ATOM     10  C   UNL     1       2.468   3.796  19.572  0.00  0.00    +0.000 A 
ATOM     11  C   UNL     1       3.025   4.564  18.578  0.00  0.00    +0.000 A 
ATOM     12  C   UNL     1       3.009   5.952  18.653  0.00  0.00    +0.000 A 
ATOM     13  O   UNL     1       3.531   4.067  17.412  0.00  0.00    +0.000 OA
ATOM     14  C   UNL     1       3.926   2.714  17.498  0.00  0.00    +0.000 C 
ATOM     15  C   UNL     1       3.209   1.831  18.517  0.00  0.00    +0.000 C 
ATOM     16  O   UNL     1       2.470   2.441  19.571  0.00  0.00    +0.000 OA
ENDBRANCH   4   7
BRANCH   1  17
ATOM     17  C   UNL     1      -0.808  10.127  18.411  0.00  0.00    +0.000 C 
BRANCH  17  20
ATOM     18  C   UNL     1      -4.298  11.740  18.520  0.00  0.00    +0.000 A 
ATOM     19  C   UNL     1      -3.205  10.970  18.111  0.00  0.00    +0.000 A 
ATOM     20  C   UNL     1      -1.965  11.049  18.775  0.00  0.00    +0.000 A 
ATOM     21  C   UNL     1      -1.846  11.921  19.872  0.00  0.00    +0.000 A 
ATOM     22  C   UNL     1      -2.927  12.718  20.260  0.00  0.00    +0.000 A 
ATOM     23  C   UNL     1      -4.137  12.631  19.579  0.00  0.00    +0.000 A 
ATOM     24  F   UNL     1      -5.163  13.393  19.986  0.00  0.00    +0.000 F 
BRANCH  18  26
ATOM     25  C   UNL     1      -6.416  10.714  18.495  0.00  0.00    +0.000 C 
ATOM     26  O   UNL     1      -5.536  11.686  17.935  0.00  0.00    +0.000 OA
ENDBRANCH  18  26
ENDBRANCH  17  20
ENDBRANCH   1  17
TORSDOF 4
ENDMDL
MODEL 5
REMARK VINA RESULT:      -7.1      6.753      8.784
REMARK  Name = 
REMARK  5 active torsions:
REMARK  status: ('A' for Active; 'I' for Inactive)
REMARK    1  A    between atoms: C_1  and  O_2
REMARK    2  A    between atoms: O_2  and  C_3
REMARK    3  A    between atoms: C_5  and  C_6
REMARK    4  A    between atoms: C_6  and  N_7
REMARK    5  A    between atoms: N_10  and  C_11
REMARK                            x       y       z     vdW  Elec       q    Type
REMARK                         _______ _______ _______ _____ _____    ______ ____
ROOT
ATOM      1  N   UNL     1       6.080   5.406  17.675  0.00  0.00    +0.000 NA
ATOM      2  C   UNL     1       5.803   6.524  16.749  0.00  0.00    +0.000 C 
ATOM      3  C   UNL     1       6.393   7.923  17.080  0.00  0.00    +0.000 C 
ATOM      4  N   UNL     1       7.785   7.890  17.604  0.00  0.00    +0.000 N 
ATOM      5  C   UNL     1       8.062   6.742  18.503  0.00  0.00    +0.000 C 
ATOM      6  C   UNL     1       7.520   5.409  17.978  0.00  0.00    +0.000 C 
ENDROOT
BRANCH   4   7
ATOM      7  C   UNL     1       8.214   9.149  18.118  0.00  0.00    +0.000 A 
ATOM      8  C   UNL     1       9.139   9.260  19.173  0.00  0.00    +0.000 A 
ATOM      9  C   UNL     1       9.635  10.508  19.585  0.00  0.00    +0.000 A 
ATOM     10  C   UNL     1       9.232  11.681  18.934  0.00  0.00    +0.000 A 
ATOM     11  C   UNL     1       8.313  11.583  17.918  0.00  0.00    +0.000 A 
ATOM     12  C   UNL     1       7.756  10.357  17.573  0.00  0.00    +0.000 A 
ATOM     13  O   UNL     1       7.951  12.617  17.104  0.00  0.00    +0.000 OA
ATOM     14  C   UNL     1       8.166  13.889  17.676  0.00  0.00    +0.000 C 
ATOM     15  C   UNL     1       9.279  14.020  18.714  0.00  0.00    +0.000 C 
ATOM     16  O   UNL     1       9.794  12.846  19.336  0.00  0.00    +0.000 OA
ENDBRANCH   4   7
BRANCH   1  17
ATOM     17  C   UNL     1       5.249   5.418  18.891  0.00  0.00    +0.000 C 
BRANCH  17  20
ATOM     18  C   UNL     1       1.913   3.716  19.767  0.00  0.00    +0.000 A 
ATOM     19  C   UNL     1       3.093   4.457  19.878  0.00  0.00    +0.000 A 
ATOM     20  C   UNL     1       4.022   4.519  18.821  0.00  0.00    +0.000 A 
ATOM     21  C   UNL     1       3.735   3.819  17.635  0.00  0.00    +0.000 A 
ATOM     22  C   UNL     1       2.572   3.049  17.534  0.00  0.00    +0.000 A 
ATOM     23  C   UNL     1       1.679   2.994  18.599  0.00  0.00    +0.000 A 
ATOM     24  F   UNL     1       0.561   2.262  18.466  0.00  0.00    +0.000 F 
BRANCH  18  26
ATOM     25  C   UNL     1       1.235   2.689  21.772  0.00  0.00    +0.000 C 
ATOM     26  O   UNL     1       0.958   3.641  20.748  0.00  0.00    +0.000 OA
ENDBRANCH  18  26
ENDBRANCH  17  20
ENDBRANCH   1  17
TORSDOF 4
ENDMDL
MODEL 6
REMARK VINA RESULT:      -7.1      3.235      9.307
REMARK  Name = 
REMARK  5 active torsions:
REMARK  status: ('A' for Active; 'I' for Inactive)
REMARK    1  A    between atoms: C_1  and  O_2
REMARK    2  A    between atoms: O_2  and  C_3
REMARK    3  A    between atoms: C_5  and  C_6
REMARK    4  A    between atoms: C_6  and  N_7
REMARK    5  A    between atoms: N_10  and  C_11
REMARK                            x       y       z     vdW  Elec       q    Type
REMARK                         _______ _______ _______ _____ _____    ______ ____
ROOT
ATOM      1  N   UNL     1       0.628  10.426  19.084  0.00  0.00    +0.000 NA
ATOM      2  C   UNL     1       0.894   9.524  20.225  0.00  0.00    +0.000 C 
ATOM      3  C   UNL     1       1.457   8.106  19.931  0.00  0.00    +0.000 C 
ATOM      4  N   UNL     1       2.494   8.069  18.866  0.00  0.00    +0.000 N 
ATOM      5  C   UNL     1       2.236   9.005  17.743  0.00  0.00    +0.000 C 
ATOM      6  C   UNL     1       1.804  10.403  18.199  0.00  0.00    +0.000 C 
ENDROOT
BRANCH   4   7
ATOM      7  C   UNL     1       2.819   6.742  18.454  0.00  0.00    +0.000 A 
ATOM      8  C   UNL     1       3.841   6.467  17.526  0.00  0.00    +0.000 A 
ATOM      9  C   UNL     1       4.220   5.149  17.224  0.00  0.00    +0.000 A 
ATOM     10  C   UNL     1       3.600   4.068  17.863  0.00  0.00    +0.000 A 
ATOM     11  C   UNL     1       2.588   4.328  18.755  0.00  0.00    +0.000 A 
ATOM     12  C   UNL     1       2.153   5.628  18.984  0.00  0.00    +0.000 A 
ATOM     13  O   UNL     1       2.006   3.388  19.556  0.00  0.00    +0.000 OA
ATOM     14  C   UNL     1       2.125   2.072  19.062  0.00  0.00    +0.000 C 
ATOM     15  C   UNL     1       3.328   1.755  18.174  0.00  0.00    +0.000 C 
ATOM     16  O   UNL     1       4.055   2.825  17.577  0.00  0.00    +0.000 OA
ENDBRANCH   4   7
BRANCH   1  17
ATOM     17  C   UNL     1      -0.622  10.127  18.366  0.00  0.00    +0.000 C 
BRANCH  17  20
ATOM     18  C   UNL     1      -4.173  11.586  18.616  0.00  0.00    +0.000 A 
ATOM     19  C   UNL     1      -3.068  10.854  18.171  0.00  0.00    +0.000 A 
ATOM     20  C   UNL     1      -1.801  11.006  18.766  0.00  0.00    +0.000 A 
ATOM     21  C   UNL     1      -1.665  11.913  19.833  0.00  0.00    +0.000 A 
ATOM     22  C   UNL     1      -2.760  12.672  20.256  0.00  0.00    +0.000 A 
ATOM     23  C   UNL     1      -3.998  12.513  19.642  0.00  0.00    +0.000 A 
ATOM     24  F   UNL     1      -5.036  13.240  20.083  0.00  0.00    +0.000 F 
BRANCH  18  26
ATOM     25  C   UNL     1      -5.739  12.378  17.050  0.00  0.00    +0.000 C 
ATOM     26  O   UNL     1      -5.435  11.462  18.098  0.00  0.00    +0.000 OA
ENDBRANCH  18  26
ENDBRANCH  17  20
ENDBRANCH   1  17
TORSDOF 4
ENDMDL
MODEL 7
REMARK VINA RESULT:      -7.0      1.159      1.285
REMARK  Name = 
REMARK  5 active torsions:
REMARK  status: ('A' for Active; 'I' for Inactive)
REMARK    1  A    between atoms: C_1  and  O_2
REMARK    2  A    between atoms: O_2  and  C_3
REMARK    3  A    between atoms: C_5  and  C_6
REMARK    4  A    between atoms: C_6  and  N_7
REMARK    5  A    between atoms: N_10  and  C_11
REMARK                            x       y       z     vdW  Elec       q    Type
REMARK                         _______ _______ _______ _____ _____    ______ ____
ROOT
ATOM      1  N   UNL     1       1.828   8.006  20.345  0.00  0.00    +0.000 NA
ATOM      2  C   UNL     1       2.012   8.413  18.935  0.00  0.00    +0.000 C 
ATOM      3  C   UNL     1       0.816   9.070  18.193  0.00  0.00    +0.000 C 
ATOM      4  N   UNL     1       0.045  10.040  19.015  0.00  0.00    +0.000 N 
ATOM      5  C   UNL     1      -0.102   9.640  20.437  0.00  0.00    +0.000 C 
ATOM      6  C   UNL     1       1.198   9.124  21.065  0.00  0.00    +0.000 C 
ENDROOT
BRANCH   4   7
ATOM      7  C   UNL     1      -1.175  10.445  18.396  0.00  0.00    +0.000 A 
ATOM      8  C   UNL     1      -1.555  10.005  17.115  0.00  0.00    +0.000 A 
ATOM      9  C   UNL     1      -2.812  10.323  16.573  0.00  0.00    +0.000 A 
ATOM     10  C   UNL     1      -3.733  11.075  17.314  0.00  0.00    +0.000 A 
ATOM     11  C   UNL     1      -3.361  11.525  18.558  0.00  0.00    +0.000 A 
ATOM     12  C   UNL     1      -2.084  11.286  19.053  0.00  0.00    +0.000 A 
ATOM     13  O   UNL     1      -4.205  12.132  19.442  0.00  0.00    +0.000 OA
ATOM     14  C   UNL     1      -5.326  12.735  18.832  0.00  0.00    +0.000 C 
ATOM     15  C   UNL     1      -5.816  12.145  17.510  0.00  0.00    +0.000 C 
ATOM     16  O   UNL     1      -4.951  11.293  16.764  0.00  0.00    +0.000 OA
ENDBRANCH   4   7
BRANCH   1  17
ATOM     17  C   UNL     1       1.090   6.743  20.510  0.00  0.00    +0.000 C 
BRANCH  17  20
ATOM     18  C   UNL     1       4.006   4.420  19.564  0.00  0.00    +0.000 A 
ATOM     19  C   UNL     1       3.191   5.552  19.666  0.00  0.00    +0.000 A 
ATOM     20  C   UNL     1       1.930   5.491  20.290  0.00  0.00    +0.000 A 
ATOM     21  C   UNL     1       1.504   4.261  20.821  0.00  0.00    +0.000 A 
ATOM     22  C   UNL     1       2.301   3.120  20.689  0.00  0.00    +0.000 A 
ATOM     23  C   UNL     1       3.537   3.205  20.056  0.00  0.00    +0.000 A 
ATOM     24  F   UNL     1       4.290   2.098  19.961  0.00  0.00    +0.000 F 
BRANCH  18  26
ATOM     25  C   UNL     1       5.254   4.392  17.569  0.00  0.00    +0.000 C 
ATOM     26  O   UNL     1       5.253   4.422  18.994  0.00  0.00    +0.000 OA
ENDBRANCH  18  26
ENDBRANCH  17  20
ENDBRANCH   1  17
TORSDOF 4
ENDMDL
MODEL 8
REMARK VINA RESULT:      -6.9      3.092      8.850
REMARK  Name = 
REMARK  5 active torsions:
REMARK  status: ('A' for Active; 'I' for Inactive)
REMARK    1  A    between atoms: C_1  and  O_2
REMARK    2  A    between atoms: O_2  and  C_3
REMARK    3  A    between atoms: C_5  and  C_6
REMARK    4  A    between atoms: C_6  and  N_7
REMARK    5  A    between atoms: N_10  and  C_11
REMARK                            x       y       z     vdW  Elec       q    Type
REMARK                         _______ _______ _______ _____ _____    ______ ____
ROOT
ATOM      1  N   UNL     1       0.353  10.117  19.620  0.00  0.00    +0.000 NA
ATOM      2  C   UNL     1       1.249   9.465  20.598  0.00  0.00    +0.000 C 
ATOM      3  C   UNL     1       1.917   8.118  20.207  0.00  0.00    +0.000 C 
ATOM      4  N   UNL     1       2.399   8.061  18.801  0.00  0.00    +0.000 N 
ATOM      5  C   UNL     1       1.511   8.751  17.833  0.00  0.00    +0.000 C 
ATOM      6  C   UNL     1       1.031  10.124  18.313  0.00  0.00    +0.000 C 
ENDROOT
BRANCH   4   7
ATOM      7  C   UNL     1       2.788   6.748  18.402  0.00  0.00    +0.000 A 
ATOM      8  C   UNL     1       3.889   6.509  17.559  0.00  0.00    +0.000 A 
ATOM      9  C   UNL     1       4.324   5.205  17.272  0.00  0.00    +0.000 A 
ATOM     10  C   UNL     1       3.678   4.101  17.844  0.00  0.00    +0.000 A 
ATOM     11  C   UNL     1       2.590   4.325  18.652  0.00  0.00    +0.000 A 
ATOM     12  C   UNL     1       2.107   5.612  18.860  0.00  0.00    +0.000 A 
ATOM     13  O   UNL     1       1.966   3.361  19.390  0.00  0.00    +0.000 OA
ATOM     14  C   UNL     1       2.157   2.055  18.891  0.00  0.00    +0.000 C 
ATOM     15  C   UNL     1       3.436   1.778  18.102  0.00  0.00    +0.000 C 
ATOM     16  O   UNL     1       4.185   2.872  17.582  0.00  0.00    +0.000 OA
ENDBRANCH   4   7
BRANCH   1  17
ATOM     17  C   UNL     1      -0.992   9.522  19.552  0.00  0.00    +0.000 C 
BRANCH  17  20
ATOM     18  C   UNL     1      -3.377  10.401  16.665  0.00  0.00    +0.000 A 
ATOM     19  C   UNL     1      -2.398   9.756  17.427  0.00  0.00    +0.000 A 
ATOM     20  C   UNL     1      -1.969  10.279  18.662  0.00  0.00    +0.000 A 
ATOM     21  C   UNL     1      -2.555  11.472  19.124  0.00  0.00    +0.000 A 
ATOM     22  C   UNL     1      -3.508  12.137  18.347  0.00  0.00    +0.000 A 
ATOM     23  C   UNL     1      -3.903  11.606  17.124  0.00  0.00    +0.000 A 
ATOM     24  F   UNL     1      -4.835  12.256  16.409  0.00  0.00    +0.000 F 
BRANCH  18  26
ATOM     25  C   UNL     1      -3.020  10.195  14.348  0.00  0.00    +0.000 C 
ATOM     26  O   UNL     1      -3.856   9.927  15.471  0.00  0.00    +0.000 OA
ENDBRANCH  18  26
ENDBRANCH  17  20
ENDBRANCH   1  17
TORSDOF 4
ENDMDL
MODEL 9
REMARK VINA RESULT:      -6.9      3.453      9.424
REMARK  Name = 
REMARK  5 active torsions:
REMARK  status: ('A' for Active; 'I' for Inactive)
REMARK    1  A    between atoms: C_1  and  O_2
REMARK    2  A    between atoms: O_2  and  C_3
REMARK    3  A    between atoms: C_5  and  C_6
REMARK    4  A    between atoms: C_6  and  N_7
REMARK    5  A    between atoms: N_10  and  C_11
REMARK                            x       y       z     vdW  Elec       q    Type
REMARK                         _______ _______ _______ _____ _____    ______ ____
ROOT
ATOM      1  N   UNL     1      -0.025  11.042  19.433  0.00  0.00    +0.000 NA
ATOM      2  C   UNL     1       0.241  10.329  20.700  0.00  0.00    +0.000 C 
ATOM      3  C   UNL     1       0.823   8.890  20.632  0.00  0.00    +0.000 C 
ATOM      4  N   UNL     1       1.870   8.704  19.591  0.00  0.00    +0.000 N 
ATOM      5  C   UNL     1       1.611   9.454  18.337  0.00  0.00    +0.000 C 
ATOM      6  C   UNL     1       1.158  10.900  18.570  0.00  0.00    +0.000 C 
ENDROOT
BRANCH   4   7
ATOM      7  C   UNL     1       2.214   7.335  19.390  0.00  0.00    +0.000 A 
ATOM      8  C   UNL     1       2.873   6.883  18.231  0.00  0.00    +0.000 A 
ATOM      9  C   UNL     1       3.305   5.552  18.105  0.00  0.00    +0.000 A 
ATOM     10  C   UNL     1       3.109   4.642  19.151  0.00  0.00    +0.000 A 
ATOM     11  C   UNL     1       2.448   5.070  20.277  0.00  0.00    +0.000 A 
ATOM     12  C   UNL     1       1.942   6.362  20.361  0.00  0.00    +0.000 A 
ATOM     13  O   UNL     1       2.325   4.339  21.423  0.00  0.00    +0.000 OA
ATOM     14  C   UNL     1       2.448   2.947  21.222  0.00  0.00    +0.000 C 
ATOM     15  C   UNL     1       3.294   2.474  20.041  0.00  0.00    +0.000 C 
ATOM     16  O   UNL     1       3.606   3.391  18.996  0.00  0.00    +0.000 OA
ENDBRANCH   4   7
BRANCH   1  17
ATOM     17  C   UNL     1      -1.266  10.621  18.760  0.00  0.00    +0.000 C 
BRANCH  17  20
ATOM     18  C   UNL     1      -4.830  12.068  18.737  0.00  0.00    +0.000 A 
ATOM     19  C   UNL     1      -3.690  11.345  18.374  0.00  0.00    +0.000 A 
ATOM     20  C   UNL     1      -2.476  11.492  19.073  0.00  0.00    +0.000 A 
ATOM     21  C   UNL     1      -2.432  12.385  20.159  0.00  0.00    +0.000 A 
ATOM     22  C   UNL     1      -3.561  13.136  20.501  0.00  0.00    +0.000 A 
ATOM     23  C   UNL     1      -4.743  12.982  19.785  0.00  0.00    +0.000 A 
ATOM     24  F   UNL     1      -5.817  13.701  20.148  0.00  0.00    +0.000 F 
BRANCH  18  26
ATOM     25  C   UNL     1      -6.812  10.818  18.526  0.00  0.00    +0.000 C 
ATOM     26  O   UNL     1      -6.045  11.947  18.115  0.00  0.00    +0.000 OA
ENDBRANCH  18  26
ENDBRANCH  17  20
ENDBRANCH   1  17
TORSDOF 4
ENDMDL
