MODEL 1
REMARK VINA RESULT:      -8.4      0.000      0.000
REMARK  Name = 
REMARK  7 active torsions:
REMARK  status: ('A' for Active; 'I' for Inactive)
REMARK    1  A    between atoms: C_1  and  C_2
REMARK    2  A    between atoms: C_2  and  O_3
REMARK    3  A    between atoms: O_3  and  C_4
REMARK    4  A    between atoms: C_4  and  C_6
REMARK    5  A    between atoms: C_6  and  N_7
REMARK    6  A    between atoms: C_9  and  C_10
REMARK    7  A    between atoms: N_11  and  N_12
REMARK                            x       y       z     vdW  Elec       q    Type
REMARK                         _______ _______ _______ _____ _____    ______ ____
ROOT
ATOM      1  N   UNL     1       5.119   5.021  18.018  0.00  0.00    +0.000 N 
ATOM      2  C   UNL     1       4.631   6.306  18.016  0.00  0.00    +0.000 A 
ATOM      3  C   UNL     1       3.247   6.263  18.074  0.00  0.00    +0.000 A 
ATOM      4  C   UNL     1       2.894   4.867  18.053  0.00  0.00    +0.000 A 
ATOM      5  C   UNL     1       1.666   4.169  18.057  0.00  0.00    +0.000 A 
ATOM      6  C   UNL     1       1.654   2.769  18.058  0.00  0.00    +0.000 A 
ATOM      7  C   UNL     1       2.844   2.051  18.063  0.00  0.00    +0.000 A 
ATOM      8  C   UNL     1       4.076   2.711  18.056  0.00  0.00    +0.000 A 
ATOM      9  C   UNL     1       4.077   4.117  18.045  0.00  0.00    +0.000 A 
ENDROOT
BRANCH   3  10
ATOM     10  C   UNL     1       2.337   7.412  18.164  0.00  0.00    +0.000 C 
ATOM     11  N   UNL     1       2.300   8.119  19.249  0.00  0.00    +0.000 NA
BRANCH  11  12
ATOM     12  N   UNL     1       1.378   9.148  19.383  0.00  0.00    +0.000 N 
ATOM     13  C   UNL     1       1.166  10.205  18.512  0.00  0.00    +0.000 C 
ATOM     14  O   UNL     1       1.886  10.582  17.598  0.00  0.00    +0.000 OA
ATOM     15  C   UNL     1      -0.155  10.879  18.890  0.00  0.00    +0.000 C 
ATOM     16  C   UNL     1      -0.011  12.380  19.226  0.00  0.00    +0.000 C 
ATOM     17  C   UNL     1      -1.248  12.963  19.899  0.00  0.00    +0.000 C 
ATOM     18  C   UNL     1      -1.326  12.429  21.131  0.00  0.00    +0.000 C 
ATOM     19  C   UNL     1      -0.208  11.422  21.245  0.00  0.00    +0.000 C 
ATOM     20  C   UNL     1       0.835  12.283  20.507  0.00  0.00    +0.000 C 
ATOM     21  C   UNL     1      -0.495  10.261  20.259  0.00  0.00    +0.000 C 
ATOM     22  C   UNL     1       0.438   9.084  20.393  0.00  0.00    +0.000 C 
ATOM     23  O   UNL     1       0.341   8.265  21.292  0.00  0.00    +0.000 OA
ENDBRANCH  11  12
ENDBRANCH   3  10
BRANCH   1  24
ATOM     24  C   UNL     1       6.534   4.671  17.949  0.00  0.00    +0.000 C 
BRANCH  24  25
ATOM     25  C   UNL     1       7.256   5.321  16.794  0.00  0.00    +0.000 C 
ATOM     26  O   UNL     1       7.581   6.495  16.704  0.00  0.00    +0.000 OA
BRANCH  25  27
ATOM     27  O   UNL     1       7.435   4.387  15.807  0.00  0.00    +0.000 OA
BRANCH  27  29
ATOM     28  C   UNL     1       5.467   4.343  14.454  0.00  0.00    +0.000 C 
ATOM     29  C   UNL     1       6.927   4.755  14.514  0.00  0.00    +0.000 C 
ENDBRANCH  27  29
ENDBRANCH  25  27
ENDBRANCH  24  25
ENDBRANCH   1  24
TORSDOF 6
ENDMDL
MODEL 2
REMARK VINA RESULT:      -8.3      0.847      1.940
REMARK  Name = 
REMARK  7 active torsions:
REMARK  status: ('A' for Active; 'I' for Inactive)
REMARK    1  A    between atoms: C_1  and  C_2
REMARK    2  A    between atoms: C_2  and  O_3
REMARK    3  A    between atoms: O_3  and  C_4
REMARK    4  A    between atoms: C_4  and  C_6
REMARK    5  A    between atoms: C_6  and  N_7
REMARK    6  A    between atoms: C_9  and  C_10
REMARK    7  A    between atoms: N_11  and  N_12
REMARK                            x       y       z     vdW  Elec       q    Type
REMARK                         _______ _______ _______ _____ _____    ______ ____
ROOT
ATOM      1  N   UNL     1       4.854   4.589  17.908  0.00  0.00    +0.000 N 
ATOM      2  C   UNL     1       4.473   5.908  17.836  0.00  0.00    +0.000 A 
ATOM      3  C   UNL     1       3.108   5.996  18.059  0.00  0.00    +0.000 A 
ATOM      4  C   UNL     1       2.646   4.642  18.216  0.00  0.00    +0.000 A 
ATOM      5  C   UNL     1       1.377   4.061  18.432  0.00  0.00    +0.000 A 
ATOM      6  C   UNL     1       1.253   2.674  18.572  0.00  0.00    +0.000 A 
ATOM      7  C   UNL     1       2.374   1.853  18.509  0.00  0.00    +0.000 A 
ATOM      8  C   UNL     1       3.643   2.396  18.295  0.00  0.00    +0.000 A 
ATOM      9  C   UNL     1       3.755   3.789  18.145  0.00  0.00    +0.000 A 
ENDROOT
BRANCH   3  10
ATOM     10  C   UNL     1       2.311   7.226  18.139  0.00  0.00    +0.000 C 
ATOM     11  N   UNL     1       2.294   7.909  19.240  0.00  0.00    +0.000 NA
BRANCH  11  12
ATOM     12  N   UNL     1       1.470   9.020  19.362  0.00  0.00    +0.000 N 
ATOM     13  C   UNL     1       0.610   9.317  20.408  0.00  0.00    +0.000 C 
ATOM     14  O   UNL     1       0.221   8.572  21.297  0.00  0.00    +0.000 OA
ATOM     15  C   UNL     1       0.179  10.779  20.273  0.00  0.00    +0.000 C 
ATOM     16  C   UNL     1      -1.351  10.967  20.169  0.00  0.00    +0.000 C 
ATOM     17  C   UNL     1      -1.753  12.367  19.720  0.00  0.00    +0.000 C 
ATOM     18  C   UNL     1      -1.389  12.497  18.432  0.00  0.00    +0.000 C 
ATOM     19  C   UNL     1      -0.661  11.232  18.051  0.00  0.00    +0.000 C 
ATOM     20  C   UNL     1      -1.610  10.287  18.814  0.00  0.00    +0.000 C 
ATOM     21  C   UNL     1       0.659  11.165  18.861  0.00  0.00    +0.000 C 
ATOM     22  C   UNL     1       1.586  10.050  18.450  0.00  0.00    +0.000 C 
ATOM     23  O   UNL     1       2.276  10.102  17.446  0.00  0.00    +0.000 OA
ENDBRANCH  11  12
ENDBRANCH   3  10
BRANCH   1  24
ATOM     24  C   UNL     1       6.218   4.107  17.710  0.00  0.00    +0.000 C 
BRANCH  24  25
ATOM     25  C   UNL     1       6.759   4.390  16.330  0.00  0.00    +0.000 C 
ATOM     26  O   UNL     1       7.642   5.183  16.042  0.00  0.00    +0.000 OA
BRANCH  25  27
ATOM     27  O   UNL     1       6.045   3.657  15.420  0.00  0.00    +0.000 OA
BRANCH  27  29
ATOM     28  C   UNL     1       6.185   3.666  13.035  0.00  0.00    +0.000 C 
ATOM     29  C   UNL     1       5.618   4.376  14.251  0.00  0.00    +0.000 C 
ENDBRANCH  27  29
ENDBRANCH  25  27
ENDBRANCH  24  25
ENDBRANCH   1  24
TORSDOF 6
ENDMDL
MODEL 3
REMARK VINA RESULT:      -8.3      1.149      2.345
REMARK  Name = 
REMARK  7 active torsions:
REMARK  status: ('A' for Active; 'I' for Inactive)
REMARK    1  A    between atoms: C_1  and  C_2
REMARK    2  A    between atoms: C_2  and  O_3
REMARK    3  A    between atoms: O_3  and  C_4
REMARK    4  A    between atoms: C_4  and  C_6
REMARK    5  A    between atoms: C_6  and  N_7
REMARK    6  A    between atoms: C_9  and  C_10
REMARK    7  A    between atoms: N_11  and  N_12
REMARK                            x       y       z     vdW  Elec       q    Type
REMARK                         _______ _______ _______ _____ _____    ______ ____
ROOT
ATOM      1  N   UNL     1       4.743   5.088  17.294  0.00  0.00    +0.000 N 
ATOM      2  C   UNL     1       4.449   6.357  17.733  0.00  0.00    +0.000 A 
ATOM      3  C   UNL     1       3.228   6.336  18.389  0.00  0.00    +0.000 A 
ATOM      4  C   UNL     1       2.746   4.984  18.281  0.00  0.00    +0.000 A 
ATOM      5  C   UNL     1       1.568   4.330  18.706  0.00  0.00    +0.000 A 
ATOM      6  C   UNL     1       1.400   2.960  18.467  0.00  0.00    +0.000 A 
ATOM      7  C   UNL     1       2.389   2.228  17.819  0.00  0.00    +0.000 A 
ATOM      8  C   UNL     1       3.564   2.846  17.384  0.00  0.00    +0.000 A 
ATOM      9  C   UNL     1       3.719   4.224  17.620  0.00  0.00    +0.000 A 
ENDROOT
BRANCH   3  10
ATOM     10  C   UNL     1       2.580   7.463  19.071  0.00  0.00    +0.000 C 
ATOM     11  N   UNL     1       1.878   8.310  18.386  0.00  0.00    +0.000 NA
BRANCH  11  12
ATOM     12  N   UNL     1       1.341   9.433  19.001  0.00  0.00    +0.000 N 
ATOM     13  C   UNL     1       0.642   9.481  20.197  0.00  0.00    +0.000 C 
ATOM     14  O   UNL     1       0.151   8.550  20.820  0.00  0.00    +0.000 OA
ATOM     15  C   UNL     1       0.549  10.944  20.639  0.00  0.00    +0.000 C 
ATOM     16  C   UNL     1      -0.900  11.444  20.827  0.00  0.00    +0.000 C 
ATOM     17  C   UNL     1      -0.998  12.960  20.953  0.00  0.00    +0.000 C 
ATOM     18  C   UNL     1      -0.698  13.484  19.751  0.00  0.00    +0.000 C 
ATOM     19  C   UNL     1      -0.306  12.335  18.855  0.00  0.00    +0.000 C 
ATOM     20  C   UNL     1      -1.395  11.375  19.372  0.00  0.00    +0.000 C 
ATOM     21  C   UNL     1       1.013  11.724  19.395  0.00  0.00    +0.000 C 
ATOM     22  C   UNL     1       1.632  10.685  18.495  0.00  0.00    +0.000 C 
ATOM     23  O   UNL     1       2.249  10.971  17.482  0.00  0.00    +0.000 OA
ENDBRANCH  11  12
ENDBRANCH   3  10
BRANCH   1  24
ATOM     24  C   UNL     1       5.943   4.726  16.546  0.00  0.00    +0.000 C 
BRANCH  24  25
ATOM     25  C   UNL     1       7.224   5.038  17.281  0.00  0.00    +0.000 C 
ATOM     26  O   UNL     1       7.822   4.301  18.050  0.00  0.00    +0.000 OA
BRANCH  25  27
ATOM     27  O   UNL     1       7.585   6.330  17.004  0.00  0.00    +0.000 OA
BRANCH  27  29
ATOM     28  C   UNL     1       7.923   8.590  17.699  0.00  0.00    +0.000 C 
ATOM     29  C   UNL     1       7.894   7.141  18.149  0.00  0.00    +0.000 C 
ENDBRANCH  27  29
ENDBRANCH  25  27
ENDBRANCH  24  25
ENDBRANCH   1  24
TORSDOF 6
ENDMDL
MODEL 4
REMARK VINA RESULT:      -8.2      1.113      1.595
REMARK  Name = 
REMARK  7 active torsions:
REMARK  status: ('A' for Active; 'I' for Inactive)
REMARK    1  A    between atoms: C_1  and  C_2
REMARK    2  A    between atoms: C_2  and  O_3
REMARK    3  A    between atoms: O_3  and  C_4
REMARK    4  A    between atoms: C_4  and  C_6
REMARK    5  A    between atoms: C_6  and  N_7
REMARK    6  A    between atoms: C_9  and  C_10
REMARK    7  A    between atoms: N_11  and  N_12
REMARK                            x       y       z     vdW  Elec       q    Type
REMARK                         _______ _______ _______ _____ _____    ______ ____
ROOT
ATOM      1  N   UNL     1       4.855   4.841  18.002  0.00  0.00    +0.000 N 
ATOM      2  C   UNL     1       4.394   6.136  17.966  0.00  0.00    +0.000 A 
ATOM      3  C   UNL     1       3.016   6.128  18.121  0.00  0.00    +0.000 A 
ATOM      4  C   UNL     1       2.635   4.742  18.195  0.00  0.00    +0.000 A 
ATOM      5  C   UNL     1       1.397   4.074  18.320  0.00  0.00    +0.000 A 
ATOM      6  C   UNL     1       1.357   2.677  18.394  0.00  0.00    +0.000 A 
ATOM      7  C   UNL     1       2.530   1.932  18.355  0.00  0.00    +0.000 A 
ATOM      8  C   UNL     1       3.771   2.561  18.230  0.00  0.00    +0.000 A 
ATOM      9  C   UNL     1       3.800   3.965  18.146  0.00  0.00    +0.000 A 
ENDROOT
BRANCH   3  10
ATOM     10  C   UNL     1       2.139   7.301  18.212  0.00  0.00    +0.000 C 
ATOM     11  N   UNL     1       2.221   8.087  19.240  0.00  0.00    +0.000 NA
BRANCH  11  12
ATOM     12  N   UNL     1       1.333   9.144  19.386  0.00  0.00    +0.000 N 
ATOM     13  C   UNL     1       1.144  10.208  18.518  0.00  0.00    +0.000 C 
ATOM     14  O   UNL     1       1.864  10.563  17.596  0.00  0.00    +0.000 OA
ATOM     15  C   UNL     1      -0.151  10.923  18.913  0.00  0.00    +0.000 C 
ATOM     16  C   UNL     1       0.044  12.417  19.248  0.00  0.00    +0.000 C 
ATOM     17  C   UNL     1      -1.166  13.038  19.937  0.00  0.00    +0.000 C 
ATOM     18  C   UNL     1      -1.246  12.505  21.169  0.00  0.00    +0.000 C 
ATOM     19  C   UNL     1      -0.158  11.464  21.269  0.00  0.00    +0.000 C 
ATOM     20  C   UNL     1       0.901  12.294  20.519  0.00  0.00    +0.000 C 
ATOM     21  C   UNL     1      -0.493  10.314  20.285  0.00  0.00    +0.000 C 
ATOM     22  C   UNL     1       0.404   9.109  20.408  0.00  0.00    +0.000 C 
ATOM     23  O   UNL     1       0.293   8.291  21.306  0.00  0.00    +0.000 OA
ENDBRANCH  11  12
ENDBRANCH   3  10
BRANCH   1  24
ATOM     24  C   UNL     1       6.255   4.455  17.855  0.00  0.00    +0.000 C 
BRANCH  24  25
ATOM     25  C   UNL     1       7.209   5.375  18.577  0.00  0.00    +0.000 C 
ATOM     26  O   UNL     1       7.320   5.508  19.786  0.00  0.00    +0.000 OA
BRANCH  25  27
ATOM     27  O   UNL     1       7.901   6.107  17.648  0.00  0.00    +0.000 OA
BRANCH  27  29
ATOM     28  C   UNL     1       8.210   8.449  17.997  0.00  0.00    +0.000 C 
ATOM     29  C   UNL     1       7.340   7.394  17.339  0.00  0.00    +0.000 C 
ENDBRANCH  27  29
ENDBRANCH  25  27
ENDBRANCH  24  25
ENDBRANCH   1  24
TORSDOF 6
ENDMDL
MODEL 5
REMARK VINA RESULT:      -8.0      1.403      1.991
REMARK  Name = 
REMARK  7 active torsions:
REMARK  status: ('A' for Active; 'I' for Inactive)
REMARK    1  A    between atoms: C_1  and  C_2
REMARK    2  A    between atoms: C_2  and  O_3
REMARK    3  A    between atoms: O_3  and  C_4
REMARK    4  A    between atoms: C_4  and  C_6
REMARK    5  A    between atoms: C_6  and  N_7
REMARK    6  A    between atoms: C_9  and  C_10
REMARK    7  A    between atoms: N_11  and  N_12
REMARK                            x       y       z     vdW  Elec       q    Type
REMARK                         _______ _______ _______ _____ _____    ______ ____
ROOT
ATOM      1  N   UNL     1       4.914   5.903  17.314  0.00  0.00    +0.000 N 
ATOM      2  C   UNL     1       4.157   6.999  17.654  0.00  0.00    +0.000 A 
ATOM      3  C   UNL     1       2.897   6.573  18.042  0.00  0.00    +0.000 A 
ATOM      4  C   UNL     1       2.892   5.145  17.867  0.00  0.00    +0.000 A 
ATOM      5  C   UNL     1       1.916   4.140  18.053  0.00  0.00    +0.000 A 
ATOM      6  C   UNL     1       2.235   2.798  17.815  0.00  0.00    +0.000 A 
ATOM      7  C   UNL     1       3.512   2.436  17.403  0.00  0.00    +0.000 A 
ATOM      8  C   UNL     1       4.500   3.405  17.207  0.00  0.00    +0.000 A 
ATOM      9  C   UNL     1       4.166   4.751  17.439  0.00  0.00    +0.000 A 
ENDROOT
BRANCH   3  10
ATOM     10  C   UNL     1       1.805   7.414  18.550  0.00  0.00    +0.000 C 
ATOM     11  N   UNL     1       2.080   8.527  19.154  0.00  0.00    +0.000 NA
BRANCH  11  12
ATOM     12  N   UNL     1       1.064   9.284  19.723  0.00  0.00    +0.000 N 
ATOM     13  C   UNL     1       0.158  10.101  19.067  0.00  0.00    +0.000 C 
ATOM     14  O   UNL     1       0.211  10.511  17.915  0.00  0.00    +0.000 OA
ATOM     15  C   UNL     1      -0.966  10.452  20.045  0.00  0.00    +0.000 C 
ATOM     16  C   UNL     1      -1.146  11.971  20.262  0.00  0.00    +0.000 C 
ATOM     17  C   UNL     1      -2.034  12.303  21.456  0.00  0.00    +0.000 C 
ATOM     18  C   UNL     1      -1.358  11.961  22.568  0.00  0.00    +0.000 C 
ATOM     19  C   UNL     1      -0.070  11.315  22.119  0.00  0.00    +0.000 C 
ATOM     20  C   UNL     1       0.185  12.298  20.960  0.00  0.00    +0.000 C 
ATOM     21  C   UNL     1      -0.416   9.983  21.405  0.00  0.00    +0.000 C 
ATOM     22  C   UNL     1       0.779   9.130  21.065  0.00  0.00    +0.000 C 
ATOM     23  O   UNL     1       1.370   8.461  21.897  0.00  0.00    +0.000 OA
ENDBRANCH  11  12
ENDBRANCH   3  10
BRANCH   1  24
ATOM     24  C   UNL     1       6.294   5.963  16.839  0.00  0.00    +0.000 C 
BRANCH  24  25
ATOM     25  C   UNL     1       7.310   5.664  17.914  0.00  0.00    +0.000 C 
ATOM     26  O   UNL     1       7.602   4.563  18.355  0.00  0.00    +0.000 OA
BRANCH  25  27
ATOM     27  O   UNL     1       7.818   6.848  18.380  0.00  0.00    +0.000 OA
BRANCH  27  29
ATOM     28  C   UNL     1       8.352   9.164  18.144  0.00  0.00    +0.000 C 
ATOM     29  C   UNL     1       7.732   7.954  17.468  0.00  0.00    +0.000 C 
ENDBRANCH  27  29
ENDBRANCH  25  27
ENDBRANCH  24  25
ENDBRANCH   1  24
TORSDOF 6
ENDMDL
MODEL 6
REMARK VINA RESULT:      -8.0      0.970      2.290
REMARK  Name = 
REMARK  7 active torsions:
REMARK  status: ('A' for Active; 'I' for Inactive)
REMARK    1  A    between atoms: C_1  and  C_2
REMARK    2  A    between atoms: C_2  and  O_3
REMARK    3  A    between atoms: O_3  and  C_4
REMARK    4  A    between atoms: C_4  and  C_6
REMARK    5  A    between atoms: C_6  and  N_7
REMARK    6  A    between atoms: C_9  and  C_10
REMARK    7  A    between atoms: N_11  and  N_12
REMARK                            x       y       z     vdW  Elec       q    Type
REMARK                         _______ _______ _______ _____ _____    ______ ____
ROOT
ATOM      1  N   UNL     1       4.679   4.624  16.964  0.00  0.00    +0.000 N 
ATOM      2  C   UNL     1       4.302   5.946  16.960  0.00  0.00    +0.000 A 
ATOM      3  C   UNL     1       3.069   6.064  17.582  0.00  0.00    +0.000 A 
ATOM      4  C   UNL     1       2.668   4.724  17.922  0.00  0.00    +0.000 A 
ATOM      5  C   UNL     1       1.520   4.173  18.532  0.00  0.00    +0.000 A 
ATOM      6  C   UNL     1       1.437   2.793  18.755  0.00  0.00    +0.000 A 
ATOM      7  C   UNL     1       2.481   1.953  18.388  0.00  0.00    +0.000 A 
ATOM      8  C   UNL     1       3.630   2.466  17.780  0.00  0.00    +0.000 A 
ATOM      9  C   UNL     1       3.699   3.851  17.551  0.00  0.00    +0.000 A 
ENDROOT
BRANCH   3  10
ATOM     10  C   UNL     1       2.341   7.310  17.853  0.00  0.00    +0.000 C 
ATOM     11  N   UNL     1       2.388   7.836  19.036  0.00  0.00    +0.000 NA
BRANCH  11  12
ATOM     12  N   UNL     1       1.628   8.960  19.333  0.00  0.00    +0.000 N 
ATOM     13  C   UNL     1       0.918   9.209  20.498  0.00  0.00    +0.000 C 
ATOM     14  O   UNL     1       0.617   8.417  21.380  0.00  0.00    +0.000 OA
ATOM     15  C   UNL     1       0.528  10.689  20.512  0.00  0.00    +0.000 C 
ATOM     16  C   UNL     1      -0.994  10.927  20.618  0.00  0.00    +0.000 C 
ATOM     17  C   UNL     1      -1.397  12.366  20.315  0.00  0.00    +0.000 C 
ATOM     18  C   UNL     1      -1.194  12.573  19.002  0.00  0.00    +0.000 C 
ATOM     19  C   UNL     1      -0.567  11.316  18.450  0.00  0.00    +0.000 C 
ATOM     20  C   UNL     1      -1.447  10.349  19.266  0.00  0.00    +0.000 C 
ATOM     21  C   UNL     1       0.840  11.157  19.079  0.00  0.00    +0.000 C 
ATOM     22  C   UNL     1       1.667  10.046  18.482  0.00  0.00    +0.000 C 
ATOM     23  O   UNL     1       2.227  10.147  17.403  0.00  0.00    +0.000 OA
ENDBRANCH  11  12
ENDBRANCH   3  10
BRANCH   1  24
ATOM     24  C   UNL     1       5.917   4.112  16.381  0.00  0.00    +0.000 C 
BRANCH  24  25
ATOM     25  C   UNL     1       6.826   5.198  15.859  0.00  0.00    +0.000 C 
ATOM     26  O   UNL     1       7.064   5.449  14.688  0.00  0.00    +0.000 OA
BRANCH  25  27
ATOM     27  O   UNL     1       7.411   5.830  16.925  0.00  0.00    +0.000 OA
BRANCH  27  29
ATOM     28  C   UNL     1       7.848   5.835  19.273  0.00  0.00    +0.000 C 
ATOM     29  C   UNL     1       7.771   4.976  18.023  0.00  0.00    +0.000 C 
ENDBRANCH  27  29
ENDBRANCH  25  27
ENDBRANCH  24  25
ENDBRANCH   1  24
TORSDOF 6
ENDMDL
MODEL 7
REMARK VINA RESULT:      -7.9      1.394      1.866
REMARK  Name = 
REMARK  7 active torsions:
REMARK  status: ('A' for Active; 'I' for Inactive)
REMARK    1  A    between atoms: C_1  and  C_2
REMARK    2  A    between atoms: C_2  and  O_3
REMARK    3  A    between atoms: O_3  and  C_4
REMARK    4  A    between atoms: C_4  and  C_6
REMARK    5  A    between atoms: C_6  and  N_7
REMARK    6  A    between atoms: C_9  and  C_10
REMARK    7  A    between atoms: N_11  and  N_12
REMARK                            x       y       z     vdW  Elec       q    Type
REMARK                         _______ _______ _______ _____ _____    ______ ____
ROOT
ATOM      1  N   UNL     1       4.458   4.733  18.003  0.00  0.00    +0.000 N 
ATOM      2  C   UNL     1       3.943   5.942  17.599  0.00  0.00    +0.000 A 
ATOM      3  C   UNL     1       2.883   6.279  18.426  0.00  0.00    +0.000 A 
ATOM      4  C   UNL     1       2.727   5.176  19.337  0.00  0.00    +0.000 A 
ATOM      5  C   UNL     1       1.824   4.895  20.386  0.00  0.00    +0.000 A 
ATOM      6  C   UNL     1       1.952   3.714  21.126  0.00  0.00    +0.000 A 
ATOM      7  C   UNL     1       2.971   2.810  20.846  0.00  0.00    +0.000 A 
ATOM      8  C   UNL     1       3.880   3.058  19.815  0.00  0.00    +0.000 A 
ATOM      9  C   UNL     1       3.736   4.242  19.070  0.00  0.00    +0.000 A 
ENDROOT
BRANCH   3  10
ATOM     10  C   UNL     1       2.101   7.521  18.385  0.00  0.00    +0.000 C 
ATOM     11  N   UNL     1       2.120   8.325  19.401  0.00  0.00    +0.000 NA
BRANCH  11  12
ATOM     12  N   UNL     1       1.311   9.454  19.416  0.00  0.00    +0.000 N 
ATOM     13  C   UNL     1       1.320  10.505  18.513  0.00  0.00    +0.000 C 
ATOM     14  O   UNL     1       2.175  10.776  17.682  0.00  0.00    +0.000 OA
ATOM     15  C   UNL     1       0.050  11.332  18.729  0.00  0.00    +0.000 C 
ATOM     16  C   UNL     1       0.325  12.815  19.060  0.00  0.00    +0.000 C 
ATOM     17  C   UNL     1      -0.904  13.550  19.580  0.00  0.00    +0.000 C 
ATOM     18  C   UNL     1      -1.180  13.060  20.801  0.00  0.00    +0.000 C 
ATOM     19  C   UNL     1      -0.203  11.938  21.056  0.00  0.00    +0.000 C 
ATOM     20  C   UNL     1       1.006  12.659  20.430  0.00  0.00    +0.000 C 
ATOM     21  C   UNL     1      -0.508  10.792  20.058  0.00  0.00    +0.000 C 
ATOM     22  C   UNL     1       0.264   9.522  20.314  0.00  0.00    +0.000 C 
ATOM     23  O   UNL     1      -0.025   8.742  21.206  0.00  0.00    +0.000 OA
ENDBRANCH  11  12
ENDBRANCH   3  10
BRANCH   1  24
ATOM     24  C   UNL     1       5.576   4.051  17.358  0.00  0.00    +0.000 C 
BRANCH  24  25
ATOM     25  C   UNL     1       6.907   4.718  17.604  0.00  0.00    +0.000 C 
ATOM     26  O   UNL     1       7.996   4.348  17.191  0.00  0.00    +0.000 OA
BRANCH  25  27
ATOM     27  O   UNL     1       6.715   5.789  18.436  0.00  0.00    +0.000 OA
BRANCH  27  29
ATOM     28  C   UNL     1       7.574   7.860  17.615  0.00  0.00    +0.000 C 
ATOM     29  C   UNL     1       7.829   6.689  18.546  0.00  0.00    +0.000 C 
ENDBRANCH  27  29
ENDBRANCH  25  27
ENDBRANCH  24  25
ENDBRANCH   1  24
TORSDOF 6
ENDMDL
MODEL 8
REMARK VINA RESULT:      -7.9      2.222      4.255
REMARK  Name = 
REMARK  7 active torsions:
REMARK  status: ('A' for Active; 'I' for Inactive)
REMARK    1  A    between atoms: C_1  and  C_2
REMARK    2  A    between atoms: C_2  and  O_3
REMARK    3  A    between atoms: O_3  and  C_4
REMARK    4  A    between atoms: C_4  and  C_6
REMARK    5  A    between atoms: C_6  and  N_7
REMARK    6  A    between atoms: C_9  and  C_10
REMARK    7  A    between atoms: N_11  and  N_12
REMARK                            x       y       z     vdW  Elec       q    Type
REMARK                         _______ _______ _______ _____ _____    ______ ____
ROOT
ATOM      1  N   UNL     1       2.776   4.257  17.683  0.00  0.00    +0.000 N 
ATOM      2  C   UNL     1       2.108   5.204  18.424  0.00  0.00    +0.000 A 
ATOM      3  C   UNL     1       2.829   6.388  18.396  0.00  0.00    +0.000 A 
ATOM      4  C   UNL     1       4.021   6.106  17.641  0.00  0.00    +0.000 A 
ATOM      5  C   UNL     1       5.156   6.869  17.285  0.00  0.00    +0.000 A 
ATOM      6  C   UNL     1       6.165   6.302  16.498  0.00  0.00    +0.000 A 
ATOM      7  C   UNL     1       6.061   4.990  16.051  0.00  0.00    +0.000 A 
ATOM      8  C   UNL     1       4.953   4.208  16.387  0.00  0.00    +0.000 A 
ATOM      9  C   UNL     1       3.950   4.783  17.187  0.00  0.00    +0.000 A 
ENDROOT
BRANCH   3  10
ATOM     10  C   UNL     1       2.435   7.668  18.998  0.00  0.00    +0.000 C 
ATOM     11  N   UNL     1       1.465   8.351  18.477  0.00  0.00    +0.000 NA
BRANCH  11  12
ATOM     12  N   UNL     1       1.146   9.607  18.976  0.00  0.00    +0.000 N 
ATOM     13  C   UNL     1       0.397   9.895  20.107  0.00  0.00    +0.000 C 
ATOM     14  O   UNL     1      -0.324   9.140  20.744  0.00  0.00    +0.000 OA
ATOM     15  C   UNL     1       0.596  11.373  20.448  0.00  0.00    +0.000 C 
ATOM     16  C   UNL     1      -0.718  12.183  20.488  0.00  0.00    +0.000 C 
ATOM     17  C   UNL     1      -0.493  13.690  20.512  0.00  0.00    +0.000 C 
ATOM     18  C   UNL     1      -0.008  14.044  19.308  0.00  0.00    +0.000 C 
ATOM     19  C   UNL     1       0.182  12.771  18.519  0.00  0.00    +0.000 C 
ATOM     20  C   UNL     1      -1.121  12.107  19.006  0.00  0.00    +0.000 C 
ATOM     21  C   UNL     1       1.298  11.939  19.200  0.00  0.00    +0.000 C 
ATOM     22  C   UNL     1       1.734  10.725  18.419  0.00  0.00    +0.000 C 
ATOM     23  O   UNL     1       2.463  10.794  17.443  0.00  0.00    +0.000 OA
ENDBRANCH  11  12
ENDBRANCH   3  10
BRANCH   1  24
ATOM     24  C   UNL     1       2.325   2.881  17.497  0.00  0.00    +0.000 C 
BRANCH  24  25
ATOM     25  C   UNL     1       1.424   2.391  18.604  0.00  0.00    +0.000 C 
ATOM     26  O   UNL     1       0.211   2.256  18.551  0.00  0.00    +0.000 OA
BRANCH  25  27
ATOM     27  O   UNL     1       2.181   2.182  19.727  0.00  0.00    +0.000 OA
BRANCH  27  29
ATOM     28  C   UNL     1       2.207   3.674  21.591  0.00  0.00    +0.000 C 
ATOM     29  C   UNL     1       1.524   2.468  20.972  0.00  0.00    +0.000 C 
ENDBRANCH  27  29
ENDBRANCH  25  27
ENDBRANCH  24  25
ENDBRANCH   1  24
TORSDOF 6
ENDMDL
MODEL 9
REMARK VINA RESULT:      -7.9      2.067      3.789
REMARK  Name = 
REMARK  7 active torsions:
REMARK  status: ('A' for Active; 'I' for Inactive)
REMARK    1  A    between atoms: C_1  and  C_2
REMARK    2  A    between atoms: C_2  and  O_3
REMARK    3  A    between atoms: O_3  and  C_4
REMARK    4  A    between atoms: C_4  and  C_6
REMARK    5  A    between atoms: C_6  and  N_7
REMARK    6  A    between atoms: C_9  and  C_10
REMARK    7  A    between atoms: N_11  and  N_12
REMARK                            x       y       z     vdW  Elec       q    Type
REMARK                         _______ _______ _______ _____ _____    ______ ____
ROOT
ATOM      1  N   UNL     1       3.561   4.172  17.702  0.00  0.00    +0.000 N 
ATOM      2  C   UNL     1       2.633   5.138  18.010  0.00  0.00    +0.000 A 
ATOM      3  C   UNL     1       3.224   6.386  17.892  0.00  0.00    +0.000 A 
ATOM      4  C   UNL     1       4.600   6.140  17.548  0.00  0.00    +0.000 A 
ATOM      5  C   UNL     1       5.716   6.975  17.322  0.00  0.00    +0.000 A 
ATOM      6  C   UNL     1       6.951   6.419  16.967  0.00  0.00    +0.000 A 
ATOM      7  C   UNL     1       7.092   5.043  16.825  0.00  0.00    +0.000 A 
ATOM      8  C   UNL     1       6.009   4.188  17.044  0.00  0.00    +0.000 A 
ATOM      9  C   UNL     1       4.776   4.757  17.409  0.00  0.00    +0.000 A 
ENDROOT
BRANCH   3  10
ATOM     10  C   UNL     1       2.566   7.687  18.061  0.00  0.00    +0.000 C 
ATOM     11  N   UNL     1       2.072   8.011  19.215  0.00  0.00    +0.000 NA
BRANCH  11  12
ATOM     12  N   UNL     1       1.362   9.195  19.365  0.00  0.00    +0.000 N 
ATOM     13  C   UNL     1       1.357  10.285  18.508  0.00  0.00    +0.000 C 
ATOM     14  O   UNL     1       2.136  10.530  17.598  0.00  0.00    +0.000 OA
ATOM     15  C   UNL     1       0.189  11.194  18.897  0.00  0.00    +0.000 C 
ATOM     16  C   UNL     1       0.616  12.635  19.254  0.00  0.00    +0.000 C 
ATOM     17  C   UNL     1      -0.487  13.434  19.937  0.00  0.00    +0.000 C 
ATOM     18  C   UNL     1      -0.666  12.908  21.161  0.00  0.00    +0.000 C 
ATOM     19  C   UNL     1       0.239  11.705  21.260  0.00  0.00    +0.000 C 
ATOM     20  C   UNL     1       1.427  12.362  20.531  0.00  0.00    +0.000 C 
ATOM     21  C   UNL     1      -0.263  10.634  20.259  0.00  0.00    +0.000 C 
ATOM     22  C   UNL     1       0.427   9.299  20.376  0.00  0.00    +0.000 C 
ATOM     23  O   UNL     1       0.176   8.501  21.263  0.00  0.00    +0.000 OA
ENDBRANCH  11  12
ENDBRANCH   3  10
BRANCH   1  24
ATOM     24  C   UNL     1       3.305   2.735  17.732  0.00  0.00    +0.000 C 
BRANCH  24  25
ATOM     25  C   UNL     1       2.114   2.357  18.579  0.00  0.00    +0.000 C 
ATOM     26  O   UNL     1       0.956   2.258  18.205  0.00  0.00    +0.000 OA
BRANCH  25  27
ATOM     27  O   UNL     1       2.527   2.207  19.876  0.00  0.00    +0.000 OA
BRANCH  27  29
ATOM     28  C   UNL     1       2.152   3.958  21.456  0.00  0.00    +0.000 C 
ATOM     29  C   UNL     1       1.602   2.669  20.873  0.00  0.00    +0.000 C 
ENDBRANCH  27  29
ENDBRANCH  25  27
ENDBRANCH  24  25
ENDBRANCH   1  24
TORSDOF 6
ENDMDL
