MODEL 1
REMARK VINA RESULT:      -8.1      0.000      0.000
REMARK  Name = 
REMARK  5 active torsions:
REMARK  status: ('A' for Active; 'I' for Inactive)
REMARK    1  A    between atoms: C_1  and  C_2
REMARK    2  A    between atoms: C_2  and  O_4
REMARK    3  A    between atoms: O_4  and  C_5
REMARK    4  A    between atoms: C_7  and  C_8
REMARK    5  A    between atoms: C_9  and  C_10
REMARK                            x       y       z     vdW  Elec       q    Type
REMARK                         _______ _______ _______ _____ _____    ______ ____
ROOT
ATOM      1  C   UNL     1       2.895   4.558  19.719  0.00  0.00    +0.000 A 
ATOM      2  C   UNL     1       2.207   5.502  20.474  0.00  0.00    +0.000 A 
ATOM      3  C   UNL     1       2.177   6.806  20.023  0.00  0.00    +0.000 A 
ATOM      4  N   UNL     1       2.835   7.207  18.914  0.00  0.00    +0.000 NA
ATOM      5  C   UNL     1       3.527   6.298  18.203  0.00  0.00    +0.000 A 
ATOM      6  C   UNL     1       4.224   6.732  17.084  0.00  0.00    +0.000 A 
ATOM      7  C   UNL     1       4.968   5.858  16.290  0.00  0.00    +0.000 A 
ATOM      8  C   UNL     1       5.023   4.508  16.622  0.00  0.00    +0.000 A 
ATOM      9  C   UNL     1       4.342   4.046  17.749  0.00  0.00    +0.000 A 
ATOM     10  C   UNL     1       3.590   4.934  18.555  0.00  0.00    +0.000 A 
ENDROOT
BRANCH   3  11
ATOM     11  C   UNL     1       1.441   7.812  20.797  0.00  0.00    +0.000 C 
ATOM     12  C   UNL     1       1.039   8.991  20.301  0.00  0.00    +0.000 C 
BRANCH  12  13
ATOM     13  C   UNL     1       0.340   9.971  21.136  0.00  0.00    +0.000 A 
ATOM     14  C   UNL     1      -0.283   9.487  22.297  0.00  0.00    +0.000 A 
ATOM     15  C   UNL     1      -0.960  10.351  23.159  0.00  0.00    +0.000 A 
ATOM     16  C   UNL     1      -1.023  11.712  22.868  0.00  0.00    +0.000 A 
ATOM     17  C   UNL     1      -0.420  12.208  21.711  0.00  0.00    +0.000 A 
ATOM     18  C   UNL     1       0.255  11.342  20.842  0.00  0.00    +0.000 A 
ATOM     19  I   UNL     1       1.114  12.188  19.122  0.00  0.00    +0.000 I 
ENDBRANCH  12  13
ENDBRANCH   3  11
BRANCH   1  20
ATOM     20  O   UNL     1       3.016   3.241  20.216  0.00  0.00    +0.000 OA
BRANCH  20  22
ATOM     21  C   UNL     1       0.976   2.259  19.543  0.00  0.00    +0.000 C 
ATOM     22  C   UNL     1       1.853   2.641  20.696  0.00  0.00    +0.000 C 
ATOM     23  O   UNL     1       1.578   2.425  21.868  0.00  0.00    +0.000 OA
ENDBRANCH  20  22
ENDBRANCH   1  20
TORSDOF 4
ENDMDL
MODEL 2
REMARK VINA RESULT:      -8.0      1.026      1.128
REMARK  Name = 
REMARK  5 active torsions:
REMARK  status: ('A' for Active; 'I' for Inactive)
REMARK    1  A    between atoms: C_1  and  C_2
REMARK    2  A    between atoms: C_2  and  O_4
REMARK    3  A    between atoms: O_4  and  C_5
REMARK    4  A    between atoms: C_7  and  C_8
REMARK    5  A    between atoms: C_9  and  C_10
REMARK                            x       y       z     vdW  Elec       q    Type
REMARK                         _______ _______ _______ _____ _____    ______ ____
ROOT
ATOM      1  C   UNL     1       2.866   4.479  18.894  0.00  0.00    +0.000 A 
ATOM      2  C   UNL     1       2.256   5.387  19.752  0.00  0.00    +0.000 A 
ATOM      3  C   UNL     1       2.423   6.734  19.508  0.00  0.00    +0.000 A 
ATOM      4  N   UNL     1       3.201   7.201  18.507  0.00  0.00    +0.000 NA
ATOM      5  C   UNL     1       3.818   6.320  17.699  0.00  0.00    +0.000 A 
ATOM      6  C   UNL     1       4.639   6.815  16.695  0.00  0.00    +0.000 A 
ATOM      7  C   UNL     1       5.318   5.974  15.811  0.00  0.00    +0.000 A 
ATOM      8  C   UNL     1       5.178   4.595  15.932  0.00  0.00    +0.000 A 
ATOM      9  C   UNL     1       4.367   4.069  16.940  0.00  0.00    +0.000 A 
ATOM     10  C   UNL     1       3.682   4.924  17.837  0.00  0.00    +0.000 A 
ENDROOT
BRANCH   3  11
ATOM     11  C   UNL     1       1.771   7.706  20.393  0.00  0.00    +0.000 C 
ATOM     12  C   UNL     1       1.016   8.725  19.957  0.00  0.00    +0.000 C 
BRANCH  12  13
ATOM     13  C   UNL     1       0.421   9.687  20.890  0.00  0.00    +0.000 A 
ATOM     14  C   UNL     1      -0.175   9.162  22.047  0.00  0.00    +0.000 A 
ATOM     15  C   UNL     1      -0.754  10.005  22.997  0.00  0.00    +0.000 A 
ATOM     16  C   UNL     1      -0.745  11.383  22.800  0.00  0.00    +0.000 A 
ATOM     17  C   UNL     1      -0.167  11.920  21.648  0.00  0.00    +0.000 A 
ATOM     18  C   UNL     1       0.410  11.077  20.690  0.00  0.00    +0.000 A 
ATOM     19  I   UNL     1       1.238  11.986  18.988  0.00  0.00    +0.000 I 
ENDBRANCH  12  13
ENDBRANCH   3  11
BRANCH   1  20
ATOM     20  O   UNL     1       2.784   3.099  19.185  0.00  0.00    +0.000 OA
BRANCH  20  22
ATOM     21  C   UNL     1       2.649   2.553  21.479  0.00  0.00    +0.000 C 
ATOM     22  C   UNL     1       3.529   2.641  20.271  0.00  0.00    +0.000 C 
ATOM     23  O   UNL     1       4.712   2.329  20.260  0.00  0.00    +0.000 OA
ENDBRANCH  20  22
ENDBRANCH   1  20
TORSDOF 4
ENDMDL
MODEL 3
REMARK VINA RESULT:      -7.9      3.869      8.153
REMARK  Name = 
REMARK  5 active torsions:
REMARK  status: ('A' for Active; 'I' for Inactive)
REMARK    1  A    between atoms: C_1  and  C_2
REMARK    2  A    between atoms: C_2  and  O_4
REMARK    3  A    between atoms: O_4  and  C_5
REMARK    4  A    between atoms: C_7  and  C_8
REMARK    5  A    between atoms: C_9  and  C_10
REMARK                            x       y       z     vdW  Elec       q    Type
REMARK                         _______ _______ _______ _____ _____    ______ ____
ROOT
ATOM      1  C   UNL     1       0.026  10.491  19.045  0.00  0.00    +0.000 A 
ATOM      2  C   UNL     1       0.888   9.733  18.260  0.00  0.00    +0.000 A 
ATOM      3  C   UNL     1       1.613   8.728  18.866  0.00  0.00    +0.000 A 
ATOM      4  N   UNL     1       1.559   8.492  20.195  0.00  0.00    +0.000 NA
ATOM      5  C   UNL     1       0.749   9.249  20.958  0.00  0.00    +0.000 A 
ATOM      6  C   UNL     1       0.729   9.016  22.326  0.00  0.00    +0.000 A 
ATOM      7  C   UNL     1      -0.081   9.754  23.191  0.00  0.00    +0.000 A 
ATOM      8  C   UNL     1      -0.895  10.758  22.679  0.00  0.00    +0.000 A 
ATOM      9  C   UNL     1      -0.887  11.022  21.308  0.00  0.00    +0.000 A 
ATOM     10  C   UNL     1      -0.062  10.276  20.433  0.00  0.00    +0.000 A 
ENDROOT
BRANCH   3  11
ATOM     11  C   UNL     1       2.514   7.907  18.050  0.00  0.00    +0.000 C 
ATOM     12  C   UNL     1       2.829   6.634  18.334  0.00  0.00    +0.000 C 
BRANCH  12  13
ATOM     13  C   UNL     1       3.766   5.876  17.500  0.00  0.00    +0.000 A 
ATOM     14  C   UNL     1       4.775   6.609  16.854  0.00  0.00    +0.000 A 
ATOM     15  C   UNL     1       5.720   5.968  16.051  0.00  0.00    +0.000 A 
ATOM     16  C   UNL     1       5.666   4.586  15.884  0.00  0.00    +0.000 A 
ATOM     17  C   UNL     1       4.662   3.845  16.509  0.00  0.00    +0.000 A 
ATOM     18  C   UNL     1       3.710   4.486  17.311  0.00  0.00    +0.000 A 
ATOM     19  I   UNL     1       2.234   3.281  18.194  0.00  0.00    +0.000 I 
ENDBRANCH  12  13
ENDBRANCH   3  11
BRANCH   1  20
ATOM     20  O   UNL     1      -0.650  11.585  18.459  0.00  0.00    +0.000 OA
BRANCH  20  22
ATOM     21  C   UNL     1      -2.094  10.415  17.001  0.00  0.00    +0.000 C 
ATOM     22  C   UNL     1      -1.992  11.392  18.132  0.00  0.00    +0.000 C 
ATOM     23  O   UNL     1      -2.955  11.907  18.682  0.00  0.00    +0.000 OA
ENDBRANCH  20  22
ENDBRANCH   1  20
TORSDOF 4
ENDMDL
MODEL 4
REMARK VINA RESULT:      -7.8      1.491      1.772
REMARK  Name = 
REMARK  5 active torsions:
REMARK  status: ('A' for Active; 'I' for Inactive)
REMARK    1  A    between atoms: C_1  and  C_2
REMARK    2  A    between atoms: C_2  and  O_4
REMARK    3  A    between atoms: O_4  and  C_5
REMARK    4  A    between atoms: C_7  and  C_8
REMARK    5  A    between atoms: C_9  and  C_10
REMARK                            x       y       z     vdW  Elec       q    Type
REMARK                         _______ _______ _______ _____ _____    ______ ____
ROOT
ATOM      1  C   UNL     1       2.859   4.564  17.514  0.00  0.00    +0.000 A 
ATOM      2  C   UNL     1       2.177   5.344  18.442  0.00  0.00    +0.000 A 
ATOM      3  C   UNL     1       2.777   6.502  18.892  0.00  0.00    +0.000 A 
ATOM      4  N   UNL     1       4.017   6.873  18.511  0.00  0.00    +0.000 NA
ATOM      5  C   UNL     1       4.689   6.100  17.638  0.00  0.00    +0.000 A 
ATOM      6  C   UNL     1       5.976   6.479  17.281  0.00  0.00    +0.000 A 
ATOM      7  C   UNL     1       6.744   5.736  16.383  0.00  0.00    +0.000 A 
ATOM      8  C   UNL     1       6.216   4.576  15.824  0.00  0.00    +0.000 A 
ATOM      9  C   UNL     1       4.929   4.165  16.175  0.00  0.00    +0.000 A 
ATOM     10  C   UNL     1       4.153   4.918  17.088  0.00  0.00    +0.000 A 
ENDROOT
BRANCH   3  11
ATOM     11  C   UNL     1       2.063   7.345  19.858  0.00  0.00    +0.000 C 
ATOM     12  C   UNL     1       1.456   8.498  19.539  0.00  0.00    +0.000 C 
BRANCH  12  13
ATOM     13  C   UNL     1       0.792   9.317  20.556  0.00  0.00    +0.000 A 
ATOM     14  C   UNL     1       0.250   8.640  21.661  0.00  0.00    +0.000 A 
ATOM     15  C   UNL     1      -0.389   9.341  22.685  0.00  0.00    +0.000 A 
ATOM     16  C   UNL     1      -0.494  10.728  22.616  0.00  0.00    +0.000 A 
ATOM     17  C   UNL     1       0.028  11.415  21.519  0.00  0.00    +0.000 A 
ATOM     18  C   UNL     1       0.665  10.714  20.487  0.00  0.00    +0.000 A 
ATOM     19  I   UNL     1       1.402  11.841  18.876  0.00  0.00    +0.000 I 
ENDBRANCH  12  13
ENDBRANCH   3  11
BRANCH   1  20
ATOM     20  O   UNL     1       2.302   3.328  17.116  0.00  0.00    +0.000 OA
BRANCH  20  22
ATOM     21  C   UNL     1       1.018   2.162  18.719  0.00  0.00    +0.000 C 
ATOM     22  C   UNL     1       2.350   2.290  18.045  0.00  0.00    +0.000 C 
ATOM     23  O   UNL     1       3.307   1.565  18.276  0.00  0.00    +0.000 OA
ENDBRANCH  20  22
ENDBRANCH   1  20
TORSDOF 4
ENDMDL
MODEL 5
REMARK VINA RESULT:      -7.7      3.868      8.416
REMARK  Name = 
REMARK  5 active torsions:
REMARK  status: ('A' for Active; 'I' for Inactive)
REMARK    1  A    between atoms: C_1  and  C_2
REMARK    2  A    between atoms: C_2  and  O_4
REMARK    3  A    between atoms: O_4  and  C_5
REMARK    4  A    between atoms: C_7  and  C_8
REMARK    5  A    between atoms: C_9  and  C_10
REMARK                            x       y       z     vdW  Elec       q    Type
REMARK                         _______ _______ _______ _____ _____    ______ ____
ROOT
ATOM      1  C   UNL     1       0.480  11.025  19.119  0.00  0.00    +0.000 A 
ATOM      2  C   UNL     1       1.228  10.162  18.325  0.00  0.00    +0.000 A 
ATOM      3  C   UNL     1       1.603   8.944  18.854  0.00  0.00    +0.000 A 
ATOM      4  N   UNL     1       1.321   8.586  20.125  0.00  0.00    +0.000 NA
ATOM      5  C   UNL     1       0.626   9.436  20.902  0.00  0.00    +0.000 A 
ATOM      6  C   UNL     1       0.372   9.067  22.216  0.00  0.00    +0.000 A 
ATOM      7  C   UNL     1      -0.340   9.888  23.092  0.00  0.00    +0.000 A 
ATOM      8  C   UNL     1      -0.814  11.118  22.646  0.00  0.00    +0.000 A 
ATOM      9  C   UNL     1      -0.564  11.520  21.333  0.00  0.00    +0.000 A 
ATOM     10  C   UNL     1       0.162  10.688  20.448  0.00  0.00    +0.000 A 
ENDROOT
BRANCH   3  11
ATOM     11  C   UNL     1       2.377   8.015  18.024  0.00  0.00    +0.000 C 
ATOM     12  C   UNL     1       3.011   6.934  18.503  0.00  0.00    +0.000 C 
BRANCH  12  13
ATOM     13  C   UNL     1       3.801   6.063  17.629  0.00  0.00    +0.000 A 
ATOM     14  C   UNL     1       4.866   6.659  16.935  0.00  0.00    +0.000 A 
ATOM     15  C   UNL     1       5.681   5.903  16.091  0.00  0.00    +0.000 A 
ATOM     16  C   UNL     1       5.439   4.541  15.930  0.00  0.00    +0.000 A 
ATOM     17  C   UNL     1       4.377   3.936  16.603  0.00  0.00    +0.000 A 
ATOM     18  C   UNL     1       3.554   4.693  17.446  0.00  0.00    +0.000 A 
ATOM     19  I   UNL     1       1.975   3.689  18.400  0.00  0.00    +0.000 I 
ENDBRANCH  12  13
ENDBRANCH   3  11
BRANCH   1  20
ATOM     20  O   UNL     1       0.170  12.313  18.628  0.00  0.00    +0.000 OA
BRANCH  20  22
ATOM     21  C   UNL     1       0.763  14.454  19.429  0.00  0.00    +0.000 C 
ATOM     22  C   UNL     1       1.198  13.255  18.644  0.00  0.00    +0.000 C 
ATOM     23  O   UNL     1       2.300  13.136  18.128  0.00  0.00    +0.000 OA
ENDBRANCH  20  22
ENDBRANCH   1  20
TORSDOF 4
ENDMDL
MODEL 6
REMARK VINA RESULT:      -7.7      2.581      4.145
REMARK  Name = 
REMARK  5 active torsions:
REMARK  status: ('A' for Active; 'I' for Inactive)
REMARK    1  A    between atoms: C_1  and  C_2
REMARK    2  A    between atoms: C_2  and  O_4
REMARK    3  A    between atoms: O_4  and  C_5
REMARK    4  A    between atoms: C_7  and  C_8
REMARK    5  A    between atoms: C_9  and  C_10
REMARK                            x       y       z     vdW  Elec       q    Type
REMARK                         _______ _______ _______ _____ _____    ______ ____
ROOT
ATOM      1  C   UNL     1       4.473   5.406  17.191  0.00  0.00    +0.000 A 
ATOM      2  C   UNL     1       4.061   6.720  17.386  0.00  0.00    +0.000 A 
ATOM      3  C   UNL     1       2.853   6.942  18.016  0.00  0.00    +0.000 A 
ATOM      4  N   UNL     1       2.036   5.936  18.396  0.00  0.00    +0.000 NA
ATOM      5  C   UNL     1       2.422   4.666  18.177  0.00  0.00    +0.000 A 
ATOM      6  C   UNL     1       1.556   3.645  18.544  0.00  0.00    +0.000 A 
ATOM      7  C   UNL     1       1.875   2.299  18.353  0.00  0.00    +0.000 A 
ATOM      8  C   UNL     1       3.094   1.959  17.774  0.00  0.00    +0.000 A 
ATOM      9  C   UNL     1       3.979   2.965  17.385  0.00  0.00    +0.000 A 
ATOM     10  C   UNL     1       3.652   4.330  17.576  0.00  0.00    +0.000 A 
ENDROOT
BRANCH   3  11
ATOM     11  C   UNL     1       2.412   8.322  18.245  0.00  0.00    +0.000 C 
ATOM     12  C   UNL     1       1.725   8.718  19.327  0.00  0.00    +0.000 C 
BRANCH  12  13
ATOM     13  C   UNL     1       1.278  10.105  19.481  0.00  0.00    +0.000 A 
ATOM     14  C   UNL     1       1.601  10.994  18.445  0.00  0.00    +0.000 A 
ATOM     15  C   UNL     1       1.204  12.332  18.501  0.00  0.00    +0.000 A 
ATOM     16  C   UNL     1       0.479  12.795  19.596  0.00  0.00    +0.000 A 
ATOM     17  C   UNL     1       0.160  11.926  20.641  0.00  0.00    +0.000 A 
ATOM     18  C   UNL     1       0.562  10.585  20.590  0.00  0.00    +0.000 A 
ATOM     19  I   UNL     1       0.043   9.367  22.220  0.00  0.00    +0.000 I 
ENDBRANCH  12  13
ENDBRANCH   3  11
BRANCH   1  20
ATOM     20  O   UNL     1       5.658   5.160  16.463  0.00  0.00    +0.000 OA
BRANCH  20  22
ATOM     21  C   UNL     1       7.201   4.955  18.240  0.00  0.00    +0.000 C 
ATOM     22  C   UNL     1       6.837   5.690  16.986  0.00  0.00    +0.000 C 
ATOM     23  O   UNL     1       7.504   6.595  16.504  0.00  0.00    +0.000 OA
ENDBRANCH  20  22
ENDBRANCH   1  20
TORSDOF 4
ENDMDL
MODEL 7
REMARK VINA RESULT:      -7.7      3.270      4.349
REMARK  Name = 
REMARK  5 active torsions:
REMARK  status: ('A' for Active; 'I' for Inactive)
REMARK    1  A    between atoms: C_1  and  C_2
REMARK    2  A    between atoms: C_2  and  O_4
REMARK    3  A    between atoms: O_4  and  C_5
REMARK    4  A    between atoms: C_7  and  C_8
REMARK    5  A    between atoms: C_9  and  C_10
REMARK                            x       y       z     vdW  Elec       q    Type
REMARK                         _______ _______ _______ _____ _____    ______ ____
ROOT
ATOM      1  C   UNL     1       4.558   6.152  17.160  0.00  0.00    +0.000 A 
ATOM      2  C   UNL     1       4.113   7.452  17.374  0.00  0.00    +0.000 A 
ATOM      3  C   UNL     1       2.868   7.633  17.941  0.00  0.00    +0.000 A 
ATOM      4  N   UNL     1       2.049   6.603  18.242  0.00  0.00    +0.000 NA
ATOM      5  C   UNL     1       2.469   5.347  18.003  0.00  0.00    +0.000 A 
ATOM      6  C   UNL     1       1.602   4.300  18.288  0.00  0.00    +0.000 A 
ATOM      7  C   UNL     1       1.955   2.967  18.070  0.00  0.00    +0.000 A 
ATOM      8  C   UNL     1       3.210   2.666  17.551  0.00  0.00    +0.000 A 
ATOM      9  C   UNL     1       4.097   3.699  17.245  0.00  0.00    +0.000 A 
ATOM     10  C   UNL     1       3.736   5.050  17.462  0.00  0.00    +0.000 A 
ENDROOT
BRANCH   3  11
ATOM     11  C   UNL     1       2.391   8.998  18.191  0.00  0.00    +0.000 C 
ATOM     12  C   UNL     1       1.105   9.368  18.101  0.00  0.00    +0.000 C 
BRANCH  12  13
ATOM     13  C   UNL     1       0.693  10.757  18.325  0.00  0.00    +0.000 A 
ATOM     14  C   UNL     1       1.687  11.652  18.752  0.00  0.00    +0.000 A 
ATOM     15  C   UNL     1       1.389  12.997  18.976  0.00  0.00    +0.000 A 
ATOM     16  C   UNL     1       0.092  13.462  18.778  0.00  0.00    +0.000 A 
ATOM     17  C   UNL     1      -0.911  12.583  18.366  0.00  0.00    +0.000 A 
ATOM     18  C   UNL     1      -0.616  11.232  18.145  0.00  0.00    +0.000 A 
ATOM     19  I   UNL     1      -2.200   9.991  17.542  0.00  0.00    +0.000 I 
ENDBRANCH  12  13
ENDBRANCH   3  11
BRANCH   1  20
ATOM     20  O   UNL     1       5.786   5.950  16.492  0.00  0.00    +0.000 OA
BRANCH  20  22
ATOM     21  C   UNL     1       7.364   5.446  18.176  0.00  0.00    +0.000 C 
ATOM     22  C   UNL     1       6.932   6.425  17.127  0.00  0.00    +0.000 C 
ATOM     23  O   UNL     1       7.527   7.463  16.872  0.00  0.00    +0.000 OA
ENDBRANCH  20  22
ENDBRANCH   1  20
TORSDOF 4
ENDMDL
MODEL 8
REMARK VINA RESULT:      -7.6      3.994      8.241
REMARK  Name = 
REMARK  5 active torsions:
REMARK  status: ('A' for Active; 'I' for Inactive)
REMARK    1  A    between atoms: C_1  and  C_2
REMARK    2  A    between atoms: C_2  and  O_4
REMARK    3  A    between atoms: O_4  and  C_5
REMARK    4  A    between atoms: C_7  and  C_8
REMARK    5  A    between atoms: C_9  and  C_10
REMARK                            x       y       z     vdW  Elec       q    Type
REMARK                         _______ _______ _______ _____ _____    ______ ____
ROOT
ATOM      1  C   UNL     1      -0.708  10.752  18.598  0.00  0.00    +0.000 A 
ATOM      2  C   UNL     1       0.189   9.938  17.916  0.00  0.00    +0.000 A 
ATOM      3  C   UNL     1       1.042   9.141  18.652  0.00  0.00    +0.000 A 
ATOM      4  N   UNL     1       1.076   9.166  20.001  0.00  0.00    +0.000 NA
ATOM      5  C   UNL     1       0.231   9.979  20.659  0.00  0.00    +0.000 A 
ATOM      6  C   UNL     1       0.301  10.017  22.045  0.00  0.00    +0.000 A 
ATOM      7  C   UNL     1      -0.538  10.833  22.807  0.00  0.00    +0.000 A 
ATOM      8  C   UNL     1      -1.476  11.639  22.169  0.00  0.00    +0.000 A 
ATOM      9  C   UNL     1      -1.561  11.629  20.776  0.00  0.00    +0.000 A 
ATOM     10  C   UNL     1      -0.706  10.805  20.005  0.00  0.00    +0.000 A 
ENDROOT
BRANCH   3  11
ATOM     11  C   UNL     1       1.982   8.262  17.947  0.00  0.00    +0.000 C 
ATOM     12  C   UNL     1       2.521   7.159  18.486  0.00  0.00    +0.000 C 
BRANCH  12  13
ATOM     13  C   UNL     1       3.486   6.341  17.745  0.00  0.00    +0.000 A 
ATOM     14  C   UNL     1       4.581   7.011  17.178  0.00  0.00    +0.000 A 
ATOM     15  C   UNL     1       5.557   6.310  16.467  0.00  0.00    +0.000 A 
ATOM     16  C   UNL     1       5.447   4.930  16.313  0.00  0.00    +0.000 A 
ATOM     17  C   UNL     1       4.357   4.251  16.860  0.00  0.00    +0.000 A 
ATOM     18  C   UNL     1       3.374   4.952  17.569  0.00  0.00    +0.000 A 
ATOM     19  I   UNL     1       1.769   3.837  18.338  0.00  0.00    +0.000 I 
ENDBRANCH  12  13
ENDBRANCH   3  11
BRANCH   1  20
ATOM     20  O   UNL     1      -1.520  11.644  17.863  0.00  0.00    +0.000 OA
BRANCH  20  22
ATOM     21  C   UNL     1      -3.583  10.495  17.806  0.00  0.00    +0.000 C 
ATOM     22  C   UNL     1      -2.459  11.075  17.004  0.00  0.00    +0.000 C 
ATOM     23  O   UNL     1      -2.410  11.059  15.782  0.00  0.00    +0.000 OA
ENDBRANCH  20  22
ENDBRANCH   1  20
TORSDOF 4
ENDMDL
MODEL 9
REMARK VINA RESULT:      -7.6      2.028      3.294
REMARK  Name = 
REMARK  5 active torsions:
REMARK  status: ('A' for Active; 'I' for Inactive)
REMARK    1  A    between atoms: C_1  and  C_2
REMARK    2  A    between atoms: C_2  and  O_4
REMARK    3  A    between atoms: O_4  and  C_5
REMARK    4  A    between atoms: C_7  and  C_8
REMARK    5  A    between atoms: C_9  and  C_10
REMARK                            x       y       z     vdW  Elec       q    Type
REMARK                         _______ _______ _______ _____ _____    ______ ____
ROOT
ATOM      1  C   UNL     1       4.054   5.341  18.737  0.00  0.00    +0.000 A 
ATOM      2  C   UNL     1       3.533   6.523  19.250  0.00  0.00    +0.000 A 
ATOM      3  C   UNL     1       2.336   6.470  19.933  0.00  0.00    +0.000 A 
ATOM      4  N   UNL     1       1.628   5.328  20.071  0.00  0.00    +0.000 NA
ATOM      5  C   UNL     1       2.118   4.191  19.545  0.00  0.00    +0.000 A 
ATOM      6  C   UNL     1       1.363   3.032  19.667  0.00  0.00    +0.000 A 
ATOM      7  C   UNL     1       1.794   1.809  19.150  0.00  0.00    +0.000 A 
ATOM      8  C   UNL     1       3.016   1.737  18.488  0.00  0.00    +0.000 A 
ATOM      9  C   UNL     1       3.791   2.889  18.341  0.00  0.00    +0.000 A 
ATOM     10  C   UNL     1       3.350   4.129  18.862  0.00  0.00    +0.000 A 
ENDROOT
BRANCH   3  11
ATOM     11  C   UNL     1       1.781   7.705  20.497  0.00  0.00    +0.000 C 
ATOM     12  C   UNL     1       0.495   7.855  20.849  0.00  0.00    +0.000 C 
BRANCH  12  13
ATOM     13  C   UNL     1      -0.009   9.128  21.371  0.00  0.00    +0.000 A 
ATOM     14  C   UNL     1      -0.280   9.186  22.748  0.00  0.00    +0.000 A 
ATOM     15  C   UNL     1      -0.750  10.362  23.335  0.00  0.00    +0.000 A 
ATOM     16  C   UNL     1      -0.957  11.494  22.551  0.00  0.00    +0.000 A 
ATOM     17  C   UNL     1      -0.705  11.449  21.179  0.00  0.00    +0.000 A 
ATOM     18  C   UNL     1      -0.238  10.269  20.586  0.00  0.00    +0.000 A 
ATOM     19  I   UNL     1       0.094  10.305  18.513  0.00  0.00    +0.000 I 
ENDBRANCH  12  13
ENDBRANCH   3  11
BRANCH   1  20
ATOM     20  O   UNL     1       5.229   5.392  17.953  0.00  0.00    +0.000 OA
BRANCH  20  22
ATOM     21  C   UNL     1       7.450   4.668  17.606  0.00  0.00    +0.000 C 
ATOM     22  C   UNL     1       6.432   5.123  18.605  0.00  0.00    +0.000 C 
ATOM     23  O   UNL     1       6.655   5.252  19.801  0.00  0.00    +0.000 OA
ENDBRANCH  20  22
ENDBRANCH   1  20
TORSDOF 4
ENDMDL
