MODEL 1
REMARK VINA RESULT:      -7.9      0.000      0.000
REMARK  Name = 
REMARK  5 active torsions:
REMARK  status: ('A' for Active; 'I' for Inactive)
REMARK    1  A    between atoms: N_3  and  O_4
REMARK    2  A    between atoms: O_4  and  C_5
REMARK    3  A    between atoms: C_5  and  C_6
REMARK    4  A    between atoms: N_15  and  C_16
REMARK    5  A    between atoms: C_16  and  C_17
REMARK                            x       y       z     vdW  Elec       q    Type
REMARK                         _______ _______ _______ _____ _____    ______ ____
ROOT
ATOM      1  O   UNL     1       8.013   6.447  16.046  0.00  0.00    +0.000 OA
ATOM      2  C   UNL     1       7.273   6.568  17.021  0.00  0.00    +0.000 C 
ATOM      3  N   UNL     1       7.349   7.631  17.897  0.00  0.00    +0.000 N 
ATOM      4  N   UNL     1       6.241   5.680  17.286  0.00  0.00    +0.000 N 
ATOM      5  C   UNL     1       5.281   5.792  18.390  0.00  0.00    +0.000 C 
ATOM      6  C   UNL     1       3.835   5.488  17.937  0.00  0.00    +0.000 C 
ATOM      7  N   UNL     1       3.678   4.229  17.174  0.00  0.00    +0.000 NA
ATOM      8  C   UNL     1       4.621   4.272  16.031  0.00  0.00    +0.000 C 
ATOM      9  C   UNL     1       6.091   4.504  16.424  0.00  0.00    +0.000 C 
ATOM     10  H   UNL     1       7.323   7.381  18.876  0.00  0.00    +0.000 HD
ENDROOT
BRANCH   3  11
ATOM     11  O   UNL     1       8.410   8.531  17.610  0.00  0.00    +0.000 OA
BRANCH  11  12
ATOM     12  C   UNL     1       8.004   9.841  18.024  0.00  0.00    +0.000 C 
BRANCH  12  13
ATOM     13  C   UNL     1       9.193  10.553  18.607  0.00  0.00    +0.000 A 
ATOM     14  C   UNL     1      10.214  11.017  17.763  0.00  0.00    +0.000 A 
ATOM     15  C   UNL     1      11.321  11.680  18.292  0.00  0.00    +0.000 A 
ATOM     16  C   UNL     1      11.414  11.891  19.666  0.00  0.00    +0.000 A 
ATOM     17  C   UNL     1      10.402  11.441  20.512  0.00  0.00    +0.000 A 
ATOM     18  C   UNL     1       9.294  10.775  19.986  0.00  0.00    +0.000 A 
ENDBRANCH  12  13
ENDBRANCH  11  12
ENDBRANCH   3  11
BRANCH   7  19
ATOM     19  C   UNL     1       3.886   3.070  18.060  0.00  0.00    +0.000 C 
BRANCH  19  20
ATOM     20  C   UNL     1       2.947   2.998  19.239  0.00  0.00    +0.000 A 
ATOM     21  C   UNL     1       1.566   3.135  19.057  0.00  0.00    +0.000 A 
ATOM     22  C   UNL     1       0.733   3.019  20.157  0.00  0.00    +0.000 A 
ATOM     23  N   UNL     1       1.174   2.776  21.407  0.00  0.00    +0.000 NA
ATOM     24  C   UNL     1       2.511   2.654  21.564  0.00  0.00    +0.000 A 
ATOM     25  C   UNL     1       3.425   2.758  20.529  0.00  0.00    +0.000 A 
ENDBRANCH  19  20
ENDBRANCH   7  19
TORSDOF 5
ENDMDL
MODEL 2
REMARK VINA RESULT:      -7.8      0.713      1.191
REMARK  Name = 
REMARK  5 active torsions:
REMARK  status: ('A' for Active; 'I' for Inactive)
REMARK    1  A    between atoms: N_3  and  O_4
REMARK    2  A    between atoms: O_4  and  C_5
REMARK    3  A    between atoms: C_5  and  C_6
REMARK    4  A    between atoms: N_15  and  C_16
REMARK    5  A    between atoms: C_16  and  C_17
REMARK                            x       y       z     vdW  Elec       q    Type
REMARK                         _______ _______ _______ _____ _____    ______ ____
ROOT
ATOM      1  O   UNL     1       7.916   6.619  16.214  0.00  0.00    +0.000 OA
ATOM      2  C   UNL     1       7.041   6.711  17.073  0.00  0.00    +0.000 C 
ATOM      3  N   UNL     1       6.864   7.835  17.852  0.00  0.00    +0.000 N 
ATOM      4  N   UNL     1       6.101   5.713  17.285  0.00  0.00    +0.000 N 
ATOM      5  C   UNL     1       4.992   5.775  18.244  0.00  0.00    +0.000 C 
ATOM      6  C   UNL     1       3.671   5.247  17.642  0.00  0.00    +0.000 C 
ATOM      7  N   UNL     1       3.777   3.925  16.982  0.00  0.00    +0.000 NA
ATOM      8  C   UNL     1       4.855   4.011  15.968  0.00  0.00    +0.000 C 
ATOM      9  C   UNL     1       6.217   4.467  16.521  0.00  0.00    +0.000 C 
ATOM     10  H   UNL     1       6.735   7.656  18.839  0.00  0.00    +0.000 HD
ENDROOT
BRANCH   3  11
ATOM     11  O   UNL     1       7.834   8.846  17.621  0.00  0.00    +0.000 OA
BRANCH  11  12
ATOM     12  C   UNL     1       8.749   8.844  18.725  0.00  0.00    +0.000 C 
BRANCH  12  13
ATOM     13  C   UNL     1       9.176  10.259  19.001  0.00  0.00    +0.000 A 
ATOM     14  C   UNL     1       9.325  11.164  17.938  0.00  0.00    +0.000 A 
ATOM     15  C   UNL     1       9.718  12.480  18.182  0.00  0.00    +0.000 A 
ATOM     16  C   UNL     1       9.959  12.903  19.487  0.00  0.00    +0.000 A 
ATOM     17  C   UNL     1       9.808  12.014  20.549  0.00  0.00    +0.000 A 
ATOM     18  C   UNL     1       9.416  10.696  20.308  0.00  0.00    +0.000 A 
ENDBRANCH  12  13
ENDBRANCH  11  12
ENDBRANCH   3  11
BRANCH   7  19
ATOM     19  C   UNL     1       4.004   2.873  17.989  0.00  0.00    +0.000 C 
BRANCH  19  20
ATOM     20  C   UNL     1       2.988   2.834  19.104  0.00  0.00    +0.000 A 
ATOM     21  C   UNL     1       3.400   2.803  20.441  0.00  0.00    +0.000 A 
ATOM     22  C   UNL     1       2.438   2.813  21.436  0.00  0.00    +0.000 A 
ATOM     23  N   UNL     1       1.113   2.856  21.195  0.00  0.00    +0.000 NA
ATOM     24  C   UNL     1       0.734   2.879  19.898  0.00  0.00    +0.000 A 
ATOM     25  C   UNL     1       1.618   2.866  18.832  0.00  0.00    +0.000 A 
ENDBRANCH  19  20
ENDBRANCH   7  19
TORSDOF 5
ENDMDL
MODEL 3
REMARK VINA RESULT:      -7.7      0.655      1.164
REMARK  Name = 
REMARK  5 active torsions:
REMARK  status: ('A' for Active; 'I' for Inactive)
REMARK    1  A    between atoms: N_3  and  O_4
REMARK    2  A    between atoms: O_4  and  C_5
REMARK    3  A    between atoms: C_5  and  C_6
REMARK    4  A    between atoms: N_15  and  C_16
REMARK    5  A    between atoms: C_16  and  C_17
REMARK                            x       y       z     vdW  Elec       q    Type
REMARK                         _______ _______ _______ _____ _____    ______ ____
ROOT
ATOM      1  O   UNL     1       7.959   6.724  16.285  0.00  0.00    +0.000 OA
ATOM      2  C   UNL     1       7.059   6.815  17.118  0.00  0.00    +0.000 C 
ATOM      3  N   UNL     1       6.849   7.945  17.880  0.00  0.00    +0.000 N 
ATOM      4  N   UNL     1       6.123   5.810  17.313  0.00  0.00    +0.000 N 
ATOM      5  C   UNL     1       4.987   5.871  18.239  0.00  0.00    +0.000 C 
ATOM      6  C   UNL     1       3.688   5.323  17.606  0.00  0.00    +0.000 C 
ATOM      7  N   UNL     1       3.826   3.996  16.962  0.00  0.00    +0.000 NA
ATOM      8  C   UNL     1       4.931   4.083  15.978  0.00  0.00    +0.000 C 
ATOM      9  C   UNL     1       6.272   4.558  16.565  0.00  0.00    +0.000 C 
ATOM     10  H   UNL     1       6.694   7.774  18.864  0.00  0.00    +0.000 HD
ENDROOT
BRANCH   3  11
ATOM     11  O   UNL     1       7.816   8.963  17.667  0.00  0.00    +0.000 OA
BRANCH  11  12
ATOM     12  C   UNL     1       8.739   8.935  18.763  0.00  0.00    +0.000 C 
BRANCH  12  13
ATOM     13  C   UNL     1       9.254  10.329  18.995  0.00  0.00    +0.000 A 
ATOM     14  C   UNL     1       9.405  10.810  20.305  0.00  0.00    +0.000 A 
ATOM     15  C   UNL     1       9.884  12.099  20.533  0.00  0.00    +0.000 A 
ATOM     16  C   UNL     1      10.222  12.916  19.456  0.00  0.00    +0.000 A 
ATOM     17  C   UNL     1      10.082  12.446  18.152  0.00  0.00    +0.000 A 
ATOM     18  C   UNL     1       9.601  11.157  17.920  0.00  0.00    +0.000 A 
ENDBRANCH  12  13
ENDBRANCH  11  12
ENDBRANCH   3  11
BRANCH   7  19
ATOM     19  C   UNL     1       4.034   2.956  17.985  0.00  0.00    +0.000 C 
BRANCH  19  20
ATOM     20  C   UNL     1       3.007   2.942  19.091  0.00  0.00    +0.000 A 
ATOM     21  C   UNL     1       1.641   2.916  18.792  0.00  0.00    +0.000 A 
ATOM     22  C   UNL     1       0.730   2.859  19.834  0.00  0.00    +0.000 A 
ATOM     23  N   UNL     1       1.083   2.823  21.134  0.00  0.00    +0.000 NA
ATOM     24  C   UNL     1       2.407   2.856  21.403  0.00  0.00    +0.000 A 
ATOM     25  C   UNL     1       3.394   2.918  20.433  0.00  0.00    +0.000 A 
ENDBRANCH  19  20
ENDBRANCH   7  19
TORSDOF 5
ENDMDL
MODEL 4
REMARK VINA RESULT:      -7.5      1.201      1.841
REMARK  Name = 
REMARK  5 active torsions:
REMARK  status: ('A' for Active; 'I' for Inactive)
REMARK    1  A    between atoms: N_3  and  O_4
REMARK    2  A    between atoms: O_4  and  C_5
REMARK    3  A    between atoms: C_5  and  C_6
REMARK    4  A    between atoms: N_15  and  C_16
REMARK    5  A    between atoms: C_16  and  C_17
REMARK                            x       y       z     vdW  Elec       q    Type
REMARK                         _______ _______ _______ _____ _____    ______ ____
ROOT
ATOM      1  O   UNL     1       8.089   6.919  19.071  0.00  0.00    +0.000 OA
ATOM      2  C   UNL     1       7.350   7.195  18.128  0.00  0.00    +0.000 C 
ATOM      3  N   UNL     1       7.624   8.199  17.224  0.00  0.00    +0.000 N 
ATOM      4  N   UNL     1       6.204   6.467  17.844  0.00  0.00    +0.000 N 
ATOM      5  C   UNL     1       5.308   6.694  16.705  0.00  0.00    +0.000 C 
ATOM      6  C   UNL     1       4.882   5.373  16.025  0.00  0.00    +0.000 C 
ATOM      7  N   UNL     1       4.369   4.338  16.953  0.00  0.00    +0.000 NA
ATOM      8  C   UNL     1       5.396   4.119  17.999  0.00  0.00    +0.000 C 
ATOM      9  C   UNL     1       5.813   5.390  18.760  0.00  0.00    +0.000 C 
ATOM     10  H   UNL     1       6.846   8.808  17.011  0.00  0.00    +0.000 HD
ENDROOT
BRANCH   3  11
ATOM     11  O   UNL     1       8.802   8.933  17.528  0.00  0.00    +0.000 OA
BRANCH  11  12
ATOM     12  C   UNL     1       8.413  10.131  18.212  0.00  0.00    +0.000 C 
BRANCH  12  13
ATOM     13  C   UNL     1       9.652  10.852  18.665  0.00  0.00    +0.000 A 
ATOM     14  C   UNL     1       9.833  11.145  20.026  0.00  0.00    +0.000 A 
ATOM     15  C   UNL     1      10.980  11.810  20.458  0.00  0.00    +0.000 A 
ATOM     16  C   UNL     1      11.957  12.183  19.537  0.00  0.00    +0.000 A 
ATOM     17  C   UNL     1      11.790  11.891  18.185  0.00  0.00    +0.000 A 
ATOM     18  C   UNL     1      10.643  11.226  17.749  0.00  0.00    +0.000 A 
ENDBRANCH  12  13
ENDBRANCH  11  12
ENDBRANCH   3  11
BRANCH   7  19
ATOM     19  C   UNL     1       3.061   4.746  17.494  0.00  0.00    +0.000 C 
BRANCH  19  20
ATOM     20  C   UNL     1       2.556   3.898  18.635  0.00  0.00    +0.000 A 
ATOM     21  C   UNL     1       2.401   4.445  19.914  0.00  0.00    +0.000 A 
ATOM     22  C   UNL     1       1.894   3.647  20.925  0.00  0.00    +0.000 A 
ATOM     23  N   UNL     1       1.530   2.361  20.751  0.00  0.00    +0.000 NA
ATOM     24  C   UNL     1       1.692   1.848  19.511  0.00  0.00    +0.000 A 
ATOM     25  C   UNL     1       2.196   2.563  18.437  0.00  0.00    +0.000 A 
ENDBRANCH  19  20
ENDBRANCH   7  19
TORSDOF 5
ENDMDL
MODEL 5
REMARK VINA RESULT:      -7.3      7.274      9.911
REMARK  Name = 
REMARK  5 active torsions:
REMARK  status: ('A' for Active; 'I' for Inactive)
REMARK    1  A    between atoms: N_3  and  O_4
REMARK    2  A    between atoms: O_4  and  C_5
REMARK    3  A    between atoms: C_5  and  C_6
REMARK    4  A    between atoms: N_15  and  C_16
REMARK    5  A    between atoms: C_16  and  C_17
REMARK                            x       y       z     vdW  Elec       q    Type
REMARK                         _______ _______ _______ _____ _____    ______ ____
ROOT
ATOM      1  O   UNL     1       2.202   9.555  17.457  0.00  0.00    +0.000 OA
ATOM      2  C   UNL     1       1.783   9.052  18.498  0.00  0.00    +0.000 C 
ATOM      3  N   UNL     1       2.050   7.751  18.868  0.00  0.00    +0.000 N 
ATOM      4  N   UNL     1       1.060   9.777  19.435  0.00  0.00    +0.000 N 
ATOM      5  C   UNL     1       0.582   9.266  20.724  0.00  0.00    +0.000 C 
ATOM      6  C   UNL     1       0.809  10.276  21.872  0.00  0.00    +0.000 C 
ATOM      7  N   UNL     1       0.329  11.649  21.591  0.00  0.00    +0.000 NA
ATOM      8  C   UNL     1       0.954  12.097  20.324  0.00  0.00    +0.000 C 
ATOM      9  C   UNL     1       0.705  11.165  19.125  0.00  0.00    +0.000 C 
ATOM     10  H   UNL     1       1.252   7.228  19.200  0.00  0.00    +0.000 HD
ENDROOT
BRANCH   3  11
ATOM     11  O   UNL     1       2.792   7.025  17.898  0.00  0.00    +0.000 OA
BRANCH  11  12
ATOM     12  C   UNL     1       3.537   6.007  18.580  0.00  0.00    +0.000 C 
BRANCH  12  13
ATOM     13  C   UNL     1       2.591   4.915  18.996  0.00  0.00    +0.000 A 
ATOM     14  C   UNL     1       2.263   4.753  20.352  0.00  0.00    +0.000 A 
ATOM     15  C   UNL     1       1.385   3.746  20.750  0.00  0.00    +0.000 A 
ATOM     16  C   UNL     1       0.824   2.896  19.799  0.00  0.00    +0.000 A 
ATOM     17  C   UNL     1       1.138   3.052  18.450  0.00  0.00    +0.000 A 
ATOM     18  C   UNL     1       2.018   4.059  18.049  0.00  0.00    +0.000 A 
ENDBRANCH  12  13
ENDBRANCH  11  12
ENDBRANCH   3  11
BRANCH   7  19
ATOM     19  C   UNL     1      -1.144  11.673  21.557  0.00  0.00    +0.000 C 
BRANCH  19  20
ATOM     20  C   UNL     1      -1.788  12.534  22.616  0.00  0.00    +0.000 A 
ATOM     21  C   UNL     1      -1.114  13.645  23.135  0.00  0.00    +0.000 A 
ATOM     22  C   UNL     1      -1.754  14.436  24.074  0.00  0.00    +0.000 A 
ATOM     23  N   UNL     1      -3.004  14.203  24.521  0.00  0.00    +0.000 NA
ATOM     24  C   UNL     1      -3.637  13.122  24.012  0.00  0.00    +0.000 A 
ATOM     25  C   UNL     1      -3.080  12.268  23.075  0.00  0.00    +0.000 A 
ENDBRANCH  19  20
ENDBRANCH   7  19
TORSDOF 5
ENDMDL
MODEL 6
REMARK VINA RESULT:      -7.1      1.434      2.051
REMARK  Name = 
REMARK  5 active torsions:
REMARK  status: ('A' for Active; 'I' for Inactive)
REMARK    1  A    between atoms: N_3  and  O_4
REMARK    2  A    between atoms: O_4  and  C_5
REMARK    3  A    between atoms: C_5  and  C_6
REMARK    4  A    between atoms: N_15  and  C_16
REMARK    5  A    between atoms: C_16  and  C_17
REMARK                            x       y       z     vdW  Elec       q    Type
REMARK                         _______ _______ _______ _____ _____    ______ ____
ROOT
ATOM      1  O   UNL     1       8.330   6.931  18.994  0.00  0.00    +0.000 OA
ATOM      2  C   UNL     1       7.525   7.291  18.136  0.00  0.00    +0.000 C 
ATOM      3  N   UNL     1       7.756   8.350  17.283  0.00  0.00    +0.000 N 
ATOM      4  N   UNL     1       6.339   6.612  17.899  0.00  0.00    +0.000 N 
ATOM      5  C   UNL     1       5.361   6.941  16.856  0.00  0.00    +0.000 C 
ATOM      6  C   UNL     1       4.843   5.683  16.124  0.00  0.00    +0.000 C 
ATOM      7  N   UNL     1       4.377   4.597  17.018  0.00  0.00    +0.000 NA
ATOM      8  C   UNL     1       5.478   4.279  17.958  0.00  0.00    +0.000 C 
ATOM      9  C   UNL     1       5.992   5.484  18.768  0.00  0.00    +0.000 C 
ATOM     10  H   UNL     1       6.981   8.991  17.178  0.00  0.00    +0.000 HD
ENDROOT
BRANCH   3  11
ATOM     11  O   UNL     1       8.975   9.032  17.539  0.00  0.00    +0.000 OA
BRANCH  11  12
ATOM     12  C   UNL     1       8.721  10.038  18.528  0.00  0.00    +0.000 C 
BRANCH  12  13
ATOM     13  C   UNL     1       9.433  11.300  18.126  0.00  0.00    +0.000 A 
ATOM     14  C   UNL     1       8.736  12.518  18.098  0.00  0.00    +0.000 A 
ATOM     15  C   UNL     1       9.386  13.695  17.729  0.00  0.00    +0.000 A 
ATOM     16  C   UNL     1      10.738  13.667  17.391  0.00  0.00    +0.000 A 
ATOM     17  C   UNL     1      11.441  12.464  17.422  0.00  0.00    +0.000 A 
ATOM     18  C   UNL     1      10.792  11.284  17.789  0.00  0.00    +0.000 A 
ENDBRANCH  12  13
ENDBRANCH  11  12
ENDBRANCH   3  11
BRANCH   7  19
ATOM     19  C   UNL     1       3.129   4.997  17.692  0.00  0.00    +0.000 C 
BRANCH  19  20
ATOM     20  C   UNL     1       2.648   4.038  18.753  0.00  0.00    +0.000 A 
ATOM     21  C   UNL     1       2.651   4.411  20.102  0.00  0.00    +0.000 A 
ATOM     22  C   UNL     1       2.161   3.520  21.042  0.00  0.00    +0.000 A 
ATOM     23  N   UNL     1       1.671   2.303  20.735  0.00  0.00    +0.000 NA
ATOM     24  C   UNL     1       1.683   1.958  19.428  0.00  0.00    +0.000 A 
ATOM     25  C   UNL     1       2.156   2.775  18.415  0.00  0.00    +0.000 A 
ENDBRANCH  19  20
ENDBRANCH   7  19
TORSDOF 5
ENDMDL
MODEL 7
REMARK VINA RESULT:      -7.1      5.575      8.410
REMARK  Name = 
REMARK  5 active torsions:
REMARK  status: ('A' for Active; 'I' for Inactive)
REMARK    1  A    between atoms: N_3  and  O_4
REMARK    2  A    between atoms: O_4  and  C_5
REMARK    3  A    between atoms: C_5  and  C_6
REMARK    4  A    between atoms: N_15  and  C_16
REMARK    5  A    between atoms: C_16  and  C_17
REMARK                            x       y       z     vdW  Elec       q    Type
REMARK                         _______ _______ _______ _____ _____    ______ ____
ROOT
ATOM      1  O   UNL     1       1.846   9.585  17.365  0.00  0.00    +0.000 OA
ATOM      2  C   UNL     1       1.684   9.061  18.466  0.00  0.00    +0.000 C 
ATOM      3  N   UNL     1       0.828   9.567  19.422  0.00  0.00    +0.000 N 
ATOM      4  N   UNL     1       2.295   7.867  18.818  0.00  0.00    +0.000 N 
ATOM      5  C   UNL     1       2.103   7.151  20.084  0.00  0.00    +0.000 C 
ATOM      6  C   UNL     1       1.938   5.629  19.874  0.00  0.00    +0.000 C 
ATOM      7  N   UNL     1       2.977   5.007  19.021  0.00  0.00    +0.000 NA
ATOM      8  C   UNL     1       3.011   5.745  17.736  0.00  0.00    +0.000 C 
ATOM      9  C   UNL     1       3.242   7.260  17.877  0.00  0.00    +0.000 C 
ATOM     10  H   UNL     1       1.210   9.612  20.357  0.00  0.00    +0.000 HD
ENDROOT
BRANCH   3  11
ATOM     11  O   UNL     1       0.210  10.789  19.044  0.00  0.00    +0.000 OA
BRANCH  11  12
ATOM     12  C   UNL     1      -1.150  10.756  19.495  0.00  0.00    +0.000 C 
BRANCH  12  13
ATOM     13  C   UNL     1      -2.056  10.740  18.296  0.00  0.00    +0.000 A 
ATOM     14  C   UNL     1      -3.206  11.544  18.277  0.00  0.00    +0.000 A 
ATOM     15  C   UNL     1      -4.053  11.539  17.169  0.00  0.00    +0.000 A 
ATOM     16  C   UNL     1      -3.755  10.737  16.069  0.00  0.00    +0.000 A 
ATOM     17  C   UNL     1      -2.612   9.940  16.075  0.00  0.00    +0.000 A 
ATOM     18  C   UNL     1      -1.764   9.941  17.183  0.00  0.00    +0.000 A 
ENDBRANCH  12  13
ENDBRANCH  11  12
ENDBRANCH   3  11
BRANCH   7  19
ATOM     19  C   UNL     1       4.272   4.998  19.726  0.00  0.00    +0.000 C 
BRANCH  19  20
ATOM     20  C   UNL     1       5.480   4.901  18.827  0.00  0.00    +0.000 A 
ATOM     21  C   UNL     1       5.417   4.187  17.625  0.00  0.00    +0.000 A 
ATOM     22  C   UNL     1       6.533   4.157  16.807  0.00  0.00    +0.000 A 
ATOM     23  N   UNL     1       7.690   4.785  17.096  0.00  0.00    +0.000 NA
ATOM     24  C   UNL     1       7.734   5.465  18.264  0.00  0.00    +0.000 A 
ATOM     25  C   UNL     1       6.674   5.549  19.152  0.00  0.00    +0.000 A 
ENDBRANCH  19  20
ENDBRANCH   7  19
TORSDOF 5
ENDMDL
MODEL 8
REMARK VINA RESULT:      -7.1      5.605      8.437
REMARK  Name = 
REMARK  5 active torsions:
REMARK  status: ('A' for Active; 'I' for Inactive)
REMARK    1  A    between atoms: N_3  and  O_4
REMARK    2  A    between atoms: O_4  and  C_5
REMARK    3  A    between atoms: C_5  and  C_6
REMARK    4  A    between atoms: N_15  and  C_16
REMARK    5  A    between atoms: C_16  and  C_17
REMARK                            x       y       z     vdW  Elec       q    Type
REMARK                         _______ _______ _______ _____ _____    ______ ____
ROOT
ATOM      1  O   UNL     1       1.794   9.654  17.410  0.00  0.00    +0.000 OA
ATOM      2  C   UNL     1       1.640   9.116  18.505  0.00  0.00    +0.000 C 
ATOM      3  N   UNL     1       0.785   9.605  19.470  0.00  0.00    +0.000 N 
ATOM      4  N   UNL     1       2.261   7.922  18.841  0.00  0.00    +0.000 N 
ATOM      5  C   UNL     1       2.079   7.190  20.099  0.00  0.00    +0.000 C 
ATOM      6  C   UNL     1       1.923   5.670  19.872  0.00  0.00    +0.000 C 
ATOM      7  N   UNL     1       2.963   5.064  19.008  0.00  0.00    +0.000 NA
ATOM      8  C   UNL     1       2.986   5.818  17.731  0.00  0.00    +0.000 C 
ATOM      9  C   UNL     1       3.208   7.333  17.889  0.00  0.00    +0.000 C 
ATOM     10  H   UNL     1       1.171   9.642  20.404  0.00  0.00    +0.000 HD
ENDROOT
BRANCH   3  11
ATOM     11  O   UNL     1       0.157  10.827  19.110  0.00  0.00    +0.000 OA
BRANCH  11  12
ATOM     12  C   UNL     1      -1.209  10.767  19.540  0.00  0.00    +0.000 C 
BRANCH  12  13
ATOM     13  C   UNL     1      -2.096  10.766  18.326  0.00  0.00    +0.000 A 
ATOM     14  C   UNL     1      -1.757   9.983  17.212  0.00  0.00    +0.000 A 
ATOM     15  C   UNL     1      -2.574   9.971  16.082  0.00  0.00    +0.000 A 
ATOM     16  C   UNL     1      -3.738  10.736  16.057  0.00  0.00    +0.000 A 
ATOM     17  C   UNL     1      -4.087  11.513  17.161  0.00  0.00    +0.000 A 
ATOM     18  C   UNL     1      -3.271  11.527  18.293  0.00  0.00    +0.000 A 
ENDBRANCH  12  13
ENDBRANCH  11  12
ENDBRANCH   3  11
BRANCH   7  19
ATOM     19  C   UNL     1       4.260   5.056  19.706  0.00  0.00    +0.000 C 
BRANCH  19  20
ATOM     20  C   UNL     1       5.464   4.949  18.803  0.00  0.00    +0.000 A 
ATOM     21  C   UNL     1       6.689   5.511  19.181  0.00  0.00    +0.000 A 
ATOM     22  C   UNL     1       7.782   5.354  18.346  0.00  0.00    +0.000 A 
ATOM     23  N   UNL     1       7.741   4.681  17.179  0.00  0.00    +0.000 NA
ATOM     24  C   UNL     1       6.548   4.150  16.827  0.00  0.00    +0.000 A 
ATOM     25  C   UNL     1       5.397   4.258  17.591  0.00  0.00    +0.000 A 
ENDBRANCH  19  20
ENDBRANCH   7  19
TORSDOF 5
ENDMDL
MODEL 9
REMARK VINA RESULT:      -7.0      6.978      8.743
REMARK  Name = 
REMARK  5 active torsions:
REMARK  status: ('A' for Active; 'I' for Inactive)
REMARK    1  A    between atoms: N_3  and  O_4
REMARK    2  A    between atoms: O_4  and  C_5
REMARK    3  A    between atoms: C_5  and  C_6
REMARK    4  A    between atoms: N_15  and  C_16
REMARK    5  A    between atoms: C_16  and  C_17
REMARK                            x       y       z     vdW  Elec       q    Type
REMARK                         _______ _______ _______ _____ _____    ______ ____
ROOT
ATOM      1  O   UNL     1       2.279   8.894  17.478  0.00  0.00    +0.000 OA
ATOM      2  C   UNL     1       1.932   8.465  18.577  0.00  0.00    +0.000 C 
ATOM      3  N   UNL     1       2.256   7.204  19.031  0.00  0.00    +0.000 N 
ATOM      4  N   UNL     1       1.243   9.244  19.495  0.00  0.00    +0.000 N 
ATOM      5  C   UNL     1       0.851   8.826  20.846  0.00  0.00    +0.000 C 
ATOM      6  C   UNL     1       1.112   9.928  21.896  0.00  0.00    +0.000 C 
ATOM      7  N   UNL     1       0.579  11.263  21.538  0.00  0.00    +0.000 NA
ATOM      8  C   UNL     1       1.121  11.625  20.207  0.00  0.00    +0.000 C 
ATOM      9  C   UNL     1       0.832  10.595  19.099  0.00  0.00    +0.000 C 
ATOM     10  H   UNL     1       1.492   6.690  19.448  0.00  0.00    +0.000 HD
ENDROOT
BRANCH   3  11
ATOM     11  O   UNL     1       2.963   6.421  18.079  0.00  0.00    +0.000 OA
BRANCH  11  12
ATOM     12  C   UNL     1       4.063   5.794  18.751  0.00  0.00    +0.000 C 
BRANCH  12  13
ATOM     13  C   UNL     1       5.110   5.438  17.732  0.00  0.00    +0.000 A 
ATOM     14  C   UNL     1       6.340   4.904  18.149  0.00  0.00    +0.000 A 
ATOM     15  C   UNL     1       7.317   4.568  17.213  0.00  0.00    +0.000 A 
ATOM     16  C   UNL     1       7.073   4.756  15.854  0.00  0.00    +0.000 A 
ATOM     17  C   UNL     1       5.853   5.279  15.429  0.00  0.00    +0.000 A 
ATOM     18  C   UNL     1       4.874   5.618  16.363  0.00  0.00    +0.000 A 
ENDBRANCH  12  13
ENDBRANCH  11  12
ENDBRANCH   3  11
BRANCH   7  19
ATOM     19  C   UNL     1      -0.894  11.250  21.587  0.00  0.00    +0.000 C 
BRANCH  19  20
ATOM     20  C   UNL     1      -1.504  12.242  22.546  0.00  0.00    +0.000 A 
ATOM     21  C   UNL     1      -0.832  13.427  22.866  0.00  0.00    +0.000 A 
ATOM     22  C   UNL     1      -1.445  14.333  23.715  0.00  0.00    +0.000 A 
ATOM     23  N   UNL     1      -2.664  14.144  24.256  0.00  0.00    +0.000 NA
ATOM     24  C   UNL     1      -3.295  12.991  23.941  0.00  0.00    +0.000 A 
ATOM     25  C   UNL     1      -2.764  12.022  23.106  0.00  0.00    +0.000 A 
ENDBRANCH  19  20
ENDBRANCH   7  19
TORSDOF 5
ENDMDL
