MODEL 1
REMARK VINA RESULT:      -7.9      0.000      0.000
REMARK  Name = 
REMARK  6 active torsions:
REMARK  status: ('A' for Active; 'I' for Inactive)
REMARK    1  A    between atoms: C_2  and  C_11
REMARK    2  A    between atoms: N_3  and  C_4
REMARK    3  A    between atoms: C_4  and  C_5
REMARK    4  A    between atoms: N_13  and  C_14
REMARK    5  A    between atoms: C_22  and  C_23
REMARK    6  A    between atoms: C_23  and  O_24
REMARK                            x       y       z     vdW  Elec       q    Type
REMARK                         _______ _______ _______ _____ _____    ______ ____
ROOT
ATOM      1  C   UNL     1       6.544   6.320  18.118  0.00  0.00    +0.000 A 
ATOM      2  N   UNL     1       5.254   6.022  17.856  0.00  0.00    +0.000 NA
ATOM      3  N   UNL     1       4.961   5.108  18.836  0.00  0.00    +0.000 N 
ATOM      4  N   UNL     1       5.963   4.833  19.713  0.00  0.00    +0.000 NA
ATOM      5  C   UNL     1       6.983   5.551  19.224  0.00  0.00    +0.000 A 
ENDROOT
BRANCH   3   6
ATOM      6  C   UNL     1       3.694   4.471  18.954  0.00  0.00    +0.000 A 
ATOM      7  C   UNL     1       2.968   4.532  20.153  0.00  0.00    +0.000 A 
ATOM      8  C   UNL     1       1.713   3.914  20.237  0.00  0.00    +0.000 A 
ATOM      9  C   UNL     1       1.198   3.228  19.135  0.00  0.00    +0.000 A 
ATOM     10  F   UNL     1       0.000   2.638  19.233  0.00  0.00    +0.000 F 
ATOM     11  C   UNL     1       1.910   3.157  17.947  0.00  0.00    +0.000 A 
ATOM     12  C   UNL     1       3.156   3.782  17.849  0.00  0.00    +0.000 A 
ENDBRANCH   3   6
BRANCH   1  14
ATOM     13  O   UNL     1       7.841   7.029  16.287  0.00  0.00    +0.000 OA
ATOM     14  C   UNL     1       7.357   7.297  17.384  0.00  0.00    +0.000 C 
ATOM     15  N   UNL     1       7.557   8.519  17.991  0.00  0.00    +0.000 N 
ATOM     16  H   UNL     1       7.276   8.614  18.962  0.00  0.00    +0.000 HD
BRANCH  15  17
ATOM     17  C   UNL     1       8.466   9.474  17.390  0.00  0.00    +0.000 C 
BRANCH  17  18
ATOM     18  C   UNL     1       8.921  10.541  18.339  0.00  0.00    +0.000 A 
ATOM     19  C   UNL     1       9.334  10.235  19.639  0.00  0.00    +0.000 A 
ATOM     20  C   UNL     1       9.693  11.260  20.511  0.00  0.00    +0.000 A 
ATOM     21  C   UNL     1       9.622  12.565  20.054  0.00  0.00    +0.000 A 
ATOM     22  N   UNL     1       9.213  12.902  18.813  0.00  0.00    +0.000 NA
ATOM     23  C   UNL     1       8.865  11.886  17.990  0.00  0.00    +0.000 A 
ENDBRANCH  17  18
ENDBRANCH  15  17
ENDBRANCH   1  14
BRANCH   5  24
ATOM     24  C   UNL     1       8.338   5.498  19.851  0.00  0.00    +0.000 C 
BRANCH  24  25
ATOM     25  O   UNL     1       8.281   5.137  21.233  0.00  0.00    +0.000 OA
ATOM     26  H   UNL     1       9.127   4.684  21.412  0.00  0.00    +0.000 HD
ENDBRANCH  24  25
ENDBRANCH   5  24
TORSDOF 6
ENDMDL
MODEL 2
REMARK VINA RESULT:      -7.9      3.430      8.478
REMARK  Name = 
REMARK  6 active torsions:
REMARK  status: ('A' for Active; 'I' for Inactive)
REMARK    1  A    between atoms: C_2  and  C_11
REMARK    2  A    between atoms: N_3  and  C_4
REMARK    3  A    between atoms: C_4  and  C_5
REMARK    4  A    between atoms: N_13  and  C_14
REMARK    5  A    between atoms: C_22  and  C_23
REMARK    6  A    between atoms: C_23  and  O_24
REMARK                            x       y       z     vdW  Elec       q    Type
REMARK                         _______ _______ _______ _____ _____    ______ ____
ROOT
ATOM      1  C   UNL     1       7.147   6.895  17.442  0.00  0.00    +0.000 A 
ATOM      2  N   UNL     1       7.350   8.205  17.188  0.00  0.00    +0.000 NA
ATOM      3  N   UNL     1       8.193   8.573  18.204  0.00  0.00    +0.000 N 
ATOM      4  N   UNL     1       8.559   7.583  19.062  0.00  0.00    +0.000 NA
ATOM      5  C   UNL     1       7.850   6.536  18.618  0.00  0.00    +0.000 A 
ENDROOT
BRANCH   3   6
ATOM      6  C   UNL     1       8.673   9.901  18.377  0.00  0.00    +0.000 A 
ATOM      7  C   UNL     1       8.256  10.933  17.524  0.00  0.00    +0.000 A 
ATOM      8  C   UNL     1       8.728  12.236  17.728  0.00  0.00    +0.000 A 
ATOM      9  C   UNL     1       9.620  12.501  18.769  0.00  0.00    +0.000 A 
ATOM     10  F   UNL     1      10.065  13.750  18.948  0.00  0.00    +0.000 F 
ATOM     11  C   UNL     1      10.044  11.486  19.615  0.00  0.00    +0.000 A 
ATOM     12  C   UNL     1       9.569  10.186  19.427  0.00  0.00    +0.000 A 
ENDBRANCH   3   6
BRANCH   1  14
ATOM     13  O   UNL     1       6.588   5.809  15.430  0.00  0.00    +0.000 OA
ATOM     14  C   UNL     1       6.339   5.985  16.621  0.00  0.00    +0.000 C 
ATOM     15  N   UNL     1       5.287   5.352  17.248  0.00  0.00    +0.000 N 
ATOM     16  H   UNL     1       5.035   5.668  18.178  0.00  0.00    +0.000 HD
BRANCH  15  17
ATOM     17  C   UNL     1       4.365   4.555  16.464  0.00  0.00    +0.000 C 
BRANCH  17  18
ATOM     18  C   UNL     1       3.422   3.743  17.300  0.00  0.00    +0.000 A 
ATOM     19  C   UNL     1       2.153   4.219  17.642  0.00  0.00    +0.000 A 
ATOM     20  C   UNL     1       1.328   3.461  18.470  0.00  0.00    +0.000 A 
ATOM     21  C   UNL     1       1.805   2.247  18.935  0.00  0.00    +0.000 A 
ATOM     22  N   UNL     1       3.028   1.760  18.641  0.00  0.00    +0.000 NA
ATOM     23  C   UNL     1       3.810   2.521  17.841  0.00  0.00    +0.000 A 
ENDBRANCH  17  18
ENDBRANCH  15  17
ENDBRANCH   1  14
BRANCH   5  24
ATOM     24  C   UNL     1       7.893   5.219  19.320  0.00  0.00    +0.000 C 
BRANCH  24  25
ATOM     25  O   UNL     1       8.180   5.357  20.714  0.00  0.00    +0.000 OA
ATOM     26  H   UNL     1       9.117   5.100  20.807  0.00  0.00    +0.000 HD
ENDBRANCH  24  25
ENDBRANCH   5  24
TORSDOF 6
ENDMDL
MODEL 3
REMARK VINA RESULT:      -7.8      0.580      1.389
REMARK  Name = 
REMARK  6 active torsions:
REMARK  status: ('A' for Active; 'I' for Inactive)
REMARK    1  A    between atoms: C_2  and  C_11
REMARK    2  A    between atoms: N_3  and  C_4
REMARK    3  A    between atoms: C_4  and  C_5
REMARK    4  A    between atoms: N_13  and  C_14
REMARK    5  A    between atoms: C_22  and  C_23
REMARK    6  A    between atoms: C_23  and  O_24
REMARK                            x       y       z     vdW  Elec       q    Type
REMARK                         _______ _______ _______ _____ _____    ______ ____
ROOT
ATOM      1  C   UNL     1       6.545   6.302  18.119  0.00  0.00    +0.000 A 
ATOM      2  N   UNL     1       5.251   6.013  17.862  0.00  0.00    +0.000 NA
ATOM      3  N   UNL     1       4.959   5.090  18.833  0.00  0.00    +0.000 N 
ATOM      4  N   UNL     1       5.965   4.799  19.700  0.00  0.00    +0.000 NA
ATOM      5  C   UNL     1       6.986   5.518  19.213  0.00  0.00    +0.000 A 
ENDROOT
BRANCH   3   6
ATOM      6  C   UNL     1       3.690   4.458  18.951  0.00  0.00    +0.000 A 
ATOM      7  C   UNL     1       3.242   3.556  17.975  0.00  0.00    +0.000 A 
ATOM      8  C   UNL     1       1.998   2.931  18.126  0.00  0.00    +0.000 A 
ATOM      9  C   UNL     1       1.203   3.218  19.238  0.00  0.00    +0.000 A 
ATOM     10  F   UNL     1       0.013   2.616  19.365  0.00  0.00    +0.000 F 
ATOM     11  C   UNL     1       1.633   4.113  20.206  0.00  0.00    +0.000 A 
ATOM     12  C   UNL     1       2.879   4.731  20.071  0.00  0.00    +0.000 A 
ENDBRANCH   3   6
BRANCH   1  14
ATOM     13  O   UNL     1       7.845   7.021  16.294  0.00  0.00    +0.000 OA
ATOM     14  C   UNL     1       7.358   7.284  17.391  0.00  0.00    +0.000 C 
ATOM     15  N   UNL     1       7.555   8.503  18.004  0.00  0.00    +0.000 N 
ATOM     16  H   UNL     1       7.271   8.593  18.974  0.00  0.00    +0.000 HD
BRANCH  15  17
ATOM     17  C   UNL     1       8.464   9.461  17.409  0.00  0.00    +0.000 C 
BRANCH  17  18
ATOM     18  C   UNL     1       8.871  10.557  18.348  0.00  0.00    +0.000 A 
ATOM     19  C   UNL     1       8.919  11.893  17.937  0.00  0.00    +0.000 A 
ATOM     20  C   UNL     1       9.360  12.874  18.821  0.00  0.00    +0.000 A 
ATOM     21  C   UNL     1       9.746  12.485  20.092  0.00  0.00    +0.000 A 
ATOM     22  N   UNL     1       9.731  11.206  20.522  0.00  0.00    +0.000 NA
ATOM     23  C   UNL     1       9.304  10.273  19.639  0.00  0.00    +0.000 A 
ENDBRANCH  17  18
ENDBRANCH  15  17
ENDBRANCH   1  14
BRANCH   5  24
ATOM     24  C   UNL     1       8.344   5.450  19.830  0.00  0.00    +0.000 C 
BRANCH  24  25
ATOM     25  O   UNL     1       8.292   5.120  21.221  0.00  0.00    +0.000 OA
ATOM     26  H   UNL     1       8.795   5.826  21.668  0.00  0.00    +0.000 HD
ENDBRANCH  24  25
ENDBRANCH   5  24
TORSDOF 6
ENDMDL
MODEL 4
REMARK VINA RESULT:      -7.8      0.617      1.005
REMARK  Name = 
REMARK  6 active torsions:
REMARK  status: ('A' for Active; 'I' for Inactive)
REMARK    1  A    between atoms: C_2  and  C_11
REMARK    2  A    between atoms: N_3  and  C_4
REMARK    3  A    between atoms: C_4  and  C_5
REMARK    4  A    between atoms: N_13  and  C_14
REMARK    5  A    between atoms: C_22  and  C_23
REMARK    6  A    between atoms: C_23  and  O_24
REMARK                            x       y       z     vdW  Elec       q    Type
REMARK                         _______ _______ _______ _____ _____    ______ ____
ROOT
ATOM      1  C   UNL     1       6.594   6.250  18.063  0.00  0.00    +0.000 A 
ATOM      2  N   UNL     1       5.330   5.900  17.744  0.00  0.00    +0.000 NA
ATOM      3  N   UNL     1       5.023   4.991  18.723  0.00  0.00    +0.000 N 
ATOM      4  N   UNL     1       5.990   4.765  19.651  0.00  0.00    +0.000 NA
ATOM      5  C   UNL     1       7.006   5.513  19.201  0.00  0.00    +0.000 A 
ENDROOT
BRANCH   3   6
ATOM      6  C   UNL     1       3.776   4.308  18.790  0.00  0.00    +0.000 A 
ATOM      7  C   UNL     1       2.888   4.536  19.851  0.00  0.00    +0.000 A 
ATOM      8  C   UNL     1       1.658   3.867  19.883  0.00  0.00    +0.000 A 
ATOM      9  C   UNL     1       1.326   2.967  18.869  0.00  0.00    +0.000 A 
ATOM     10  F   UNL     1       0.149   2.331  18.917  0.00  0.00    +0.000 F 
ATOM     11  C   UNL     1       2.199   2.729  17.817  0.00  0.00    +0.000 A 
ATOM     12  C   UNL     1       3.423   3.402  17.770  0.00  0.00    +0.000 A 
ENDBRANCH   3   6
BRANCH   1  14
ATOM     13  O   UNL     1       7.915   6.996  16.264  0.00  0.00    +0.000 OA
ATOM     14  C   UNL     1       7.405   7.247  17.353  0.00  0.00    +0.000 C 
ATOM     15  N   UNL     1       7.575   8.466  17.975  0.00  0.00    +0.000 N 
ATOM     16  H   UNL     1       7.272   8.548  18.940  0.00  0.00    +0.000 HD
BRANCH  15  17
ATOM     17  C   UNL     1       8.479   9.440  17.399  0.00  0.00    +0.000 C 
BRANCH  17  18
ATOM     18  C   UNL     1       8.861  10.533  18.352  0.00  0.00    +0.000 A 
ATOM     19  C   UNL     1       8.893  11.873  17.954  0.00  0.00    +0.000 A 
ATOM     20  C   UNL     1       9.311  12.852  18.852  0.00  0.00    +0.000 A 
ATOM     21  C   UNL     1       9.690  12.457  20.123  0.00  0.00    +0.000 A 
ATOM     22  N   UNL     1       9.689  11.174  20.541  0.00  0.00    +0.000 NA
ATOM     23  C   UNL     1       9.284  10.243  19.646  0.00  0.00    +0.000 A 
ENDBRANCH  17  18
ENDBRANCH  15  17
ENDBRANCH   1  14
BRANCH   5  24
ATOM     24  C   UNL     1       8.330   5.520  19.893  0.00  0.00    +0.000 C 
BRANCH  24  25
ATOM     25  O   UNL     1       8.231   5.095  21.255  0.00  0.00    +0.000 OA
ATOM     26  H   UNL     1       7.284   5.173  21.477  0.00  0.00    +0.000 HD
ENDBRANCH  24  25
ENDBRANCH   5  24
TORSDOF 6
ENDMDL
MODEL 5
REMARK VINA RESULT:      -7.8      3.435      8.459
REMARK  Name = 
REMARK  6 active torsions:
REMARK  status: ('A' for Active; 'I' for Inactive)
REMARK    1  A    between atoms: C_2  and  C_11
REMARK    2  A    between atoms: N_3  and  C_4
REMARK    3  A    between atoms: C_4  and  C_5
REMARK    4  A    between atoms: N_13  and  C_14
REMARK    5  A    between atoms: C_22  and  C_23
REMARK    6  A    between atoms: C_23  and  O_24
REMARK                            x       y       z     vdW  Elec       q    Type
REMARK                         _______ _______ _______ _____ _____    ______ ____
ROOT
ATOM      1  C   UNL     1       7.044   7.084  17.469  0.00  0.00    +0.000 A 
ATOM      2  N   UNL     1       7.239   8.398  17.232  0.00  0.00    +0.000 NA
ATOM      3  N   UNL     1       8.178   8.729  18.175  0.00  0.00    +0.000 N 
ATOM      4  N   UNL     1       8.609   7.713  18.968  0.00  0.00    +0.000 NA
ATOM      5  C   UNL     1       7.849   6.686  18.564  0.00  0.00    +0.000 A 
ENDROOT
BRANCH   3   6
ATOM      6  C   UNL     1       8.689  10.047  18.338  0.00  0.00    +0.000 A 
ATOM      7  C   UNL     1       9.664  10.325  19.307  0.00  0.00    +0.000 A 
ATOM      8  C   UNL     1      10.166  11.627  19.433  0.00  0.00    +0.000 A 
ATOM      9  C   UNL     1       9.685  12.644  18.606  0.00  0.00    +0.000 A 
ATOM     10  F   UNL     1      10.172  13.884  18.743  0.00  0.00    +0.000 F 
ATOM     11  C   UNL     1       8.716  12.381  17.648  0.00  0.00    +0.000 A 
ATOM     12  C   UNL     1       8.220  11.083  17.506  0.00  0.00    +0.000 A 
ENDBRANCH   3   6
BRANCH   1  14
ATOM     13  O   UNL     1       6.218   6.142  15.477  0.00  0.00    +0.000 OA
ATOM     14  C   UNL     1       6.153   6.205  16.702  0.00  0.00    +0.000 C 
ATOM     15  N   UNL     1       5.236   5.470  17.423  0.00  0.00    +0.000 N 
ATOM     16  H   UNL     1       5.121   5.694  18.406  0.00  0.00    +0.000 HD
BRANCH  15  17
ATOM     17  C   UNL     1       4.233   4.695  16.721  0.00  0.00    +0.000 C 
BRANCH  17  18
ATOM     18  C   UNL     1       3.402   3.837  17.628  0.00  0.00    +0.000 A 
ATOM     19  C   UNL     1       2.006   3.826  17.550  0.00  0.00    +0.000 A 
ATOM     20  C   UNL     1       1.268   3.061  18.448  0.00  0.00    +0.000 A 
ATOM     21  C   UNL     1       1.952   2.332  19.405  0.00  0.00    +0.000 A 
ATOM     22  N   UNL     1       3.296   2.328  19.525  0.00  0.00    +0.000 NA
ATOM     23  C   UNL     1       3.988   3.085  18.642  0.00  0.00    +0.000 A 
ENDBRANCH  17  18
ENDBRANCH  15  17
ENDBRANCH   1  14
BRANCH   5  24
ATOM     24  C   UNL     1       7.941   5.349  19.223  0.00  0.00    +0.000 C 
BRANCH  24  25
ATOM     25  O   UNL     1       8.101   5.453  20.641  0.00  0.00    +0.000 OA
ATOM     26  H   UNL     1       9.035   5.700  20.773  0.00  0.00    +0.000 HD
ENDBRANCH  24  25
ENDBRANCH   5  24
TORSDOF 6
ENDMDL
MODEL 6
REMARK VINA RESULT:      -7.7      4.130      6.593
REMARK  Name = 
REMARK  6 active torsions:
REMARK  status: ('A' for Active; 'I' for Inactive)
REMARK    1  A    between atoms: C_2  and  C_11
REMARK    2  A    between atoms: N_3  and  C_4
REMARK    3  A    between atoms: C_4  and  C_5
REMARK    4  A    between atoms: N_13  and  C_14
REMARK    5  A    between atoms: C_22  and  C_23
REMARK    6  A    between atoms: C_23  and  O_24
REMARK                            x       y       z     vdW  Elec       q    Type
REMARK                         _______ _______ _______ _____ _____    ______ ____
ROOT
ATOM      1  C   UNL     1       5.441   4.898  17.073  0.00  0.00    +0.000 A 
ATOM      2  N   UNL     1       4.213   4.532  17.498  0.00  0.00    +0.000 NA
ATOM      3  N   UNL     1       4.430   4.268  18.826  0.00  0.00    +0.000 N 
ATOM      4  N   UNL     1       5.698   4.470  19.274  0.00  0.00    +0.000 NA
ATOM      5  C   UNL     1       6.352   4.809  18.154  0.00  0.00    +0.000 A 
ENDROOT
BRANCH   3   6
ATOM      6  C   UNL     1       3.411   3.810  19.708  0.00  0.00    +0.000 A 
ATOM      7  C   UNL     1       2.123   4.361  19.665  0.00  0.00    +0.000 A 
ATOM      8  C   UNL     1       1.131   3.878  20.529  0.00  0.00    +0.000 A 
ATOM      9  C   UNL     1       1.433   2.862  21.438  0.00  0.00    +0.000 A 
ATOM     10  F   UNL     1       0.476   2.415  22.261  0.00  0.00    +0.000 F 
ATOM     11  C   UNL     1       2.706   2.314  21.493  0.00  0.00    +0.000 A 
ATOM     12  C   UNL     1       3.697   2.780  20.626  0.00  0.00    +0.000 A 
ENDBRANCH   3   6
BRANCH   1  14
ATOM     13  O   UNL     1       5.268   6.342  15.223  0.00  0.00    +0.000 OA
ATOM     14  C   UNL     1       5.773   5.334  15.711  0.00  0.00    +0.000 C 
ATOM     15  N   UNL     1       6.665   4.551  15.009  0.00  0.00    +0.000 N 
ATOM     16  H   UNL     1       6.911   3.649  15.403  0.00  0.00    +0.000 HD
BRANCH  15  17
ATOM     17  C   UNL     1       6.925   4.843  13.614  0.00  0.00    +0.000 C 
BRANCH  17  18
ATOM     18  C   UNL     1       6.312   3.849  12.675  0.00  0.00    +0.000 A 
ATOM     19  C   UNL     1       4.940   3.848  12.403  0.00  0.00    +0.000 A 
ATOM     20  C   UNL     1       4.399   2.871  11.571  0.00  0.00    +0.000 A 
ATOM     21  C   UNL     1       5.250   1.918  11.040  0.00  0.00    +0.000 A 
ATOM     22  N   UNL     1       6.575   1.873  11.291  0.00  0.00    +0.000 NA
ATOM     23  C   UNL     1       7.072   2.831  12.107  0.00  0.00    +0.000 A 
ENDBRANCH  17  18
ENDBRANCH  15  17
ENDBRANCH   1  14
BRANCH   5  24
ATOM     24  C   UNL     1       7.823   5.064  18.163  0.00  0.00    +0.000 C 
BRANCH  24  25
ATOM     25  O   UNL     1       8.568   3.959  17.643  0.00  0.00    +0.000 OA
ATOM     26  H   UNL     1       7.918   3.424  17.150  0.00  0.00    +0.000 HD
ENDBRANCH  24  25
ENDBRANCH   5  24
TORSDOF 6
ENDMDL
MODEL 7
REMARK VINA RESULT:      -7.6      4.111      6.639
REMARK  Name = 
REMARK  6 active torsions:
REMARK  status: ('A' for Active; 'I' for Inactive)
REMARK    1  A    between atoms: C_2  and  C_11
REMARK    2  A    between atoms: N_3  and  C_4
REMARK    3  A    between atoms: C_4  and  C_5
REMARK    4  A    between atoms: N_13  and  C_14
REMARK    5  A    between atoms: C_22  and  C_23
REMARK    6  A    between atoms: C_23  and  O_24
REMARK                            x       y       z     vdW  Elec       q    Type
REMARK                         _______ _______ _______ _____ _____    ______ ____
ROOT
ATOM      1  C   UNL     1       5.410   4.877  17.035  0.00  0.00    +0.000 A 
ATOM      2  N   UNL     1       4.198   4.480  17.479  0.00  0.00    +0.000 NA
ATOM      3  N   UNL     1       4.438   4.240  18.807  0.00  0.00    +0.000 N 
ATOM      4  N   UNL     1       5.704   4.485  19.238  0.00  0.00    +0.000 NA
ATOM      5  C   UNL     1       6.335   4.829  18.107  0.00  0.00    +0.000 A 
ENDROOT
BRANCH   3   6
ATOM      6  C   UNL     1       3.443   3.763  19.706  0.00  0.00    +0.000 A 
ATOM      7  C   UNL     1       3.720   2.712  20.592  0.00  0.00    +0.000 A 
ATOM      8  C   UNL     1       2.730   2.274  21.482  0.00  0.00    +0.000 A 
ATOM      9  C   UNL     1       1.469   2.875  21.473  0.00  0.00    +0.000 A 
ATOM     10  F   UNL     1       0.532   2.442  22.326  0.00  0.00    +0.000 F 
ATOM     11  C   UNL     1       1.183   3.912  20.597  0.00  0.00    +0.000 A 
ATOM     12  C   UNL     1       2.169   4.363  19.716  0.00  0.00    +0.000 A 
ENDBRANCH   3   6
BRANCH   1  14
ATOM     13  O   UNL     1       5.214   6.321  15.188  0.00  0.00    +0.000 OA
ATOM     14  C   UNL     1       5.714   5.306  15.664  0.00  0.00    +0.000 C 
ATOM     15  N   UNL     1       6.574   4.507  14.941  0.00  0.00    +0.000 N 
ATOM     16  H   UNL     1       6.815   3.601  15.330  0.00  0.00    +0.000 HD
BRANCH  15  17
ATOM     17  C   UNL     1       6.802   4.792  13.539  0.00  0.00    +0.000 C 
BRANCH  17  18
ATOM     18  C   UNL     1       6.388   3.674  12.630  0.00  0.00    +0.000 A 
ATOM     19  C   UNL     1       7.330   2.835  12.026  0.00  0.00    +0.000 A 
ATOM     20  C   UNL     1       6.909   1.845  11.141  0.00  0.00    +0.000 A 
ATOM     21  C   UNL     1       5.554   1.730  10.882  0.00  0.00    +0.000 A 
ATOM     22  N   UNL     1       4.616   2.530  11.431  0.00  0.00    +0.000 NA
ATOM     23  C   UNL     1       5.054   3.487  12.282  0.00  0.00    +0.000 A 
ENDBRANCH  17  18
ENDBRANCH  15  17
ENDBRANCH   1  14
BRANCH   5  24
ATOM     24  C   UNL     1       7.798   5.128  18.096  0.00  0.00    +0.000 C 
BRANCH  24  25
ATOM     25  O   UNL     1       8.584   3.978  17.770  0.00  0.00    +0.000 OA
ATOM     26  H   UNL     1       9.200   3.871  18.519  0.00  0.00    +0.000 HD
ENDBRANCH  24  25
ENDBRANCH   5  24
TORSDOF 6
ENDMDL
MODEL 8
REMARK VINA RESULT:      -7.4      3.459      8.429
REMARK  Name = 
REMARK  6 active torsions:
REMARK  status: ('A' for Active; 'I' for Inactive)
REMARK    1  A    between atoms: C_2  and  C_11
REMARK    2  A    between atoms: N_3  and  C_4
REMARK    3  A    between atoms: C_4  and  C_5
REMARK    4  A    between atoms: N_13  and  C_14
REMARK    5  A    between atoms: C_22  and  C_23
REMARK    6  A    between atoms: C_23  and  O_24
REMARK                            x       y       z     vdW  Elec       q    Type
REMARK                         _______ _______ _______ _____ _____    ______ ____
ROOT
ATOM      1  C   UNL     1       6.864   7.125  17.484  0.00  0.00    +0.000 A 
ATOM      2  N   UNL     1       7.064   8.445  17.285  0.00  0.00    +0.000 NA
ATOM      3  N   UNL     1       8.108   8.713  18.132  0.00  0.00    +0.000 N 
ATOM      4  N   UNL     1       8.599   7.652  18.827  0.00  0.00    +0.000 NA
ATOM      5  C   UNL     1       7.774   6.660  18.465  0.00  0.00    +0.000 A 
ENDROOT
BRANCH   3   6
ATOM      6  C   UNL     1       8.667  10.012  18.295  0.00  0.00    +0.000 A 
ATOM      7  C   UNL     1       8.219  11.090  17.519  0.00  0.00    +0.000 A 
ATOM      8  C   UNL     1       8.770  12.363  17.714  0.00  0.00    +0.000 A 
ATOM      9  C   UNL     1       9.772  12.551  18.668  0.00  0.00    +0.000 A 
ATOM     10  F   UNL     1      10.292  13.772  18.839  0.00  0.00    +0.000 F 
ATOM     11  C   UNL     1      10.227  11.490  19.438  0.00  0.00    +0.000 A 
ATOM     12  C   UNL     1       9.673  10.220  19.259  0.00  0.00    +0.000 A 
ENDBRANCH   3   6
BRANCH   1  14
ATOM     13  O   UNL     1       5.773   6.326  15.558  0.00  0.00    +0.000 OA
ATOM     14  C   UNL     1       5.872   6.301  16.782  0.00  0.00    +0.000 C 
ATOM     15  N   UNL     1       5.055   5.512  17.565  0.00  0.00    +0.000 N 
ATOM     16  H   UNL     1       5.074   5.665  18.568  0.00  0.00    +0.000 HD
BRANCH  15  17
ATOM     17  C   UNL     1       3.962   4.787  16.949  0.00  0.00    +0.000 C 
BRANCH  17  18
ATOM     18  C   UNL     1       2.944   4.298  17.935  0.00  0.00    +0.000 A 
ATOM     19  C   UNL     1       2.130   3.194  17.659  0.00  0.00    +0.000 A 
ATOM     20  C   UNL     1       1.155   2.807  18.575  0.00  0.00    +0.000 A 
ATOM     21  C   UNL     1       1.021   3.542  19.740  0.00  0.00    +0.000 A 
ATOM     22  N   UNL     1       1.774   4.622  20.035  0.00  0.00    +0.000 NA
ATOM     23  C   UNL     1       2.709   4.979  19.125  0.00  0.00    +0.000 A 
ENDBRANCH  17  18
ENDBRANCH  15  17
ENDBRANCH   1  14
BRANCH   5  24
ATOM     24  C   UNL     1       7.903   5.293  19.050  0.00  0.00    +0.000 C 
BRANCH  24  25
ATOM     25  O   UNL     1       7.942   4.275  18.047  0.00  0.00    +0.000 OA
ATOM     26  H   UNL     1       7.704   3.450  18.511  0.00  0.00    +0.000 HD
ENDBRANCH  24  25
ENDBRANCH   5  24
TORSDOF 6
ENDMDL
MODEL 9
REMARK VINA RESULT:      -7.4      3.479      8.444
REMARK  Name = 
REMARK  6 active torsions:
REMARK  status: ('A' for Active; 'I' for Inactive)
REMARK    1  A    between atoms: C_2  and  C_11
REMARK    2  A    between atoms: N_3  and  C_4
REMARK    3  A    between atoms: C_4  and  C_5
REMARK    4  A    between atoms: N_13  and  C_14
REMARK    5  A    between atoms: C_22  and  C_23
REMARK    6  A    between atoms: C_23  and  O_24
REMARK                            x       y       z     vdW  Elec       q    Type
REMARK                         _______ _______ _______ _____ _____    ______ ____
ROOT
ATOM      1  C   UNL     1       6.951   7.183  17.396  0.00  0.00    +0.000 A 
ATOM      2  N   UNL     1       7.143   8.508  17.225  0.00  0.00    +0.000 NA
ATOM      3  N   UNL     1       8.134   8.780  18.132  0.00  0.00    +0.000 N 
ATOM      4  N   UNL     1       8.600   7.717  18.840  0.00  0.00    +0.000 NA
ATOM      5  C   UNL     1       7.811   6.718  18.420  0.00  0.00    +0.000 A 
ENDROOT
BRANCH   3   6
ATOM      6  C   UNL     1       8.664  10.084  18.343  0.00  0.00    +0.000 A 
ATOM      7  C   UNL     1       9.620  10.318  19.342  0.00  0.00    +0.000 A 
ATOM      8  C   UNL     1      10.141  11.607  19.515  0.00  0.00    +0.000 A 
ATOM      9  C   UNL     1       9.698  12.654  18.705  0.00  0.00    +0.000 A 
ATOM     10  F   UNL     1      10.202  13.881  18.887  0.00  0.00    +0.000 F 
ATOM     11  C   UNL     1       8.748  12.434  17.718  0.00  0.00    +0.000 A 
ATOM     12  C   UNL     1       8.232  11.150  17.529  0.00  0.00    +0.000 A 
ENDBRANCH   3   6
BRANCH   1  14
ATOM     13  O   UNL     1       5.657   6.673  15.497  0.00  0.00    +0.000 OA
ATOM     14  C   UNL     1       6.012   6.355  16.630  0.00  0.00    +0.000 C 
ATOM     15  N   UNL     1       5.542   5.216  17.249  0.00  0.00    +0.000 N 
ATOM     16  H   UNL     1       5.739   5.102  18.237  0.00  0.00    +0.000 HD
BRANCH  15  17
ATOM     17  C   UNL     1       4.505   4.433  16.608  0.00  0.00    +0.000 C 
BRANCH  17  18
ATOM     18  C   UNL     1       3.624   3.705  17.579  0.00  0.00    +0.000 A 
ATOM     19  C   UNL     1       4.138   3.131  18.745  0.00  0.00    +0.000 A 
ATOM     20  C   UNL     1       3.298   2.413  19.592  0.00  0.00    +0.000 A 
ATOM     21  C   UNL     1       1.965   2.286  19.241  0.00  0.00    +0.000 A 
ATOM     22  N   UNL     1       1.434   2.810  18.116  0.00  0.00    +0.000 NA
ATOM     23  C   UNL     1       2.275   3.497  17.309  0.00  0.00    +0.000 A 
ENDBRANCH  17  18
ENDBRANCH  15  17
ENDBRANCH   1  14
BRANCH   5  24
ATOM     24  C   UNL     1       7.928   5.345  18.995  0.00  0.00    +0.000 C 
BRANCH  24  25
ATOM     25  O   UNL     1       6.915   5.077  19.968  0.00  0.00    +0.000 OA
ATOM     26  H   UNL     1       6.203   4.625  19.476  0.00  0.00    +0.000 HD
ENDBRANCH  24  25
ENDBRANCH   5  24
TORSDOF 6
ENDMDL
