MODEL 1
REMARK VINA RESULT:      -8.6      0.000      0.000
REMARK  Name = 
REMARK  8 active torsions:
REMARK  status: ('A' for Active; 'I' for Inactive)
REMARK    1  A    between atoms: C_1  and  O_2
REMARK    2  A    between atoms: O_2  and  C_3
REMARK    3  A    between atoms: C_3  and  C_4
REMARK    4  A    between atoms: C_4  and  N_5
REMARK    5  A    between atoms: N_5  and  C_6
REMARK    6  A    between atoms: C_8  and  C_9
REMARK    7  A    between atoms: N_20  and  C_21
REMARK    8  A    between atoms: N_26  and  C_27
REMARK                            x       y       z     vdW  Elec       q    Type
REMARK                         _______ _______ _______ _____ _____    ______ ____
ROOT
ATOM      1  C   UNL     1       3.232   5.572  18.992  0.00  0.00    +0.000 A 
ATOM      2  N   UNL     1       2.416   6.602  19.312  0.00  0.00    +0.000 NA
ATOM      3  C   UNL     1       2.437   7.754  18.595  0.00  0.00    +0.000 A 
ATOM      4  C   UNL     1       3.282   7.914  17.511  0.00  0.00    +0.000 A 
ATOM      5  C   UNL     1       4.098   6.852  17.140  0.00  0.00    +0.000 A 
ATOM      6  N   UNL     1       4.891   7.015  15.992  0.00  0.00    +0.000 NA
ATOM      7  C   UNL     1       5.629   6.021  15.632  0.00  0.00    +0.000 A 
ATOM      8  N   UNL     1       5.709   4.826  16.298  0.00  0.00    +0.000 N 
ATOM      9  C   UNL     1       6.578   3.775  15.812  0.00  0.00    +0.000 C 
ATOM     10  C   UNL     1       4.942   4.567  17.430  0.00  0.00    +0.000 A 
ATOM     11  O   UNL     1       4.935   3.477  17.991  0.00  0.00    +0.000 OA
ATOM     12  C   UNL     1       4.084   5.678  17.894  0.00  0.00    +0.000 A 
ENDROOT
BRANCH   3  13
ATOM     13  C   UNL     1       1.512   8.797  19.068  0.00  0.00    +0.000 A 
ATOM     14  C   UNL     1       0.958   9.777  18.244  0.00  0.00    +0.000 A 
ATOM     15  C   UNL     1       0.049  10.729  18.751  0.00  0.00    +0.000 A 
ATOM     16  C   UNL     1      -0.349  10.772  20.103  0.00  0.00    +0.000 A 
ATOM     17  C   UNL     1       0.221   9.787  20.898  0.00  0.00    +0.000 A 
ATOM     18  C   UNL     1       1.123   8.825  20.408  0.00  0.00    +0.000 A 
ATOM     19  S   UNL     1      -0.151   9.657  22.595  0.00  0.00    +0.000 S 
ATOM     20  O   UNL     1       1.117   9.724  23.300  0.00  0.00    +0.000 OA
ATOM     21  O   UNL     1      -1.015   8.498  22.744  0.00  0.00    +0.000 OA
ATOM     22  C   UNL     1      -1.054  11.058  23.061  0.00  0.00    +0.000 C 
ATOM     23  C   UNL     1      -1.607  11.924  21.970  0.00  0.00    +0.000 C 
ATOM     24  N   UNL     1      -1.246  11.707  20.572  0.00  0.00    +0.000 N 
ATOM     25  C   UNL     1      -1.846  12.676  19.643  0.00  0.00    +0.000 C 
ENDBRANCH   3  13
BRANCH   1  26
ATOM     26  N   UNL     1       3.277   4.486  19.871  0.00  0.00    +0.000 N 
ATOM     27  H   UNL     1       3.197   3.599  19.356  0.00  0.00    +0.000 HD
BRANCH  26  28
ATOM     28  C   UNL     1       2.351   4.505  21.007  0.00  0.00    +0.000 C 
BRANCH  28  29
ATOM     29  C   UNL     1       1.435   3.272  20.990  0.00  0.00    +0.000 C 
BRANCH  29  31
ATOM     30  C   UNL     1       0.872   2.389  18.870  0.00  0.00    +0.000 C 
ATOM     31  O   UNL     1       0.556   3.358  19.859  0.00  0.00    +0.000 OA
ENDBRANCH  29  31
ENDBRANCH  28  29
ENDBRANCH  26  28
ENDBRANCH   1  26
TORSDOF 5
ENDMDL
MODEL 2
REMARK VINA RESULT:      -8.3      1.828      2.357
REMARK  Name = 
REMARK  8 active torsions:
REMARK  status: ('A' for Active; 'I' for Inactive)
REMARK    1  A    between atoms: C_1  and  O_2
REMARK    2  A    between atoms: O_2  and  C_3
REMARK    3  A    between atoms: C_3  and  C_4
REMARK    4  A    between atoms: C_4  and  N_5
REMARK    5  A    between atoms: N_5  and  C_6
REMARK    6  A    between atoms: C_8  and  C_9
REMARK    7  A    between atoms: N_20  and  C_21
REMARK    8  A    between atoms: N_26  and  C_27
REMARK                            x       y       z     vdW  Elec       q    Type
REMARK                         _______ _______ _______ _____ _____    ______ ____
ROOT
ATOM      1  C   UNL     1       3.034   5.356  19.464  0.00  0.00    +0.000 A 
ATOM      2  N   UNL     1       2.241   6.335  19.954  0.00  0.00    +0.000 NA
ATOM      3  C   UNL     1       2.193   7.553  19.357  0.00  0.00    +0.000 A 
ATOM      4  C   UNL     1       2.942   7.834  18.228  0.00  0.00    +0.000 A 
ATOM      5  C   UNL     1       3.730   6.827  17.684  0.00  0.00    +0.000 A 
ATOM      6  N   UNL     1       4.421   7.116  16.496  0.00  0.00    +0.000 NA
ATOM      7  C   UNL     1       5.132   6.175  15.977  0.00  0.00    +0.000 A 
ATOM      8  N   UNL     1       5.277   4.920  16.509  0.00  0.00    +0.000 N 
ATOM      9  C   UNL     1       6.109   3.936  15.849  0.00  0.00    +0.000 C 
ATOM     10  C   UNL     1       4.611   4.537  17.670  0.00  0.00    +0.000 A 
ATOM     11  O   UNL     1       4.659   3.397  18.117  0.00  0.00    +0.000 OA
ATOM     12  C   UNL     1       3.788   5.584  18.315  0.00  0.00    +0.000 A 
ENDROOT
BRANCH   3  13
ATOM     13  C   UNL     1       1.305   8.530  20.009  0.00  0.00    +0.000 A 
ATOM     14  C   UNL     1       0.985   8.507  21.367  0.00  0.00    +0.000 A 
ATOM     15  C   UNL     1       0.155   9.494  21.939  0.00  0.00    +0.000 A 
ATOM     16  C   UNL     1      -0.415  10.547  21.195  0.00  0.00    +0.000 A 
ATOM     17  C   UNL     1      -0.082  10.541  19.849  0.00  0.00    +0.000 A 
ATOM     18  C   UNL     1       0.750   9.571  19.262  0.00  0.00    +0.000 A 
ATOM     19  S   UNL     1      -0.673  11.766  18.759  0.00  0.00    +0.000 S 
ATOM     20  O   UNL     1      -1.361  11.066  17.688  0.00  0.00    +0.000 OA
ATOM     21  O   UNL     1       0.452  12.638  18.464  0.00  0.00    +0.000 OA
ATOM     22  C   UNL     1      -1.868  12.702  19.591  0.00  0.00    +0.000 C 
ATOM     23  C   UNL     1      -1.966  12.541  21.078  0.00  0.00    +0.000 C 
ATOM     24  N   UNL     1      -1.216  11.504  21.780  0.00  0.00    +0.000 N 
ATOM     25  C   UNL     1      -1.466  11.464  23.229  0.00  0.00    +0.000 C 
ENDBRANCH   3  13
BRANCH   1  26
ATOM     26  N   UNL     1       3.160   4.188  20.221  0.00  0.00    +0.000 N 
ATOM     27  H   UNL     1       3.211   3.361  19.610  0.00  0.00    +0.000 HD
BRANCH  26  28
ATOM     28  C   UNL     1       2.182   3.974  21.292  0.00  0.00    +0.000 C 
BRANCH  28  29
ATOM     29  C   UNL     1       1.382   2.684  21.057  0.00  0.00    +0.000 C 
BRANCH  29  31
ATOM     30  C   UNL     1       0.758   2.336  18.803  0.00  0.00    +0.000 C 
ATOM     31  O   UNL     1       1.757   2.125  19.789  0.00  0.00    +0.000 OA
ENDBRANCH  29  31
ENDBRANCH  28  29
ENDBRANCH  26  28
ENDBRANCH   1  26
TORSDOF 5
ENDMDL
MODEL 3
REMARK VINA RESULT:      -8.2      2.760      8.549
REMARK  Name = 
REMARK  8 active torsions:
REMARK  status: ('A' for Active; 'I' for Inactive)
REMARK    1  A    between atoms: C_1  and  O_2
REMARK    2  A    between atoms: O_2  and  C_3
REMARK    3  A    between atoms: C_3  and  C_4
REMARK    4  A    between atoms: C_4  and  N_5
REMARK    5  A    between atoms: N_5  and  C_6
REMARK    6  A    between atoms: C_8  and  C_9
REMARK    7  A    between atoms: N_20  and  C_21
REMARK    8  A    between atoms: N_26  and  C_27
REMARK                            x       y       z     vdW  Elec       q    Type
REMARK                         _______ _______ _______ _____ _____    ______ ____
ROOT
ATOM      1  C   UNL     1       0.922  10.523  19.346  0.00  0.00    +0.000 A 
ATOM      2  N   UNL     1       1.500   9.387  18.895  0.00  0.00    +0.000 NA
ATOM      3  C   UNL     1       1.609   8.297  19.696  0.00  0.00    +0.000 A 
ATOM      4  C   UNL     1       1.127   8.305  20.994  0.00  0.00    +0.000 A 
ATOM      5  C   UNL     1       0.491   9.448  21.462  0.00  0.00    +0.000 A 
ATOM      6  N   UNL     1      -0.053   9.402  22.756  0.00  0.00    +0.000 NA
ATOM      7  C   UNL     1      -0.666  10.454  23.182  0.00  0.00    +0.000 A 
ATOM      8  N   UNL     1      -0.807  11.617  22.471  0.00  0.00    +0.000 N 
ATOM      9  C   UNL     1      -1.508  12.745  23.047  0.00  0.00    +0.000 C 
ATOM     10  C   UNL     1      -0.321  11.745  21.173  0.00  0.00    +0.000 A 
ATOM     11  O   UNL     1      -0.510  12.744  20.490  0.00  0.00    +0.000 OA
ATOM     12  C   UNL     1       0.401  10.570  20.638  0.00  0.00    +0.000 A 
ENDROOT
BRANCH   3  13
ATOM     13  C   UNL     1       2.278   7.139  19.083  0.00  0.00    +0.000 A 
ATOM     14  C   UNL     1       3.203   7.235  18.043  0.00  0.00    +0.000 A 
ATOM     15  C   UNL     1       3.838   6.089  17.521  0.00  0.00    +0.000 A 
ATOM     16  C   UNL     1       3.580   4.784  17.990  0.00  0.00    +0.000 A 
ATOM     17  C   UNL     1       2.655   4.720  19.021  0.00  0.00    +0.000 A 
ATOM     18  C   UNL     1       2.018   5.853  19.559  0.00  0.00    +0.000 A 
ATOM     19  S   UNL     1       2.207   3.202  19.751  0.00  0.00    +0.000 S 
ATOM     20  O   UNL     1       0.763   3.097  19.628  0.00  0.00    +0.000 OA
ATOM     21  O   UNL     1       2.839   3.167  21.059  0.00  0.00    +0.000 OA
ATOM     22  C   UNL     1       2.882   1.923  18.799  0.00  0.00    +0.000 C 
ATOM     23  C   UNL     1       3.920   2.287  17.782  0.00  0.00    +0.000 C 
ATOM     24  N   UNL     1       4.221   3.681  17.468  0.00  0.00    +0.000 N 
ATOM     25  C   UNL     1       5.233   3.851  16.416  0.00  0.00    +0.000 C 
ENDBRANCH   3  13
BRANCH   1  26
ATOM     26  N   UNL     1       0.994  11.654  18.528  0.00  0.00    +0.000 N 
ATOM     27  H   UNL     1       0.543  11.476  17.620  0.00  0.00    +0.000 HD
BRANCH  26  28
ATOM     28  C   UNL     1       2.316  12.256  18.332  0.00  0.00    +0.000 C 
BRANCH  28  29
ATOM     29  C   UNL     1       2.235  13.789  18.380  0.00  0.00    +0.000 C 
BRANCH  29  31
ATOM     30  C   UNL     1       2.920  13.750  20.643  0.00  0.00    +0.000 C 
ATOM     31  O   UNL     1       3.174  14.278  19.349  0.00  0.00    +0.000 OA
ENDBRANCH  29  31
ENDBRANCH  28  29
ENDBRANCH  26  28
ENDBRANCH   1  26
TORSDOF 5
ENDMDL
MODEL 4
REMARK VINA RESULT:      -8.0      1.873      2.502
REMARK  Name = 
REMARK  8 active torsions:
REMARK  status: ('A' for Active; 'I' for Inactive)
REMARK    1  A    between atoms: C_1  and  O_2
REMARK    2  A    between atoms: O_2  and  C_3
REMARK    3  A    between atoms: C_3  and  C_4
REMARK    4  A    between atoms: C_4  and  N_5
REMARK    5  A    between atoms: N_5  and  C_6
REMARK    6  A    between atoms: C_8  and  C_9
REMARK    7  A    between atoms: N_20  and  C_21
REMARK    8  A    between atoms: N_26  and  C_27
REMARK                            x       y       z     vdW  Elec       q    Type
REMARK                         _______ _______ _______ _____ _____    ______ ____
ROOT
ATOM      1  C   UNL     1       2.991   4.953  18.312  0.00  0.00    +0.000 A 
ATOM      2  N   UNL     1       2.272   5.895  18.964  0.00  0.00    +0.000 NA
ATOM      3  C   UNL     1       2.490   7.216  18.736  0.00  0.00    +0.000 A 
ATOM      4  C   UNL     1       3.443   7.644  17.828  0.00  0.00    +0.000 A 
ATOM      5  C   UNL     1       4.162   6.691  17.117  0.00  0.00    +0.000 A 
ATOM      6  N   UNL     1       5.069   7.153  16.150  0.00  0.00    +0.000 NA
ATOM      7  C   UNL     1       5.718   6.269  15.472  0.00  0.00    +0.000 A 
ATOM      8  N   UNL     1       5.600   4.914  15.640  0.00  0.00    +0.000 N 
ATOM      9  C   UNL     1       6.383   4.005  14.829  0.00  0.00    +0.000 C 
ATOM     10  C   UNL     1       4.709   4.366  16.557  0.00  0.00    +0.000 A 
ATOM     11  O   UNL     1       4.526   3.159  16.664  0.00  0.00    +0.000 OA
ATOM     12  C   UNL     1       3.945   5.336  17.372  0.00  0.00    +0.000 A 
ENDROOT
BRANCH   3  13
ATOM     13  C   UNL     1       1.652   8.129  19.529  0.00  0.00    +0.000 A 
ATOM     14  C   UNL     1       1.399   7.969  20.892  0.00  0.00    +0.000 A 
ATOM     15  C   UNL     1       0.616   8.900  21.605  0.00  0.00    +0.000 A 
ATOM     16  C   UNL     1       0.028  10.032  21.004  0.00  0.00    +0.000 A 
ATOM     17  C   UNL     1       0.294  10.164  19.649  0.00  0.00    +0.000 A 
ATOM     18  C   UNL     1       1.080   9.249  18.924  0.00  0.00    +0.000 A 
ATOM     19  S   UNL     1      -0.327  11.503  18.723  0.00  0.00    +0.000 S 
ATOM     20  O   UNL     1      -1.079  10.928  17.622  0.00  0.00    +0.000 OA
ATOM     21  O   UNL     1       0.797  12.387  18.465  0.00  0.00    +0.000 OA
ATOM     22  C   UNL     1      -1.463  12.361  19.708  0.00  0.00    +0.000 C 
ATOM     23  C   UNL     1      -1.491  12.047  21.172  0.00  0.00    +0.000 C 
ATOM     24  N   UNL     1      -0.727  10.932  21.725  0.00  0.00    +0.000 N 
ATOM     25  C   UNL     1      -0.906  10.744  23.172  0.00  0.00    +0.000 C 
ENDBRANCH   3  13
BRANCH   1  26
ATOM     26  N   UNL     1       2.831   3.625  18.716  0.00  0.00    +0.000 N 
ATOM     27  H   UNL     1       3.653   3.064  18.455  0.00  0.00    +0.000 HD
BRANCH  26  28
ATOM     28  C   UNL     1       1.597   2.945  18.311  0.00  0.00    +0.000 C 
BRANCH  28  29
ATOM     29  C   UNL     1       0.807   2.461  19.536  0.00  0.00    +0.000 C 
BRANCH  29  31
ATOM     30  C   UNL     1       1.586   2.625  21.764  0.00  0.00    +0.000 C 
ATOM     31  O   UNL     1       1.079   3.335  20.643  0.00  0.00    +0.000 OA
ENDBRANCH  29  31
ENDBRANCH  28  29
ENDBRANCH  26  28
ENDBRANCH   1  26
TORSDOF 5
ENDMDL
MODEL 5
REMARK VINA RESULT:      -8.0      2.813      8.413
REMARK  Name = 
REMARK  8 active torsions:
REMARK  status: ('A' for Active; 'I' for Inactive)
REMARK    1  A    between atoms: C_1  and  O_2
REMARK    2  A    between atoms: O_2  and  C_3
REMARK    3  A    between atoms: C_3  and  C_4
REMARK    4  A    between atoms: C_4  and  N_5
REMARK    5  A    between atoms: N_5  and  C_6
REMARK    6  A    between atoms: C_8  and  C_9
REMARK    7  A    between atoms: N_20  and  C_21
REMARK    8  A    between atoms: N_26  and  C_27
REMARK                            x       y       z     vdW  Elec       q    Type
REMARK                         _______ _______ _______ _____ _____    ______ ____
ROOT
ATOM      1  C   UNL     1      -0.270  10.356  19.013  0.00  0.00    +0.000 A 
ATOM      2  N   UNL     1       0.592   9.443  18.511  0.00  0.00    +0.000 NA
ATOM      3  C   UNL     1       1.362   8.688  19.335  0.00  0.00    +0.000 A 
ATOM      4  C   UNL     1       1.288   8.818  20.711  0.00  0.00    +0.000 A 
ATOM      5  C   UNL     1       0.378   9.720  21.248  0.00  0.00    +0.000 A 
ATOM      6  N   UNL     1       0.272   9.777  22.647  0.00  0.00    +0.000 NA
ATOM      7  C   UNL     1      -0.591  10.595  23.146  0.00  0.00    +0.000 A 
ATOM      8  N   UNL     1      -1.397  11.425  22.410  0.00  0.00    +0.000 N 
ATOM      9  C   UNL     1      -2.329  12.314  23.071  0.00  0.00    +0.000 C 
ATOM     10  C   UNL     1      -1.377  11.419  21.019  0.00  0.00    +0.000 A 
ATOM     11  O   UNL     1      -2.146  12.090  20.341  0.00  0.00    +0.000 OA
ATOM     12  C   UNL     1      -0.396  10.505  20.393  0.00  0.00    +0.000 A 
ENDROOT
BRANCH   3  13
ATOM     13  C   UNL     1       2.270   7.752  18.653  0.00  0.00    +0.000 A 
ATOM     14  C   UNL     1       3.251   8.143  17.742  0.00  0.00    +0.000 A 
ATOM     15  C   UNL     1       4.114   7.199  17.147  0.00  0.00    +0.000 A 
ATOM     16  C   UNL     1       4.042   5.815  17.411  0.00  0.00    +0.000 A 
ATOM     17  C   UNL     1       3.056   5.457  18.318  0.00  0.00    +0.000 A 
ATOM     18  C   UNL     1       2.192   6.385  18.927  0.00  0.00    +0.000 A 
ATOM     19  S   UNL     1       2.812   3.797  18.790  0.00  0.00    +0.000 S 
ATOM     20  O   UNL     1       1.423   3.487  18.499  0.00  0.00    +0.000 OA
ATOM     21  O   UNL     1       3.325   3.671  20.144  0.00  0.00    +0.000 OA
ATOM     22  C   UNL     1       3.774   2.793  17.760  0.00  0.00    +0.000 C 
ATOM     23  C   UNL     1       4.819   3.460  16.918  0.00  0.00    +0.000 C 
ATOM     24  N   UNL     1       4.904   4.914  16.824  0.00  0.00    +0.000 N 
ATOM     25  C   UNL     1       5.960   5.393  15.919  0.00  0.00    +0.000 C 
ENDBRANCH   3  13
BRANCH   1  26
ATOM     26  N   UNL     1      -0.905  11.210  18.108  0.00  0.00    +0.000 N 
ATOM     27  H   UNL     1      -1.373  11.982  18.603  0.00  0.00    +0.000 HD
BRANCH  26  28
ATOM     28  C   UNL     1      -1.817  10.599  17.136  0.00  0.00    +0.000 C 
BRANCH  28  29
ATOM     29  C   UNL     1      -3.173  11.320  17.124  0.00  0.00    +0.000 C 
BRANCH  29  31
ATOM     30  C   UNL     1      -3.008  10.348  14.975  0.00  0.00    +0.000 C 
ATOM     31  O   UNL     1      -3.731  11.246  15.804  0.00  0.00    +0.000 OA
ENDBRANCH  29  31
ENDBRANCH  28  29
ENDBRANCH  26  28
ENDBRANCH   1  26
TORSDOF 5
ENDMDL
MODEL 6
REMARK VINA RESULT:      -8.0      3.049      8.761
REMARK  Name = 
REMARK  8 active torsions:
REMARK  status: ('A' for Active; 'I' for Inactive)
REMARK    1  A    between atoms: C_1  and  O_2
REMARK    2  A    between atoms: O_2  and  C_3
REMARK    3  A    between atoms: C_3  and  C_4
REMARK    4  A    between atoms: C_4  and  N_5
REMARK    5  A    between atoms: N_5  and  C_6
REMARK    6  A    between atoms: C_8  and  C_9
REMARK    7  A    between atoms: N_20  and  C_21
REMARK    8  A    between atoms: N_26  and  C_27
REMARK                            x       y       z     vdW  Elec       q    Type
REMARK                         _______ _______ _______ _____ _____    ______ ____
ROOT
ATOM      1  C   UNL     1       1.065  10.314  19.171  0.00  0.00    +0.000 A 
ATOM      2  N   UNL     1       1.658   9.181  18.735  0.00  0.00    +0.000 NA
ATOM      3  C   UNL     1       1.796   8.108  19.556  0.00  0.00    +0.000 A 
ATOM      4  C   UNL     1       1.329   8.133  20.859  0.00  0.00    +0.000 A 
ATOM      5  C   UNL     1       0.678   9.273  21.313  0.00  0.00    +0.000 A 
ATOM      6  N   UNL     1       0.149   9.243  22.613  0.00  0.00    +0.000 NA
ATOM      7  C   UNL     1      -0.478  10.291  23.026  0.00  0.00    +0.000 A 
ATOM      8  N   UNL     1      -0.649  11.437  22.294  0.00  0.00    +0.000 N 
ATOM      9  C   UNL     1      -1.364  12.564  22.856  0.00  0.00    +0.000 C 
ATOM     10  C   UNL     1      -0.180  11.549  20.989  0.00  0.00    +0.000 A 
ATOM     11  O   UNL     1      -0.395  12.531  20.288  0.00  0.00    +0.000 OA
ATOM     12  C   UNL     1       0.558  10.377  20.467  0.00  0.00    +0.000 A 
ENDROOT
BRANCH   3  13
ATOM     13  C   UNL     1       2.480   6.951  18.957  0.00  0.00    +0.000 A 
ATOM     14  C   UNL     1       2.125   5.624  19.203  0.00  0.00    +0.000 A 
ATOM     15  C   UNL     1       2.797   4.558  18.569  0.00  0.00    +0.000 A 
ATOM     16  C   UNL     1       3.867   4.748  17.671  0.00  0.00    +0.000 A 
ATOM     17  C   UNL     1       4.200   6.076  17.449  0.00  0.00    +0.000 A 
ATOM     18  C   UNL     1       3.535   7.152  18.066  0.00  0.00    +0.000 A 
ATOM     19  S   UNL     1       5.485   6.525  16.362  0.00  0.00    +0.000 S 
ATOM     20  O   UNL     1       6.410   7.338  17.132  0.00  0.00    +0.000 OA
ATOM     21  O   UNL     1       4.852   7.061  15.168  0.00  0.00    +0.000 OA
ATOM     22  C   UNL     1       6.340   5.089  15.911  0.00  0.00    +0.000 C 
ATOM     23  C   UNL     1       5.704   3.771  16.233  0.00  0.00    +0.000 C 
ATOM     24  N   UNL     1       4.502   3.689  17.058  0.00  0.00    +0.000 N 
ATOM     25  C   UNL     1       4.041   2.315  17.308  0.00  0.00    +0.000 C 
ENDBRANCH   3  13
BRANCH   1  26
ATOM     26  N   UNL     1       1.107  11.430  18.330  0.00  0.00    +0.000 N 
ATOM     27  H   UNL     1       0.722  11.202  17.403  0.00  0.00    +0.000 HD
BRANCH  26  28
ATOM     28  C   UNL     1       2.394  12.119  18.194  0.00  0.00    +0.000 C 
BRANCH  28  29
ATOM     29  C   UNL     1       2.211  13.643  18.252  0.00  0.00    +0.000 C 
BRANCH  29  31
ATOM     30  C   UNL     1       2.909  13.776  20.508  0.00  0.00    +0.000 C 
ATOM     31  O   UNL     1       3.163  14.193  19.175  0.00  0.00    +0.000 OA
ENDBRANCH  29  31
ENDBRANCH  28  29
ENDBRANCH  26  28
ENDBRANCH   1  26
TORSDOF 5
ENDMDL
MODEL 7
REMARK VINA RESULT:      -7.9      1.312      1.429
REMARK  Name = 
REMARK  8 active torsions:
REMARK  status: ('A' for Active; 'I' for Inactive)
REMARK    1  A    between atoms: C_1  and  O_2
REMARK    2  A    between atoms: O_2  and  C_3
REMARK    3  A    between atoms: C_3  and  C_4
REMARK    4  A    between atoms: C_4  and  N_5
REMARK    5  A    between atoms: N_5  and  C_6
REMARK    6  A    between atoms: C_8  and  C_9
REMARK    7  A    between atoms: N_20  and  C_21
REMARK    8  A    between atoms: N_26  and  C_27
REMARK                            x       y       z     vdW  Elec       q    Type
REMARK                         _______ _______ _______ _____ _____    ______ ____
ROOT
ATOM      1  C   UNL     1       3.279   5.986  19.415  0.00  0.00    +0.000 A 
ATOM      2  N   UNL     1       2.283   6.900  19.387  0.00  0.00    +0.000 NA
ATOM      3  C   UNL     1       2.297   7.915  18.486  0.00  0.00    +0.000 A 
ATOM      4  C   UNL     1       3.319   8.045  17.562  0.00  0.00    +0.000 A 
ATOM      5  C   UNL     1       4.329   7.092  17.546  0.00  0.00    +0.000 A 
ATOM      6  N   UNL     1       5.313   7.207  16.551  0.00  0.00    +0.000 NA
ATOM      7  C   UNL     1       6.236   6.308  16.519  0.00  0.00    +0.000 A 
ATOM      8  N   UNL     1       6.337   5.260  17.397  0.00  0.00    +0.000 N 
ATOM      9  C   UNL     1       7.421   4.308  17.278  0.00  0.00    +0.000 C 
ATOM     10  C   UNL     1       5.394   5.053  18.399  0.00  0.00    +0.000 A 
ATOM     11  O   UNL     1       5.418   4.078  19.141  0.00  0.00    +0.000 OA
ATOM     12  C   UNL     1       4.317   6.063  18.489  0.00  0.00    +0.000 A 
ENDROOT
BRANCH   3  13
ATOM     13  C   UNL     1       1.163   8.848  18.584  0.00  0.00    +0.000 A 
ATOM     14  C   UNL     1       0.249   9.073  17.554  0.00  0.00    +0.000 A 
ATOM     15  C   UNL     1      -0.839   9.955  17.722  0.00  0.00    +0.000 A 
ATOM     16  C   UNL     1      -1.072  10.673  18.913  0.00  0.00    +0.000 A 
ATOM     17  C   UNL     1      -0.146  10.431  19.917  0.00  0.00    +0.000 A 
ATOM     18  C   UNL     1       0.940   9.549  19.770  0.00  0.00    +0.000 A 
ATOM     19  S   UNL     1      -0.264  11.208  21.472  0.00  0.00    +0.000 S 
ATOM     20  O   UNL     1       0.998  11.895  21.685  0.00  0.00    +0.000 OA
ATOM     21  O   UNL     1      -0.718  10.195  22.410  0.00  0.00    +0.000 OA
ATOM     22  C   UNL     1      -1.486  12.430  21.376  0.00  0.00    +0.000 C 
ATOM     23  C   UNL     1      -2.394  12.413  20.185  0.00  0.00    +0.000 C 
ATOM     24  N   UNL     1      -2.148  11.522  19.055  0.00  0.00    +0.000 N 
ATOM     25  C   UNL     1      -3.114  11.670  17.956  0.00  0.00    +0.000 C 
ENDBRANCH   3  13
BRANCH   1  26
ATOM     26  N   UNL     1       3.286   5.071  20.472  0.00  0.00    +0.000 N 
ATOM     27  H   UNL     1       3.941   4.300  20.281  0.00  0.00    +0.000 HD
BRANCH  26  28
ATOM     28  C   UNL     1       1.991   4.545  20.912  0.00  0.00    +0.000 C 
BRANCH  28  29
ATOM     29  C   UNL     1       1.445   3.516  19.911  0.00  0.00    +0.000 C 
BRANCH  29  31
ATOM     30  C   UNL     1       2.523   2.215  18.256  0.00  0.00    +0.000 C 
ATOM     31  O   UNL     1       2.465   2.544  19.636  0.00  0.00    +0.000 OA
ENDBRANCH  29  31
ENDBRANCH  28  29
ENDBRANCH  26  28
ENDBRANCH   1  26
TORSDOF 5
ENDMDL
MODEL 8
REMARK VINA RESULT:      -7.9      1.005      1.127
REMARK  Name = 
REMARK  8 active torsions:
REMARK  status: ('A' for Active; 'I' for Inactive)
REMARK    1  A    between atoms: C_1  and  O_2
REMARK    2  A    between atoms: O_2  and  C_3
REMARK    3  A    between atoms: C_3  and  C_4
REMARK    4  A    between atoms: C_4  and  N_5
REMARK    5  A    between atoms: N_5  and  C_6
REMARK    6  A    between atoms: C_8  and  C_9
REMARK    7  A    between atoms: N_20  and  C_21
REMARK    8  A    between atoms: N_26  and  C_27
REMARK                            x       y       z     vdW  Elec       q    Type
REMARK                         _______ _______ _______ _____ _____    ______ ____
ROOT
ATOM      1  C   UNL     1       2.729   5.381  18.440  0.00  0.00    +0.000 A 
ATOM      2  N   UNL     1       2.032   6.471  18.832  0.00  0.00    +0.000 NA
ATOM      3  C   UNL     1       2.355   7.706  18.370  0.00  0.00    +0.000 A 
ATOM      4  C   UNL     1       3.398   7.892  17.479  0.00  0.00    +0.000 A 
ATOM      5  C   UNL     1       4.099   6.779  17.030  0.00  0.00    +0.000 A 
ATOM      6  N   UNL     1       5.102   6.990  16.071  0.00  0.00    +0.000 NA
ATOM      7  C   UNL     1       5.736   5.955  15.635  0.00  0.00    +0.000 A 
ATOM      8  N   UNL     1       5.513   4.669  16.054  0.00  0.00    +0.000 N 
ATOM      9  C   UNL     1       6.288   3.576  15.504  0.00  0.00    +0.000 C 
ATOM     10  C   UNL     1       4.523   4.363  16.983  0.00  0.00    +0.000 A 
ATOM     11  O   UNL     1       4.251   3.214  17.308  0.00  0.00    +0.000 OA
ATOM     12  C   UNL     1       3.772   5.516  17.526  0.00  0.00    +0.000 A 
ENDROOT
BRANCH   3  13
ATOM     13  C   UNL     1       1.528   8.803  18.897  0.00  0.00    +0.000 A 
ATOM     14  C   UNL     1       1.056   9.863  18.122  0.00  0.00    +0.000 A 
ATOM     15  C   UNL     1       0.236  10.867  18.679  0.00  0.00    +0.000 A 
ATOM     16  C   UNL     1      -0.148  10.883  20.035  0.00  0.00    +0.000 A 
ATOM     17  C   UNL     1       0.338   9.819  20.780  0.00  0.00    +0.000 A 
ATOM     18  C   UNL     1       1.150   8.804  20.240  0.00  0.00    +0.000 A 
ATOM     19  S   UNL     1      -0.034   9.646  22.474  0.00  0.00    +0.000 S 
ATOM     20  O   UNL     1       1.238   9.571  23.169  0.00  0.00    +0.000 OA
ATOM     21  O   UNL     1      -0.996   8.561  22.580  0.00  0.00    +0.000 OA
ATOM     22  C   UNL     1      -0.810  11.098  23.009  0.00  0.00    +0.000 C 
ATOM     23  C   UNL     1      -1.291  12.056  21.963  0.00  0.00    +0.000 C 
ATOM     24  N   UNL     1      -0.958  11.871  20.553  0.00  0.00    +0.000 N 
ATOM     25  C   UNL     1      -1.477  12.928  19.673  0.00  0.00    +0.000 C 
ENDBRANCH   3  13
BRANCH   1  26
ATOM     26  N   UNL     1       2.450   4.171  19.081  0.00  0.00    +0.000 N 
ATOM     27  H   UNL     1       1.530   3.810  18.793  0.00  0.00    +0.000 HD
BRANCH  26  28
ATOM     28  C   UNL     1       2.578   4.140  20.541  0.00  0.00    +0.000 C 
BRANCH  28  29
ATOM     29  C   UNL     1       2.728   2.699  21.050  0.00  0.00    +0.000 C 
BRANCH  29  31
ATOM     30  C   UNL     1       4.885   1.852  20.582  0.00  0.00    +0.000 C 
ATOM     31  O   UNL     1       3.544   1.960  20.130  0.00  0.00    +0.000 OA
ENDBRANCH  29  31
ENDBRANCH  28  29
ENDBRANCH  26  28
ENDBRANCH   1  26
TORSDOF 5
ENDMDL
MODEL 9
REMARK VINA RESULT:      -7.7      2.158      2.613
REMARK  Name = 
REMARK  8 active torsions:
REMARK  status: ('A' for Active; 'I' for Inactive)
REMARK    1  A    between atoms: C_1  and  O_2
REMARK    2  A    between atoms: O_2  and  C_3
REMARK    3  A    between atoms: C_3  and  C_4
REMARK    4  A    between atoms: C_4  and  N_5
REMARK    5  A    between atoms: N_5  and  C_6
REMARK    6  A    between atoms: C_8  and  C_9
REMARK    7  A    between atoms: N_20  and  C_21
REMARK    8  A    between atoms: N_26  and  C_27
REMARK                            x       y       z     vdW  Elec       q    Type
REMARK                         _______ _______ _______ _____ _____    ______ ____
ROOT
ATOM      1  C   UNL     1       2.780   6.247  19.586  0.00  0.00    +0.000 A 
ATOM      2  N   UNL     1       1.909   7.243  19.861  0.00  0.00    +0.000 NA
ATOM      3  C   UNL     1       1.826   8.334  19.057  0.00  0.00    +0.000 A 
ATOM      4  C   UNL     1       2.618   8.461  17.929  0.00  0.00    +0.000 A 
ATOM      5  C   UNL     1       3.489   7.428  17.606  0.00  0.00    +0.000 A 
ATOM      6  N   UNL     1       4.227   7.550  16.417  0.00  0.00    +0.000 NA
ATOM      7  C   UNL     1       5.016   6.580  16.104  0.00  0.00    +0.000 A 
ATOM      8  N   UNL     1       5.200   5.449  16.855  0.00  0.00    +0.000 N 
ATOM      9  C   UNL     1       6.120   4.420  16.416  0.00  0.00    +0.000 C 
ATOM     10  C   UNL     1       4.495   5.232  18.035  0.00  0.00    +0.000 A 
ATOM     11  O   UNL     1       4.582   4.192  18.678  0.00  0.00    +0.000 OA
ATOM     12  C   UNL     1       3.582   6.319  18.449  0.00  0.00    +0.000 A 
ENDROOT
BRANCH   3  13
ATOM     13  C   UNL     1       0.851   9.350  19.486  0.00  0.00    +0.000 A 
ATOM     14  C   UNL     1       0.981  10.110  20.649  0.00  0.00    +0.000 A 
ATOM     15  C   UNL     1       0.029  11.095  20.987  0.00  0.00    +0.000 A 
ATOM     16  C   UNL     1      -1.109  11.369  20.202  0.00  0.00    +0.000 A 
ATOM     17  C   UNL     1      -1.212  10.596  19.055  0.00  0.00    +0.000 A 
ATOM     18  C   UNL     1      -0.269   9.615  18.697  0.00  0.00    +0.000 A 
ATOM     19  S   UNL     1      -2.539  10.789  17.941  0.00  0.00    +0.000 S 
ATOM     20  O   UNL     1      -3.164   9.484  17.817  0.00  0.00    +0.000 OA
ATOM     21  O   UNL     1      -2.004  11.463  16.770  0.00  0.00    +0.000 OA
ATOM     22  C   UNL     1      -3.709  11.835  18.670  0.00  0.00    +0.000 C 
ATOM     23  C   UNL     1      -3.295  12.602  19.888  0.00  0.00    +0.000 C 
ATOM     24  N   UNL     1      -2.020  12.343  20.551  0.00  0.00    +0.000 N 
ATOM     25  C   UNL     1      -1.797  13.157  21.755  0.00  0.00    +0.000 C 
ENDBRANCH   3  13
BRANCH   1  26
ATOM     26  N   UNL     1       2.930   5.239  20.543  0.00  0.00    +0.000 N 
ATOM     27  H   UNL     1       3.654   4.566  20.253  0.00  0.00    +0.000 HD
BRANCH  26  28
ATOM     28  C   UNL     1       1.718   4.534  20.970  0.00  0.00    +0.000 C 
BRANCH  28  29
ATOM     29  C   UNL     1       2.015   3.056  21.261  0.00  0.00    +0.000 C 
BRANCH  29  31
ATOM     30  C   UNL     1       1.103   2.507  19.149  0.00  0.00    +0.000 C 
ATOM     31  O   UNL     1       2.216   2.365  20.019  0.00  0.00    +0.000 OA
ENDBRANCH  29  31
ENDBRANCH  28  29
ENDBRANCH  26  28
ENDBRANCH   1  26
TORSDOF 5
ENDMDL
