MODEL 1
REMARK VINA RESULT:      -6.6      0.000      0.000
REMARK  Name = 
REMARK  9 active torsions:
REMARK  status: ('A' for Active; 'I' for Inactive)
REMARK    1  A    between atoms: C_1  and  N_2
REMARK    2  A    between atoms: N_2  and  C_3
REMARK    3  A    between atoms: C_3  and  C_4
REMARK    4  A    between atoms: C_4  and  N_5
REMARK    5  A    between atoms: C_6  and  C_8
REMARK    6  A    between atoms: C_9  and  C_10
REMARK    7  A    between atoms: C_11  and  C_12
REMARK    8  A    between atoms: C_14  and  C_15
REMARK    9  A    between atoms: C_16  and  C_17
REMARK                            x       y       z     vdW  Elec       q    Type
REMARK                         _______ _______ _______ _____ _____    ______ ____
ROOT
ATOM      1  C   UNL     1       3.566   4.665  18.819  0.00  0.00    +0.000 A 
ATOM      2  C   UNL     1       3.046   5.983  19.010  0.00  0.00    +0.000 A 
ATOM      3  C   UNL     1       3.376   7.142  18.107  0.00  0.00    +0.000 C 
ATOM      4  C   UNL     1       2.158   6.216  20.092  0.00  0.00    +0.000 A 
ATOM      5  C   UNL     1       1.555   7.562  20.407  0.00  0.00    +0.000 C 
ATOM      6  C   UNL     1       1.756   5.149  20.905  0.00  0.00    +0.000 A 
ATOM      7  C   UNL     1       2.217   3.844  20.701  0.00  0.00    +0.000 A 
ATOM      8  C   UNL     1       1.691   2.761  21.607  0.00  0.00    +0.000 C 
ATOM      9  C   UNL     1       3.143   3.592  19.660  0.00  0.00    +0.000 A 
ATOM     10  C   UNL     1       3.651   2.182  19.443  0.00  0.00    +0.000 C 
ENDROOT
BRANCH   1  12
ATOM     11  N   UNL     1       5.860   4.568  17.908  0.00  0.00    +0.000 N 
ATOM     12  C   UNL     1       4.512   4.362  17.679  0.00  0.00    +0.000 C 
ATOM     13  O   UNL     1       4.088   3.947  16.611  0.00  0.00    +0.000 OA
ATOM     14  H   UNL     1       6.184   4.711  18.853  0.00  0.00    +0.000 HD
BRANCH  11  15
ATOM     15  C   UNL     1       6.860   4.360  16.868  0.00  0.00    +0.000 C 
BRANCH  15  16
ATOM     16  C   UNL     1       7.051   5.590  15.963  0.00  0.00    +0.000 C 
BRANCH  16  18
ATOM     17  C   UNL     1       6.501   4.264  14.022  0.00  0.00    +0.000 C 
ATOM     18  N   UNL     1       7.443   5.220  14.594  0.00  0.00    +0.000 NA
ATOM     19  H   UNL     1       7.447   6.057  14.015  0.00  0.00    +0.000 HD
ENDBRANCH  16  18
ENDBRANCH  15  16
ENDBRANCH  11  15
ENDBRANCH   1  12
TORSDOF 4
ENDMDL
MODEL 2
REMARK VINA RESULT:      -6.5      0.343      2.745
REMARK  Name = 
REMARK  9 active torsions:
REMARK  status: ('A' for Active; 'I' for Inactive)
REMARK    1  A    between atoms: C_1  and  N_2
REMARK    2  A    between atoms: N_2  and  C_3
REMARK    3  A    between atoms: C_3  and  C_4
REMARK    4  A    between atoms: C_4  and  N_5
REMARK    5  A    between atoms: C_6  and  C_8
REMARK    6  A    between atoms: C_9  and  C_10
REMARK    7  A    between atoms: C_11  and  C_12
REMARK    8  A    between atoms: C_14  and  C_15
REMARK    9  A    between atoms: C_16  and  C_17
REMARK                            x       y       z     vdW  Elec       q    Type
REMARK                         _______ _______ _______ _____ _____    ______ ____
ROOT
ATOM      1  C   UNL     1       3.603   4.635  18.784  0.00  0.00    +0.000 A 
ATOM      2  C   UNL     1       3.183   3.599  19.675  0.00  0.00    +0.000 A 
ATOM      3  C   UNL     1       3.714   2.191  19.616  0.00  0.00    +0.000 C 
ATOM      4  C   UNL     1       2.232   3.909  20.681  0.00  0.00    +0.000 A 
ATOM      5  C   UNL     1       1.698   2.901  21.669  0.00  0.00    +0.000 C 
ATOM      6  C   UNL     1       1.775   5.224  20.827  0.00  0.00    +0.000 A 
ATOM      7  C   UNL     1       2.214   6.260  19.994  0.00  0.00    +0.000 A 
ATOM      8  C   UNL     1       1.692   7.648  20.262  0.00  0.00    +0.000 C 
ATOM      9  C   UNL     1       3.125   5.970  18.951  0.00  0.00    +0.000 A 
ATOM     10  C   UNL     1       3.595   7.087  18.043  0.00  0.00    +0.000 C 
ENDROOT
BRANCH   1  12
ATOM     11  N   UNL     1       5.947   4.587  18.005  0.00  0.00    +0.000 N 
ATOM     12  C   UNL     1       4.618   4.360  17.697  0.00  0.00    +0.000 C 
ATOM     13  O   UNL     1       4.264   3.949  16.603  0.00  0.00    +0.000 OA
ATOM     14  H   UNL     1       6.215   4.726  18.968  0.00  0.00    +0.000 HD
BRANCH  11  15
ATOM     15  C   UNL     1       7.008   4.408  17.022  0.00  0.00    +0.000 C 
BRANCH  15  16
ATOM     16  C   UNL     1       7.166   5.615  16.080  0.00  0.00    +0.000 C 
BRANCH  16  18
ATOM     17  C   UNL     1       6.633   4.441  14.040  0.00  0.00    +0.000 C 
ATOM     18  N   UNL     1       6.262   5.541  14.922  0.00  0.00    +0.000 NA
ATOM     19  H   UNL     1       5.313   5.382  15.256  0.00  0.00    +0.000 HD
ENDBRANCH  16  18
ENDBRANCH  15  16
ENDBRANCH  11  15
ENDBRANCH   1  12
TORSDOF 4
ENDMDL
MODEL 3
REMARK VINA RESULT:      -6.4      1.352      3.093
REMARK  Name = 
REMARK  9 active torsions:
REMARK  status: ('A' for Active; 'I' for Inactive)
REMARK    1  A    between atoms: C_1  and  N_2
REMARK    2  A    between atoms: N_2  and  C_3
REMARK    3  A    between atoms: C_3  and  C_4
REMARK    4  A    between atoms: C_4  and  N_5
REMARK    5  A    between atoms: C_6  and  C_8
REMARK    6  A    between atoms: C_9  and  C_10
REMARK    7  A    between atoms: C_11  and  C_12
REMARK    8  A    between atoms: C_14  and  C_15
REMARK    9  A    between atoms: C_16  and  C_17
REMARK                            x       y       z     vdW  Elec       q    Type
REMARK                         _______ _______ _______ _____ _____    ______ ____
ROOT
ATOM      1  C   UNL     1       4.083   4.696  18.849  0.00  0.00    +0.000 A 
ATOM      2  C   UNL     1       3.606   3.717  19.775  0.00  0.00    +0.000 A 
ATOM      3  C   UNL     1       4.215   2.346  19.915  0.00  0.00    +0.000 C 
ATOM      4  C   UNL     1       2.519   4.050  20.622  0.00  0.00    +0.000 A 
ATOM      5  C   UNL     1       1.916   3.101  21.627  0.00  0.00    +0.000 C 
ATOM      6  C   UNL     1       1.979   5.342  20.585  0.00  0.00    +0.000 A 
ATOM      7  C   UNL     1       2.466   6.327  19.720  0.00  0.00    +0.000 A 
ATOM      8  C   UNL     1       1.841   7.697  19.789  0.00  0.00    +0.000 C 
ATOM      9  C   UNL     1       3.518   6.007  18.829  0.00  0.00    +0.000 A 
ATOM     10  C   UNL     1       4.041   7.069  17.884  0.00  0.00    +0.000 C 
ENDROOT
BRANCH   1  12
ATOM     11  N   UNL     1       4.945   4.156  16.598  0.00  0.00    +0.000 N 
ATOM     12  C   UNL     1       5.243   4.394  17.927  0.00  0.00    +0.000 C 
ATOM     13  O   UNL     1       6.388   4.371  18.352  0.00  0.00    +0.000 OA
ATOM     14  H   UNL     1       4.025   4.384  16.249  0.00  0.00    +0.000 HD
BRANCH  11  15
ATOM     15  C   UNL     1       5.973   3.803  15.627  0.00  0.00    +0.000 C 
BRANCH  15  16
ATOM     16  C   UNL     1       5.585   4.162  14.181  0.00  0.00    +0.000 C 
BRANCH  16  18
ATOM     17  C   UNL     1       5.566   3.121  12.004  0.00  0.00    +0.000 C 
ATOM     18  N   UNL     1       6.365   3.405  13.190  0.00  0.00    +0.000 NA
ATOM     19  H   UNL     1       7.172   3.961  12.912  0.00  0.00    +0.000 HD
ENDBRANCH  16  18
ENDBRANCH  15  16
ENDBRANCH  11  15
ENDBRANCH   1  12
TORSDOF 4
ENDMDL
MODEL 4
REMARK VINA RESULT:      -6.4      1.996      3.655
REMARK  Name = 
REMARK  9 active torsions:
REMARK  status: ('A' for Active; 'I' for Inactive)
REMARK    1  A    between atoms: C_1  and  N_2
REMARK    2  A    between atoms: N_2  and  C_3
REMARK    3  A    between atoms: C_3  and  C_4
REMARK    4  A    between atoms: C_4  and  N_5
REMARK    5  A    between atoms: C_6  and  C_8
REMARK    6  A    between atoms: C_9  and  C_10
REMARK    7  A    between atoms: C_11  and  C_12
REMARK    8  A    between atoms: C_14  and  C_15
REMARK    9  A    between atoms: C_16  and  C_17
REMARK                            x       y       z     vdW  Elec       q    Type
REMARK                         _______ _______ _______ _____ _____    ______ ____
ROOT
ATOM      1  C   UNL     1       4.092   4.635  17.236  0.00  0.00    +0.000 A 
ATOM      2  C   UNL     1       3.264   3.593  17.755  0.00  0.00    +0.000 A 
ATOM      3  C   UNL     1       3.555   2.128  17.558  0.00  0.00    +0.000 C 
ATOM      4  C   UNL     1       2.117   3.945  18.513  0.00  0.00    +0.000 A 
ATOM      5  C   UNL     1       1.158   2.939  19.100  0.00  0.00    +0.000 C 
ATOM      6  C   UNL     1       1.855   5.291  18.794  0.00  0.00    +0.000 A 
ATOM      7  C   UNL     1       2.684   6.321  18.335  0.00  0.00    +0.000 A 
ATOM      8  C   UNL     1       2.335   7.734  18.728  0.00  0.00    +0.000 C 
ATOM      9  C   UNL     1       3.806   6.002  17.535  0.00  0.00    +0.000 A 
ATOM     10  C   UNL     1       4.699   7.115  17.029  0.00  0.00    +0.000 C 
ENDROOT
BRANCH   1  12
ATOM     11  N   UNL     1       5.180   4.236  15.054  0.00  0.00    +0.000 N 
ATOM     12  C   UNL     1       5.328   4.314  16.426  0.00  0.00    +0.000 C 
ATOM     13  O   UNL     1       6.406   4.140  16.976  0.00  0.00    +0.000 OA
ATOM     14  H   UNL     1       4.333   4.585  14.628  0.00  0.00    +0.000 HD
BRANCH  11  15
ATOM     15  C   UNL     1       6.288   3.883  14.176  0.00  0.00    +0.000 C 
BRANCH  15  16
ATOM     16  C   UNL     1       5.842   3.593  12.731  0.00  0.00    +0.000 C 
BRANCH  16  18
ATOM     17  C   UNL     1       5.851   1.623  11.337  0.00  0.00    +0.000 C 
ATOM     18  N   UNL     1       6.674   2.565  12.087  0.00  0.00    +0.000 NA
ATOM     19  H   UNL     1       7.316   3.019  11.441  0.00  0.00    +0.000 HD
ENDBRANCH  16  18
ENDBRANCH  15  16
ENDBRANCH  11  15
ENDBRANCH   1  12
TORSDOF 4
ENDMDL
MODEL 5
REMARK VINA RESULT:      -6.3      1.354      1.455
REMARK  Name = 
REMARK  9 active torsions:
REMARK  status: ('A' for Active; 'I' for Inactive)
REMARK    1  A    between atoms: C_1  and  N_2
REMARK    2  A    between atoms: N_2  and  C_3
REMARK    3  A    between atoms: C_3  and  C_4
REMARK    4  A    between atoms: C_4  and  N_5
REMARK    5  A    between atoms: C_6  and  C_8
REMARK    6  A    between atoms: C_9  and  C_10
REMARK    7  A    between atoms: C_11  and  C_12
REMARK    8  A    between atoms: C_14  and  C_15
REMARK    9  A    between atoms: C_16  and  C_17
REMARK                            x       y       z     vdW  Elec       q    Type
REMARK                         _______ _______ _______ _____ _____    ______ ____
ROOT
ATOM      1  C   UNL     1       4.147   4.766  18.814  0.00  0.00    +0.000 A 
ATOM      2  C   UNL     1       3.583   6.078  18.775  0.00  0.00    +0.000 A 
ATOM      3  C   UNL     1       4.058   7.154  17.834  0.00  0.00    +0.000 C 
ATOM      4  C   UNL     1       2.510   6.387  19.649  0.00  0.00    +0.000 A 
ATOM      5  C   UNL     1       1.842   7.738  19.713  0.00  0.00    +0.000 C 
ATOM      6  C   UNL     1       1.980   5.392  20.479  0.00  0.00    +0.000 A 
ATOM      7  C   UNL     1       2.488   4.088  20.494  0.00  0.00    +0.000 A 
ATOM      8  C   UNL     1       1.819   3.082  21.395  0.00  0.00    +0.000 C 
ATOM      9  C   UNL     1       3.592   3.766  19.669  0.00  0.00    +0.000 A 
ATOM     10  C   UNL     1       4.149   2.358  19.690  0.00  0.00    +0.000 C 
ENDROOT
BRANCH   1  12
ATOM     11  N   UNL     1       4.972   4.070  16.592  0.00  0.00    +0.000 N 
ATOM     12  C   UNL     1       5.289   4.383  17.900  0.00  0.00    +0.000 C 
ATOM     13  O   UNL     1       6.439   4.362  18.314  0.00  0.00    +0.000 OA
ATOM     14  H   UNL     1       4.053   4.296  16.239  0.00  0.00    +0.000 HD
BRANCH  11  15
ATOM     15  C   UNL     1       5.981   3.637  15.634  0.00  0.00    +0.000 C 
BRANCH  15  16
ATOM     16  C   UNL     1       5.739   4.182  14.215  0.00  0.00    +0.000 C 
BRANCH  16  18
ATOM     17  C   UNL     1       7.006   4.009  12.168  0.00  0.00    +0.000 C 
ATOM     18  N   UNL     1       6.247   3.275  13.175  0.00  0.00    +0.000 NA
ATOM     19  H   UNL     1       6.863   2.590  13.609  0.00  0.00    +0.000 HD
ENDBRANCH  16  18
ENDBRANCH  15  16
ENDBRANCH  11  15
ENDBRANCH   1  12
TORSDOF 4
ENDMDL
MODEL 6
REMARK VINA RESULT:      -6.3      1.102      3.058
REMARK  Name = 
REMARK  9 active torsions:
REMARK  status: ('A' for Active; 'I' for Inactive)
REMARK    1  A    between atoms: C_1  and  N_2
REMARK    2  A    between atoms: N_2  and  C_3
REMARK    3  A    between atoms: C_3  and  C_4
REMARK    4  A    between atoms: C_4  and  N_5
REMARK    5  A    between atoms: C_6  and  C_8
REMARK    6  A    between atoms: C_9  and  C_10
REMARK    7  A    between atoms: C_11  and  C_12
REMARK    8  A    between atoms: C_14  and  C_15
REMARK    9  A    between atoms: C_16  and  C_17
REMARK                            x       y       z     vdW  Elec       q    Type
REMARK                         _______ _______ _______ _____ _____    ______ ____
ROOT
ATOM      1  C   UNL     1       3.848   4.500  19.063  0.00  0.00    +0.000 A 
ATOM      2  C   UNL     1       3.355   3.441  19.886  0.00  0.00    +0.000 A 
ATOM      3  C   UNL     1       3.952   2.058  19.901  0.00  0.00    +0.000 C 
ATOM      4  C   UNL     1       2.260   3.701  20.749  0.00  0.00    +0.000 A 
ATOM      5  C   UNL     1       1.639   2.664  21.653  0.00  0.00    +0.000 C 
ATOM      6  C   UNL     1       1.728   4.993  20.830  0.00  0.00    +0.000 A 
ATOM      7  C   UNL     1       2.232   6.053  20.068  0.00  0.00    +0.000 A 
ATOM      8  C   UNL     1       1.616   7.415  20.261  0.00  0.00    +0.000 C 
ATOM      9  C   UNL     1       3.292   5.811  19.162  0.00  0.00    +0.000 A 
ATOM     10  C   UNL     1       3.833   6.954  18.329  0.00  0.00    +0.000 C 
ENDROOT
BRANCH   1  12
ATOM     11  N   UNL     1       4.730   4.135  16.784  0.00  0.00    +0.000 N 
ATOM     12  C   UNL     1       5.017   4.278  18.129  0.00  0.00    +0.000 C 
ATOM     13  O   UNL     1       6.160   4.235  18.559  0.00  0.00    +0.000 OA
ATOM     14  H   UNL     1       3.810   4.380  16.447  0.00  0.00    +0.000 HD
BRANCH  11  15
ATOM     15  C   UNL     1       5.767   3.865  15.797  0.00  0.00    +0.000 C 
BRANCH  15  16
ATOM     16  C   UNL     1       6.395   5.146  15.218  0.00  0.00    +0.000 C 
BRANCH  16  18
ATOM     17  C   UNL     1       7.236   6.823  16.738  0.00  0.00    +0.000 C 
ATOM     18  N   UNL     1       7.553   5.603  16.003  0.00  0.00    +0.000 NA
ATOM     19  H   UNL     1       7.803   4.878  16.673  0.00  0.00    +0.000 HD
ENDBRANCH  16  18
ENDBRANCH  15  16
ENDBRANCH  11  15
ENDBRANCH   1  12
TORSDOF 4
ENDMDL
MODEL 7
REMARK VINA RESULT:      -6.3      0.936      1.385
REMARK  Name = 
REMARK  9 active torsions:
REMARK  status: ('A' for Active; 'I' for Inactive)
REMARK    1  A    between atoms: C_1  and  N_2
REMARK    2  A    between atoms: N_2  and  C_3
REMARK    3  A    between atoms: C_3  and  C_4
REMARK    4  A    between atoms: C_4  and  N_5
REMARK    5  A    between atoms: C_6  and  C_8
REMARK    6  A    between atoms: C_9  and  C_10
REMARK    7  A    between atoms: C_11  and  C_12
REMARK    8  A    between atoms: C_14  and  C_15
REMARK    9  A    between atoms: C_16  and  C_17
REMARK                            x       y       z     vdW  Elec       q    Type
REMARK                         _______ _______ _______ _____ _____    ______ ____
ROOT
ATOM      1  C   UNL     1       3.531   4.640  18.847  0.00  0.00    +0.000 A 
ATOM      2  C   UNL     1       2.989   5.945  19.063  0.00  0.00    +0.000 A 
ATOM      3  C   UNL     1       3.298   7.125  18.179  0.00  0.00    +0.000 C 
ATOM      4  C   UNL     1       2.101   6.144  20.150  0.00  0.00    +0.000 A 
ATOM      5  C   UNL     1       1.477   7.475  20.491  0.00  0.00    +0.000 C 
ATOM      6  C   UNL     1       1.720   5.057  20.946  0.00  0.00    +0.000 A 
ATOM      7  C   UNL     1       2.203   3.764  20.718  0.00  0.00    +0.000 A 
ATOM      8  C   UNL     1       1.697   2.657  21.607  0.00  0.00    +0.000 C 
ATOM      9  C   UNL     1       3.129   3.545  19.671  0.00  0.00    +0.000 A 
ATOM     10  C   UNL     1       3.660   2.148  19.428  0.00  0.00    +0.000 C 
ENDROOT
BRANCH   1  12
ATOM     11  N   UNL     1       5.824   4.597  17.928  0.00  0.00    +0.000 N 
ATOM     12  C   UNL     1       4.479   4.372  17.700  0.00  0.00    +0.000 C 
ATOM     13  O   UNL     1       4.059   3.969  16.626  0.00  0.00    +0.000 OA
ATOM     14  H   UNL     1       6.149   4.729  18.875  0.00  0.00    +0.000 HD
BRANCH  11  15
ATOM     15  C   UNL     1       6.824   4.424  16.883  0.00  0.00    +0.000 C 
BRANCH  15  16
ATOM     16  C   UNL     1       7.062   5.704  16.060  0.00  0.00    +0.000 C 
BRANCH  16  18
ATOM     17  C   UNL     1       7.647   7.536  17.518  0.00  0.00    +0.000 C 
ATOM     18  N   UNL     1       6.577   6.909  16.750  0.00  0.00    +0.000 NA
ATOM     19  H   UNL     1       6.244   7.574  16.055  0.00  0.00    +0.000 HD
ENDBRANCH  16  18
ENDBRANCH  15  16
ENDBRANCH  11  15
ENDBRANCH   1  12
TORSDOF 4
ENDMDL
MODEL 8
REMARK VINA RESULT:      -6.3      1.100      1.384
REMARK  Name = 
REMARK  9 active torsions:
REMARK  status: ('A' for Active; 'I' for Inactive)
REMARK    1  A    between atoms: C_1  and  N_2
REMARK    2  A    between atoms: N_2  and  C_3
REMARK    3  A    between atoms: C_3  and  C_4
REMARK    4  A    between atoms: C_4  and  N_5
REMARK    5  A    between atoms: C_6  and  C_8
REMARK    6  A    between atoms: C_9  and  C_10
REMARK    7  A    between atoms: C_11  and  C_12
REMARK    8  A    between atoms: C_14  and  C_15
REMARK    9  A    between atoms: C_16  and  C_17
REMARK                            x       y       z     vdW  Elec       q    Type
REMARK                         _______ _______ _______ _____ _____    ______ ____
ROOT
ATOM      1  C   UNL     1       3.886   4.596  19.142  0.00  0.00    +0.000 A 
ATOM      2  C   UNL     1       3.298   5.896  19.218  0.00  0.00    +0.000 A 
ATOM      3  C   UNL     1       3.744   7.057  18.368  0.00  0.00    +0.000 C 
ATOM      4  C   UNL     1       2.226   6.108  20.123  0.00  0.00    +0.000 A 
ATOM      5  C   UNL     1       1.534   7.436  20.307  0.00  0.00    +0.000 C 
ATOM      6  C   UNL     1       1.723   5.036  20.871  0.00  0.00    +0.000 A 
ATOM      7  C   UNL     1       2.256   3.746  20.771  0.00  0.00    +0.000 A 
ATOM      8  C   UNL     1       1.614   2.655  21.589  0.00  0.00    +0.000 C 
ATOM      9  C   UNL     1       3.358   3.517  19.913  0.00  0.00    +0.000 A 
ATOM     10  C   UNL     1       3.942   2.123  19.811  0.00  0.00    +0.000 C 
ENDROOT
BRANCH   1  12
ATOM     11  N   UNL     1       4.712   4.177  16.852  0.00  0.00    +0.000 N 
ATOM     12  C   UNL     1       5.028   4.314  18.191  0.00  0.00    +0.000 C 
ATOM     13  O   UNL     1       6.174   4.221  18.603  0.00  0.00    +0.000 OA
ATOM     14  H   UNL     1       3.799   4.461  16.528  0.00  0.00    +0.000 HD
BRANCH  11  15
ATOM     15  C   UNL     1       5.720   3.853  15.850  0.00  0.00    +0.000 C 
BRANCH  15  16
ATOM     16  C   UNL     1       6.366   5.100  15.221  0.00  0.00    +0.000 C 
BRANCH  16  18
ATOM     17  C   UNL     1       7.209   6.787  16.728  0.00  0.00    +0.000 C 
ATOM     18  N   UNL     1       7.530   5.572  15.986  0.00  0.00    +0.000 NA
ATOM     19  H   UNL     1       7.801   4.850  16.651  0.00  0.00    +0.000 HD
ENDBRANCH  16  18
ENDBRANCH  15  16
ENDBRANCH  11  15
ENDBRANCH   1  12
TORSDOF 4
ENDMDL
MODEL 9
REMARK VINA RESULT:      -6.3      0.945      3.061
REMARK  Name = 
REMARK  9 active torsions:
REMARK  status: ('A' for Active; 'I' for Inactive)
REMARK    1  A    between atoms: C_1  and  N_2
REMARK    2  A    between atoms: N_2  and  C_3
REMARK    3  A    between atoms: C_3  and  C_4
REMARK    4  A    between atoms: C_4  and  N_5
REMARK    5  A    between atoms: C_6  and  C_8
REMARK    6  A    between atoms: C_9  and  C_10
REMARK    7  A    between atoms: C_11  and  C_12
REMARK    8  A    between atoms: C_14  and  C_15
REMARK    9  A    between atoms: C_16  and  C_17
REMARK                            x       y       z     vdW  Elec       q    Type
REMARK                         _______ _______ _______ _____ _____    ______ ____
ROOT
ATOM      1  C   UNL     1       3.499   4.596  18.772  0.00  0.00    +0.000 A 
ATOM      2  C   UNL     1       3.128   3.529  19.647  0.00  0.00    +0.000 A 
ATOM      3  C   UNL     1       3.689   2.135  19.536  0.00  0.00    +0.000 C 
ATOM      4  C   UNL     1       2.201   3.790  20.688  0.00  0.00    +0.000 A 
ATOM      5  C   UNL     1       1.719   2.745  21.665  0.00  0.00    +0.000 C 
ATOM      6  C   UNL     1       1.719   5.090  20.881  0.00  0.00    +0.000 A 
ATOM      7  C   UNL     1       2.110   6.157  20.064  0.00  0.00    +0.000 A 
ATOM      8  C   UNL     1       1.565   7.525  20.383  0.00  0.00    +0.000 C 
ATOM      9  C   UNL     1       2.996   5.915  18.987  0.00  0.00    +0.000 A 
ATOM     10  C   UNL     1       3.414   7.065  18.096  0.00  0.00    +0.000 C 
ENDROOT
BRANCH   1  12
ATOM     11  N   UNL     1       5.820   4.619  17.926  0.00  0.00    +0.000 N 
ATOM     12  C   UNL     1       4.488   4.373  17.650  0.00  0.00    +0.000 C 
ATOM     13  O   UNL     1       4.110   3.985  16.555  0.00  0.00    +0.000 OA
ATOM     14  H   UNL     1       6.112   4.736  18.886  0.00  0.00    +0.000 HD
BRANCH  11  15
ATOM     15  C   UNL     1       6.856   4.489  16.909  0.00  0.00    +0.000 C 
BRANCH  15  16
ATOM     16  C   UNL     1       7.014   5.754  16.046  0.00  0.00    +0.000 C 
BRANCH  16  18
ATOM     17  C   UNL     1       7.684   7.510  17.560  0.00  0.00    +0.000 C 
ATOM     18  N   UNL     1       6.592   6.970  16.758  0.00  0.00    +0.000 NA
ATOM     19  H   UNL     1       6.316   7.672  16.074  0.00  0.00    +0.000 HD
ENDBRANCH  16  18
ENDBRANCH  15  16
ENDBRANCH  11  15
ENDBRANCH   1  12
TORSDOF 4
ENDMDL
