MODEL 1
REMARK VINA RESULT:      -7.3      0.000      0.000
REMARK  Name = 
REMARK  16 active torsions:
REMARK  status: ('A' for Active; 'I' for Inactive)
REMARK    1  A    between atoms: C_1  and  C_2
REMARK    2  A    between atoms: C_2  and  N_3
REMARK    3  A    between atoms: N_3  and  C_4
REMARK    4  A    between atoms: N_3  and  C_6
REMARK    5  A    between atoms: C_4  and  C_5
REMARK    6  A    between atoms: C_6  and  C_7
REMARK    7  A    between atoms: C_7  and  N_8
REMARK    8  A    between atoms: C_10  and  C_11
REMARK    9  A    between atoms: C_13  and  O_14
REMARK   10  A    between atoms: O_14  and  C_15
REMARK   11  A    between atoms: C_16  and  O_17
REMARK   12  A    between atoms: O_17  and  C_18
REMARK   13  A    between atoms: C_19  and  O_20
REMARK   14  A    between atoms: O_20  and  C_21
REMARK   15  A    between atoms: C_27  and  C_28
REMARK   16  A    between atoms: C_27  and  C_29
REMARK                            x       y       z     vdW  Elec       q    Type
REMARK                         _______ _______ _______ _____ _____    ______ ____
ROOT
ATOM      1  N   UNL     1       3.468   6.539  17.775  0.00  0.00    +0.000 N 
ATOM      2  N   UNL     1       2.981   7.744  18.222  0.00  0.00    +0.000 NA
ATOM      3  C   UNL     1       2.148   7.761  19.222  0.00  0.00    +0.000 C 
ATOM      4  C   UNL     1       1.688   6.519  19.961  0.00  0.00    +0.000 C 
ATOM      5  C   UNL     1       2.183   5.276  19.324  0.00  0.00    +0.000 C 
ATOM      6  C   UNL     1       3.039   5.307  18.288  0.00  0.00    +0.000 C 
ATOM      7  C   UNL     1       3.556   4.019  17.675  0.00  0.00    +0.000 C 
ATOM      8  C   UNL     1       3.437   2.789  18.605  0.00  0.00    +0.000 C 
ATOM      9  C   UNL     1       4.469   2.873  19.752  0.00  0.00    +0.000 C 
ATOM     10  C   UNL     1       3.725   1.516  17.794  0.00  0.00    +0.000 C 
ATOM     11  C   UNL     1       2.012   2.719  19.168  0.00  0.00    +0.000 C 
ATOM     12  C   UNL     1       1.636   4.003  19.867  0.00  0.00    +0.000 C 
ATOM     13  O   UNL     1       0.858   4.016  20.820  0.00  0.00    +0.000 OA
ENDROOT
BRANCH   3  14
ATOM     14  C   UNL     1       1.605   9.081  19.679  0.00  0.00    +0.000 A 
ATOM     15  C   UNL     1       1.042   9.225  20.946  0.00  0.00    +0.000 A 
ATOM     16  C   UNL     1       0.460  10.431  21.334  0.00  0.00    +0.000 A 
ATOM     17  C   UNL     1       0.429  11.518  20.431  0.00  0.00    +0.000 A 
ATOM     18  C   UNL     1       1.018  11.387  19.155  0.00  0.00    +0.000 A 
ATOM     19  C   UNL     1       1.615  10.168  18.801  0.00  0.00    +0.000 A 
BRANCH  16  20
ATOM     20  O   UNL     1      -0.123  10.610  22.566  0.00  0.00    +0.000 OA
ATOM     21  C   UNL     1      -0.052   9.510  23.471  0.00  0.00    +0.000 C 
ENDBRANCH  16  20
BRANCH  17  22
ATOM     22  O   UNL     1      -0.268  12.615  20.884  0.00  0.00    +0.000 OA
ATOM     23  C   UNL     1       0.479  13.666  21.481  0.00  0.00    +0.000 C 
ENDBRANCH  17  22
BRANCH  18  24
ATOM     24  O   UNL     1       0.942  12.451  18.295  0.00  0.00    +0.000 OA
ATOM     25  C   UNL     1       2.080  13.294  18.164  0.00  0.00    +0.000 C 
ENDBRANCH  18  24
ENDBRANCH   3  14
BRANCH   1  26
ATOM     26  C   UNL     1       4.365   6.704  16.608  0.00  0.00    +0.000 C 
BRANCH  26  27
ATOM     27  C   UNL     1       5.839   6.858  17.044  0.00  0.00    +0.000 C 
BRANCH  27  28
ATOM     28  N   UNL     1       6.801   5.934  16.383  0.00  0.00    +0.000 NA
BRANCH  28  30
ATOM     29  C   UNL     1       7.056   5.363  18.835  0.00  0.00    +0.000 C 
ATOM     30  C   UNL     1       7.337   4.987  17.382  0.00  0.00    +0.000 C 
ENDBRANCH  28  30
BRANCH  28  31
ATOM     31  C   UNL     1       6.254   5.282  15.183  0.00  0.00    +0.000 C 
ATOM     32  C   UNL     1       6.203   3.758  15.206  0.00  0.00    +0.000 C 
ENDBRANCH  28  31
ENDBRANCH  27  28
ENDBRANCH  26  27
ENDBRANCH   1  26
TORSDOF 9
ENDMDL
MODEL 2
REMARK VINA RESULT:      -7.3      0.586      2.198
REMARK  Name = 
REMARK  16 active torsions:
REMARK  status: ('A' for Active; 'I' for Inactive)
REMARK    1  A    between atoms: C_1  and  C_2
REMARK    2  A    between atoms: C_2  and  N_3
REMARK    3  A    between atoms: N_3  and  C_4
REMARK    4  A    between atoms: N_3  and  C_6
REMARK    5  A    between atoms: C_4  and  C_5
REMARK    6  A    between atoms: C_6  and  C_7
REMARK    7  A    between atoms: C_7  and  N_8
REMARK    8  A    between atoms: C_10  and  C_11
REMARK    9  A    between atoms: C_13  and  O_14
REMARK   10  A    between atoms: O_14  and  C_15
REMARK   11  A    between atoms: C_16  and  O_17
REMARK   12  A    between atoms: O_17  and  C_18
REMARK   13  A    between atoms: C_19  and  O_20
REMARK   14  A    between atoms: O_20  and  C_21
REMARK   15  A    between atoms: C_27  and  C_28
REMARK   16  A    between atoms: C_27  and  C_29
REMARK                            x       y       z     vdW  Elec       q    Type
REMARK                         _______ _______ _______ _____ _____    ______ ____
ROOT
ATOM      1  N   UNL     1       3.411   6.614  17.811  0.00  0.00    +0.000 N 
ATOM      2  N   UNL     1       2.866   7.793  18.263  0.00  0.00    +0.000 NA
ATOM      3  C   UNL     1       2.016   7.763  19.248  0.00  0.00    +0.000 C 
ATOM      4  C   UNL     1       1.595   6.493  19.963  0.00  0.00    +0.000 C 
ATOM      5  C   UNL     1       2.153   5.280  19.321  0.00  0.00    +0.000 C 
ATOM      6  C   UNL     1       3.026   5.360  18.301  0.00  0.00    +0.000 C 
ATOM      7  C   UNL     1       3.606   4.102  17.682  0.00  0.00    +0.000 C 
ATOM      8  C   UNL     1       3.522   2.857  18.596  0.00  0.00    +0.000 C 
ATOM      9  C   UNL     1       4.529   2.969  19.762  0.00  0.00    +0.000 C 
ATOM     10  C   UNL     1       3.878   1.607  17.774  0.00  0.00    +0.000 C 
ATOM     11  C   UNL     1       2.092   2.720  19.131  0.00  0.00    +0.000 C 
ATOM     12  C   UNL     1       1.651   3.979  19.839  0.00  0.00    +0.000 C 
ATOM     13  O   UNL     1       0.856   3.948  20.777  0.00  0.00    +0.000 OA
ENDROOT
BRANCH   3  14
ATOM     14  C   UNL     1       1.411   9.053  19.710  0.00  0.00    +0.000 A 
ATOM     15  C   UNL     1       1.275  10.133  18.840  0.00  0.00    +0.000 A 
ATOM     16  C   UNL     1       0.791  11.359  19.296  0.00  0.00    +0.000 A 
ATOM     17  C   UNL     1       0.445  11.514  20.657  0.00  0.00    +0.000 A 
ATOM     18  C   UNL     1       0.559  10.418  21.540  0.00  0.00    +0.000 A 
ATOM     19  C   UNL     1       1.028   9.192  21.047  0.00  0.00    +0.000 A 
BRANCH  16  20
ATOM     20  O   UNL     1       0.659  12.455  18.477  0.00  0.00    +0.000 OA
ATOM     21  C   UNL     1      -0.649  12.720  17.973  0.00  0.00    +0.000 C 
ENDBRANCH  16  20
BRANCH  17  22
ATOM     22  O   UNL     1       0.088  12.796  21.012  0.00  0.00    +0.000 OA
ATOM     23  C   UNL     1       1.126  13.679  21.410  0.00  0.00    +0.000 C 
ENDBRANCH  17  22
BRANCH  18  24
ATOM     24  O   UNL     1       0.243  10.613  22.859  0.00  0.00    +0.000 OA
ATOM     25  C   UNL     1      -1.128  10.581  23.236  0.00  0.00    +0.000 C 
ENDBRANCH  18  24
ENDBRANCH   3  14
BRANCH   1  26
ATOM     26  C   UNL     1       4.321   6.832  16.662  0.00  0.00    +0.000 C 
BRANCH  26  27
ATOM     27  C   UNL     1       5.796   6.920  17.116  0.00  0.00    +0.000 C 
BRANCH  27  28
ATOM     28  N   UNL     1       6.729   5.977  16.444  0.00  0.00    +0.000 NA
BRANCH  28  30
ATOM     29  C   UNL     1       7.659   5.626  18.771  0.00  0.00    +0.000 C 
ATOM     30  C   UNL     1       7.249   5.012  17.433  0.00  0.00    +0.000 C 
ENDBRANCH  28  30
BRANCH  28  31
ATOM     31  C   UNL     1       6.157   5.344  15.245  0.00  0.00    +0.000 C 
ATOM     32  C   UNL     1       6.279   3.826  15.159  0.00  0.00    +0.000 C 
ENDBRANCH  28  31
ENDBRANCH  27  28
ENDBRANCH  26  27
ENDBRANCH   1  26
TORSDOF 9
ENDMDL
MODEL 3
REMARK VINA RESULT:      -7.3      0.471      1.364
REMARK  Name = 
REMARK  16 active torsions:
REMARK  status: ('A' for Active; 'I' for Inactive)
REMARK    1  A    between atoms: C_1  and  C_2
REMARK    2  A    between atoms: C_2  and  N_3
REMARK    3  A    between atoms: N_3  and  C_4
REMARK    4  A    between atoms: N_3  and  C_6
REMARK    5  A    between atoms: C_4  and  C_5
REMARK    6  A    between atoms: C_6  and  C_7
REMARK    7  A    between atoms: C_7  and  N_8
REMARK    8  A    between atoms: C_10  and  C_11
REMARK    9  A    between atoms: C_13  and  O_14
REMARK   10  A    between atoms: O_14  and  C_15
REMARK   11  A    between atoms: C_16  and  O_17
REMARK   12  A    between atoms: O_17  and  C_18
REMARK   13  A    between atoms: C_19  and  O_20
REMARK   14  A    between atoms: O_20  and  C_21
REMARK   15  A    between atoms: C_27  and  C_28
REMARK   16  A    between atoms: C_27  and  C_29
REMARK                            x       y       z     vdW  Elec       q    Type
REMARK                         _______ _______ _______ _____ _____    ______ ____
ROOT
ATOM      1  N   UNL     1       3.508   6.193  17.824  0.00  0.00    +0.000 N 
ATOM      2  N   UNL     1       3.002   7.406  18.231  0.00  0.00    +0.000 NA
ATOM      3  C   UNL     1       2.166   7.443  19.227  0.00  0.00    +0.000 C 
ATOM      4  C   UNL     1       1.720   6.219  20.004  0.00  0.00    +0.000 C 
ATOM      5  C   UNL     1       2.235   4.963  19.409  0.00  0.00    +0.000 C 
ATOM      6  C   UNL     1       3.095   4.972  18.375  0.00  0.00    +0.000 C 
ATOM      7  C   UNL     1       3.631   3.673  17.806  0.00  0.00    +0.000 C 
ATOM      8  C   UNL     1       3.527   2.472  18.775  0.00  0.00    +0.000 C 
ATOM      9  C   UNL     1       4.553   2.608  19.922  0.00  0.00    +0.000 C 
ATOM     10  C   UNL     1       3.835   1.178  18.006  0.00  0.00    +0.000 C 
ATOM     11  C   UNL     1       2.100   2.400  19.335  0.00  0.00    +0.000 C 
ATOM     12  C   UNL     1       1.705   3.701  19.992  0.00  0.00    +0.000 C 
ATOM     13  O   UNL     1       0.923   3.733  20.941  0.00  0.00    +0.000 OA
ENDROOT
BRANCH   3  14
ATOM     14  C   UNL     1       1.603   8.769  19.639  0.00  0.00    +0.000 A 
ATOM     15  C   UNL     1       0.866   8.900  20.816  0.00  0.00    +0.000 A 
ATOM     16  C   UNL     1       0.271  10.115  21.151  0.00  0.00    +0.000 A 
ATOM     17  C   UNL     1       0.405  11.225  20.286  0.00  0.00    +0.000 A 
ATOM     18  C   UNL     1       1.168  11.106  19.104  0.00  0.00    +0.000 A 
ATOM     19  C   UNL     1       1.772   9.876  18.805  0.00  0.00    +0.000 A 
BRANCH  16  20
ATOM     20  O   UNL     1      -0.478  10.284  22.291  0.00  0.00    +0.000 OA
ATOM     21  C   UNL     1      -0.069   9.543  23.439  0.00  0.00    +0.000 C 
ENDBRANCH  16  20
BRANCH  17  22
ATOM     22  O   UNL     1      -0.318  12.334  20.666  0.00  0.00    +0.000 OA
ATOM     23  C   UNL     1       0.378  13.366  21.350  0.00  0.00    +0.000 C 
ENDBRANCH  17  22
BRANCH  18  24
ATOM     24  O   UNL     1       1.250  12.192  18.274  0.00  0.00    +0.000 OA
ATOM     25  C   UNL     1       2.480  12.904  18.215  0.00  0.00    +0.000 C 
ENDBRANCH  18  24
ENDBRANCH   3  14
BRANCH   1  26
ATOM     26  C   UNL     1       4.406   6.334  16.655  0.00  0.00    +0.000 C 
BRANCH  26  27
ATOM     27  C   UNL     1       5.892   6.318  17.077  0.00  0.00    +0.000 C 
BRANCH  27  28
ATOM     28  N   UNL     1       6.582   5.007  16.940  0.00  0.00    +0.000 NA
BRANCH  28  30
ATOM     29  C   UNL     1       6.121   3.869  14.728  0.00  0.00    +0.000 C 
ATOM     30  C   UNL     1       7.003   4.818  15.537  0.00  0.00    +0.000 C 
ENDBRANCH  28  30
BRANCH  28  31
ATOM     31  C   UNL     1       7.668   4.814  17.914  0.00  0.00    +0.000 C 
ATOM     32  C   UNL     1       7.608   5.675  19.172  0.00  0.00    +0.000 C 
ENDBRANCH  28  31
ENDBRANCH  27  28
ENDBRANCH  26  27
ENDBRANCH   1  26
TORSDOF 9
ENDMDL
MODEL 4
REMARK VINA RESULT:      -7.2      0.447      2.610
REMARK  Name = 
REMARK  16 active torsions:
REMARK  status: ('A' for Active; 'I' for Inactive)
REMARK    1  A    between atoms: C_1  and  C_2
REMARK    2  A    between atoms: C_2  and  N_3
REMARK    3  A    between atoms: N_3  and  C_4
REMARK    4  A    between atoms: N_3  and  C_6
REMARK    5  A    between atoms: C_4  and  C_5
REMARK    6  A    between atoms: C_6  and  C_7
REMARK    7  A    between atoms: C_7  and  N_8
REMARK    8  A    between atoms: C_10  and  C_11
REMARK    9  A    between atoms: C_13  and  O_14
REMARK   10  A    between atoms: O_14  and  C_15
REMARK   11  A    between atoms: C_16  and  O_17
REMARK   12  A    between atoms: O_17  and  C_18
REMARK   13  A    between atoms: C_19  and  O_20
REMARK   14  A    between atoms: O_20  and  C_21
REMARK   15  A    between atoms: C_27  and  C_28
REMARK   16  A    between atoms: C_27  and  C_29
REMARK                            x       y       z     vdW  Elec       q    Type
REMARK                         _______ _______ _______ _____ _____    ______ ____
ROOT
ATOM      1  N   UNL     1       3.527   6.498  17.669  0.00  0.00    +0.000 N 
ATOM      2  N   UNL     1       2.985   7.709  18.031  0.00  0.00    +0.000 NA
ATOM      3  C   UNL     1       2.096   7.747  18.981  0.00  0.00    +0.000 C 
ATOM      4  C   UNL     1       1.626   6.527  19.750  0.00  0.00    +0.000 C 
ATOM      5  C   UNL     1       2.188   5.271  19.200  0.00  0.00    +0.000 C 
ATOM      6  C   UNL     1       3.101   5.279  18.213  0.00  0.00    +0.000 C 
ATOM      7  C   UNL     1       3.685   3.980  17.691  0.00  0.00    +0.000 C 
ATOM      8  C   UNL     1       3.544   2.790  18.669  0.00  0.00    +0.000 C 
ATOM      9  C   UNL     1       4.505   2.954  19.867  0.00  0.00    +0.000 C 
ATOM     10  C   UNL     1       3.910   1.490  17.935  0.00  0.00    +0.000 C 
ATOM     11  C   UNL     1       2.091   2.705  19.153  0.00  0.00    +0.000 C 
ATOM     12  C   UNL     1       1.644   4.009  19.770  0.00  0.00    +0.000 C 
ATOM     13  O   UNL     1       0.812   4.043  20.676  0.00  0.00    +0.000 OA
ENDROOT
BRANCH   3  14
ATOM     14  C   UNL     1       1.495   9.070  19.345  0.00  0.00    +0.000 A 
ATOM     15  C   UNL     1       1.727  10.202  18.565  0.00  0.00    +0.000 A 
ATOM     16  C   UNL     1       1.238  11.448  18.954  0.00  0.00    +0.000 A 
ATOM     17  C   UNL     1       0.507  11.570  20.157  0.00  0.00    +0.000 A 
ATOM     18  C   UNL     1       0.248  10.425  20.941  0.00  0.00    +0.000 A 
ATOM     19  C   UNL     1       0.735   9.182  20.512  0.00  0.00    +0.000 A 
BRANCH  16  20
ATOM     20  O   UNL     1       1.459  12.592  18.225  0.00  0.00    +0.000 OA
ATOM     21  C   UNL     1       2.814  13.025  18.113  0.00  0.00    +0.000 C 
ENDBRANCH  16  20
BRANCH  17  22
ATOM     22  O   UNL     1       0.173  12.863  20.492  0.00  0.00    +0.000 OA
ATOM     23  C   UNL     1       1.054  13.565  21.358  0.00  0.00    +0.000 C 
ENDBRANCH  17  22
BRANCH  18  24
ATOM     24  O   UNL     1      -0.437  10.586  22.117  0.00  0.00    +0.000 OA
ATOM     25  C   UNL     1      -0.150   9.699  23.191  0.00  0.00    +0.000 C 
ENDBRANCH  18  24
ENDBRANCH   3  14
BRANCH   1  26
ATOM     26  C   UNL     1       4.485   6.636  16.547  0.00  0.00    +0.000 C 
BRANCH  26  27
ATOM     27  C   UNL     1       5.946   6.490  17.029  0.00  0.00    +0.000 C 
BRANCH  27  28
ATOM     28  N   UNL     1       6.544   5.138  16.859  0.00  0.00    +0.000 NA
BRANCH  28  30
ATOM     29  C   UNL     1       6.187   3.956  14.651  0.00  0.00    +0.000 C 
ATOM     30  C   UNL     1       6.990   4.970  15.462  0.00  0.00    +0.000 C 
ENDBRANCH  28  30
BRANCH  28  31
ATOM     31  C   UNL     1       7.583   4.830  17.854  0.00  0.00    +0.000 C 
ATOM     32  C   UNL     1       7.698   5.793  19.031  0.00  0.00    +0.000 C 
ENDBRANCH  28  31
ENDBRANCH  27  28
ENDBRANCH  26  27
ENDBRANCH   1  26
TORSDOF 9
ENDMDL
MODEL 5
REMARK VINA RESULT:      -7.0      1.005      1.441
REMARK  Name = 
REMARK  16 active torsions:
REMARK  status: ('A' for Active; 'I' for Inactive)
REMARK    1  A    between atoms: C_1  and  C_2
REMARK    2  A    between atoms: C_2  and  N_3
REMARK    3  A    between atoms: N_3  and  C_4
REMARK    4  A    between atoms: N_3  and  C_6
REMARK    5  A    between atoms: C_4  and  C_5
REMARK    6  A    between atoms: C_6  and  C_7
REMARK    7  A    between atoms: C_7  and  N_8
REMARK    8  A    between atoms: C_10  and  C_11
REMARK    9  A    between atoms: C_13  and  O_14
REMARK   10  A    between atoms: O_14  and  C_15
REMARK   11  A    between atoms: C_16  and  O_17
REMARK   12  A    between atoms: O_17  and  C_18
REMARK   13  A    between atoms: C_19  and  O_20
REMARK   14  A    between atoms: O_20  and  C_21
REMARK   15  A    between atoms: C_27  and  C_28
REMARK   16  A    between atoms: C_27  and  C_29
REMARK                            x       y       z     vdW  Elec       q    Type
REMARK                         _______ _______ _______ _____ _____    ______ ____
ROOT
ATOM      1  N   UNL     1       3.667   6.133  17.907  0.00  0.00    +0.000 N 
ATOM      2  N   UNL     1       3.148   7.347  18.291  0.00  0.00    +0.000 NA
ATOM      3  C   UNL     1       2.236   7.383  19.218  0.00  0.00    +0.000 C 
ATOM      4  C   UNL     1       1.711   6.154  19.937  0.00  0.00    +0.000 C 
ATOM      5  C   UNL     1       2.253   4.900  19.364  0.00  0.00    +0.000 C 
ATOM      6  C   UNL     1       3.192   4.911  18.402  0.00  0.00    +0.000 C 
ATOM      7  C   UNL     1       3.753   3.612  17.856  0.00  0.00    +0.000 C 
ATOM      8  C   UNL     1       3.553   2.398  18.794  0.00  0.00    +0.000 C 
ATOM      9  C   UNL     1       4.486   2.499  20.021  0.00  0.00    +0.000 C 
ATOM     10  C   UNL     1       3.902   1.110  18.030  0.00  0.00    +0.000 C 
ATOM     11  C   UNL     1       2.085   2.341  19.237  0.00  0.00    +0.000 C 
ATOM     12  C   UNL     1       1.658   3.638  19.881  0.00  0.00    +0.000 C 
ATOM     13  O   UNL     1       0.804   3.669  20.766  0.00  0.00    +0.000 OA
ENDROOT
BRANCH   3  14
ATOM     14  C   UNL     1       1.662   8.711  19.606  0.00  0.00    +0.000 A 
ATOM     15  C   UNL     1       0.919   8.857  20.777  0.00  0.00    +0.000 A 
ATOM     16  C   UNL     1       0.314  10.074  21.090  0.00  0.00    +0.000 A 
ATOM     17  C   UNL     1       0.444  11.170  20.207  0.00  0.00    +0.000 A 
ATOM     18  C   UNL     1       1.213  11.036  19.031  0.00  0.00    +0.000 A 
ATOM     19  C   UNL     1       1.827   9.806  18.754  0.00  0.00    +0.000 A 
BRANCH  16  20
ATOM     20  O   UNL     1      -0.442  10.256  22.223  0.00  0.00    +0.000 OA
ATOM     21  C   UNL     1      -0.051   9.514  23.377  0.00  0.00    +0.000 C 
ENDBRANCH  16  20
BRANCH  17  22
ATOM     22  O   UNL     1      -0.287  12.280  20.565  0.00  0.00    +0.000 OA
ATOM     23  C   UNL     1      -1.547  12.466  19.936  0.00  0.00    +0.000 C 
ENDBRANCH  17  22
BRANCH  18  24
ATOM     24  O   UNL     1       1.292  12.110  18.183  0.00  0.00    +0.000 OA
ATOM     25  C   UNL     1       2.506  12.851  18.144  0.00  0.00    +0.000 C 
ENDBRANCH  18  24
ENDBRANCH   3  14
BRANCH   1  26
ATOM     26  C   UNL     1       4.658   6.277  16.815  0.00  0.00    +0.000 C 
BRANCH  26  27
ATOM     27  C   UNL     1       5.806   7.231  17.215  0.00  0.00    +0.000 C 
BRANCH  27  28
ATOM     28  N   UNL     1       7.140   6.592  17.379  0.00  0.00    +0.000 NA
BRANCH  28  30
ATOM     29  C   UNL     1       7.914   8.982  17.683  0.00  0.00    +0.000 C 
ATOM     30  C   UNL     1       8.043   7.517  18.094  0.00  0.00    +0.000 C 
ENDBRANCH  28  30
BRANCH  28  31
ATOM     31  C   UNL     1       7.075   5.249  17.975  0.00  0.00    +0.000 C 
ATOM     32  C   UNL     1       6.884   5.190  19.488  0.00  0.00    +0.000 C 
ENDBRANCH  28  31
ENDBRANCH  27  28
ENDBRANCH  26  27
ENDBRANCH   1  26
TORSDOF 9
ENDMDL
MODEL 6
REMARK VINA RESULT:      -7.0      0.927      2.638
REMARK  Name = 
REMARK  16 active torsions:
REMARK  status: ('A' for Active; 'I' for Inactive)
REMARK    1  A    between atoms: C_1  and  C_2
REMARK    2  A    between atoms: C_2  and  N_3
REMARK    3  A    between atoms: N_3  and  C_4
REMARK    4  A    between atoms: N_3  and  C_6
REMARK    5  A    between atoms: C_4  and  C_5
REMARK    6  A    between atoms: C_6  and  C_7
REMARK    7  A    between atoms: C_7  and  N_8
REMARK    8  A    between atoms: C_10  and  C_11
REMARK    9  A    between atoms: C_13  and  O_14
REMARK   10  A    between atoms: O_14  and  C_15
REMARK   11  A    between atoms: C_16  and  O_17
REMARK   12  A    between atoms: O_17  and  C_18
REMARK   13  A    between atoms: C_19  and  O_20
REMARK   14  A    between atoms: O_20  and  C_21
REMARK   15  A    between atoms: C_27  and  C_28
REMARK   16  A    between atoms: C_27  and  C_29
REMARK                            x       y       z     vdW  Elec       q    Type
REMARK                         _______ _______ _______ _____ _____    ______ ____
ROOT
ATOM      1  N   UNL     1       3.602   6.282  17.801  0.00  0.00    +0.000 N 
ATOM      2  N   UNL     1       3.068   7.496  18.164  0.00  0.00    +0.000 NA
ATOM      3  C   UNL     1       2.136   7.534  19.071  0.00  0.00    +0.000 C 
ATOM      4  C   UNL     1       1.604   6.308  19.789  0.00  0.00    +0.000 C 
ATOM      5  C   UNL     1       2.166   5.052  19.239  0.00  0.00    +0.000 C 
ATOM      6  C   UNL     1       3.125   5.061  18.297  0.00  0.00    +0.000 C 
ATOM      7  C   UNL     1       3.706   3.762  17.774  0.00  0.00    +0.000 C 
ATOM      8  C   UNL     1       3.494   2.554  18.718  0.00  0.00    +0.000 C 
ATOM      9  C   UNL     1       4.400   2.672  19.963  0.00  0.00    +0.000 C 
ATOM     10  C   UNL     1       3.867   1.263  17.972  0.00  0.00    +0.000 C 
ATOM     11  C   UNL     1       2.017   2.491  19.130  0.00  0.00    +0.000 C 
ATOM     12  C   UNL     1       1.568   3.790  19.754  0.00  0.00    +0.000 C 
ATOM     13  O   UNL     1       0.695   3.823  20.620  0.00  0.00    +0.000 OA
ENDROOT
BRANCH   3  14
ATOM     14  C   UNL     1       1.545   8.862  19.436  0.00  0.00    +0.000 A 
ATOM     15  C   UNL     1       1.735   9.978  18.623  0.00  0.00    +0.000 A 
ATOM     16  C   UNL     1       1.258  11.230  19.009  0.00  0.00    +0.000 A 
ATOM     17  C   UNL     1       0.584  11.374  20.242  0.00  0.00    +0.000 A 
ATOM     18  C   UNL     1       0.368  10.244  21.060  0.00  0.00    +0.000 A 
ATOM     19  C   UNL     1       0.841   8.994  20.635  0.00  0.00    +0.000 A 
BRANCH  16  20
ATOM     20  O   UNL     1       1.439  12.359  18.247  0.00  0.00    +0.000 OA
ATOM     21  C   UNL     1       2.767  12.877  18.179  0.00  0.00    +0.000 C 
ENDBRANCH  16  20
BRANCH  17  22
ATOM     22  O   UNL     1       0.259  12.672  20.566  0.00  0.00    +0.000 OA
ATOM     23  C   UNL     1      -1.077  13.093  20.329  0.00  0.00    +0.000 C 
ENDBRANCH  17  22
BRANCH  18  24
ATOM     24  O   UNL     1      -0.262  10.426  22.263  0.00  0.00    +0.000 OA
ATOM     25  C   UNL     1       0.002   9.500  23.310  0.00  0.00    +0.000 C 
ENDBRANCH  18  24
ENDBRANCH   3  14
BRANCH   1  26
ATOM     26  C   UNL     1       4.615   6.424  16.730  0.00  0.00    +0.000 C 
BRANCH  26  27
ATOM     27  C   UNL     1       5.781   7.339  17.169  0.00  0.00    +0.000 C 
BRANCH  27  28
ATOM     28  N   UNL     1       7.107   6.674  17.285  0.00  0.00    +0.000 NA
BRANCH  28  30
ATOM     29  C   UNL     1       7.750   9.092  17.663  0.00  0.00    +0.000 C 
ATOM     30  C   UNL     1       8.078   7.616  17.876  0.00  0.00    +0.000 C 
ENDBRANCH  28  30
BRANCH  28  31
ATOM     31  C   UNL     1       7.051   5.374  17.970  0.00  0.00    +0.000 C 
ATOM     32  C   UNL     1       6.896   5.416  19.487  0.00  0.00    +0.000 C 
ENDBRANCH  28  31
ENDBRANCH  27  28
ENDBRANCH  26  27
ENDBRANCH   1  26
TORSDOF 9
ENDMDL
MODEL 7
REMARK VINA RESULT:      -6.8      1.012      1.680
REMARK  Name = 
REMARK  16 active torsions:
REMARK  status: ('A' for Active; 'I' for Inactive)
REMARK    1  A    between atoms: C_1  and  C_2
REMARK    2  A    between atoms: C_2  and  N_3
REMARK    3  A    between atoms: N_3  and  C_4
REMARK    4  A    between atoms: N_3  and  C_6
REMARK    5  A    between atoms: C_4  and  C_5
REMARK    6  A    between atoms: C_6  and  C_7
REMARK    7  A    between atoms: C_7  and  N_8
REMARK    8  A    between atoms: C_10  and  C_11
REMARK    9  A    between atoms: C_13  and  O_14
REMARK   10  A    between atoms: O_14  and  C_15
REMARK   11  A    between atoms: C_16  and  O_17
REMARK   12  A    between atoms: O_17  and  C_18
REMARK   13  A    between atoms: C_19  and  O_20
REMARK   14  A    between atoms: O_20  and  C_21
REMARK   15  A    between atoms: C_27  and  C_28
REMARK   16  A    between atoms: C_27  and  C_29
REMARK                            x       y       z     vdW  Elec       q    Type
REMARK                         _______ _______ _______ _____ _____    ______ ____
ROOT
ATOM      1  N   UNL     1       3.363   6.123  17.970  0.00  0.00    +0.000 N 
ATOM      2  N   UNL     1       2.850   7.324  18.400  0.00  0.00    +0.000 NA
ATOM      3  C   UNL     1       2.028   7.338  19.409  0.00  0.00    +0.000 C 
ATOM      4  C   UNL     1       1.609   6.099  20.176  0.00  0.00    +0.000 C 
ATOM      5  C   UNL     1       2.130   4.857  19.557  0.00  0.00    +0.000 C 
ATOM      6  C   UNL     1       2.973   4.891  18.511  0.00  0.00    +0.000 C 
ATOM      7  C   UNL     1       3.516   3.605  17.916  0.00  0.00    +0.000 C 
ATOM      8  C   UNL     1       3.440   2.390  18.871  0.00  0.00    +0.000 C 
ATOM      9  C   UNL     1       4.482   2.523  20.004  0.00  0.00    +0.000 C 
ATOM     10  C   UNL     1       3.752   1.110  18.080  0.00  0.00    +0.000 C 
ATOM     11  C   UNL     1       2.023   2.294  19.451  0.00  0.00    +0.000 C 
ATOM     12  C   UNL     1       1.622   3.581  20.130  0.00  0.00    +0.000 C 
ATOM     13  O   UNL     1       0.855   3.592  21.092  0.00  0.00    +0.000 OA
ENDROOT
BRANCH   3  14
ATOM     14  C   UNL     1       1.456   8.652  19.847  0.00  0.00    +0.000 A 
ATOM     15  C   UNL     1       1.292   8.947  21.200  0.00  0.00    +0.000 A 
ATOM     16  C   UNL     1       0.679  10.133  21.601  0.00  0.00    +0.000 A 
ATOM     17  C   UNL     1       0.208  11.044  20.627  0.00  0.00    +0.000 A 
ATOM     18  C   UNL     1       0.391  10.762  19.256  0.00  0.00    +0.000 A 
ATOM     19  C   UNL     1       1.030   9.571  18.885  0.00  0.00    +0.000 A 
BRANCH  16  20
ATOM     20  O   UNL     1       0.480  10.456  22.922  0.00  0.00    +0.000 OA
ATOM     21  C   UNL     1      -0.143   9.462  23.734  0.00  0.00    +0.000 C 
ENDBRANCH  16  20
BRANCH  17  22
ATOM     22  O   UNL     1      -0.476  12.123  21.141  0.00  0.00    +0.000 OA
ATOM     23  C   UNL     1      -1.887  12.007  21.261  0.00  0.00    +0.000 C 
ENDBRANCH  17  22
BRANCH  18  24
ATOM     24  O   UNL     1      -0.105  11.653  18.341  0.00  0.00    +0.000 OA
ATOM     25  C   UNL     1      -1.388  11.401  17.782  0.00  0.00    +0.000 C 
ENDBRANCH  18  24
ENDBRANCH   3  14
BRANCH   1  26
ATOM     26  C   UNL     1       4.243   6.290  16.789  0.00  0.00    +0.000 C 
BRANCH  26  27
ATOM     27  C   UNL     1       5.726   6.422  17.202  0.00  0.00    +0.000 C 
BRANCH  27  28
ATOM     28  N   UNL     1       6.325   5.214  17.830  0.00  0.00    +0.000 NA
BRANCH  28  30
ATOM     29  C   UNL     1       7.051   4.637  15.476  0.00  0.00    +0.000 C 
ATOM     30  C   UNL     1       7.399   4.690  16.962  0.00  0.00    +0.000 C 
ENDBRANCH  28  30
BRANCH  28  31
ATOM     31  C   UNL     1       6.742   5.426  19.224  0.00  0.00    +0.000 C 
ATOM     32  C   UNL     1       8.209   5.788  19.443  0.00  0.00    +0.000 C 
ENDBRANCH  28  31
ENDBRANCH  27  28
ENDBRANCH  26  27
ENDBRANCH   1  26
TORSDOF 9
ENDMDL
MODEL 8
REMARK VINA RESULT:      -6.8      0.904      1.381
REMARK  Name = 
REMARK  16 active torsions:
REMARK  status: ('A' for Active; 'I' for Inactive)
REMARK    1  A    between atoms: C_1  and  C_2
REMARK    2  A    between atoms: C_2  and  N_3
REMARK    3  A    between atoms: N_3  and  C_4
REMARK    4  A    between atoms: N_3  and  C_6
REMARK    5  A    between atoms: C_4  and  C_5
REMARK    6  A    between atoms: C_6  and  C_7
REMARK    7  A    between atoms: C_7  and  N_8
REMARK    8  A    between atoms: C_10  and  C_11
REMARK    9  A    between atoms: C_13  and  O_14
REMARK   10  A    between atoms: O_14  and  C_15
REMARK   11  A    between atoms: C_16  and  O_17
REMARK   12  A    between atoms: O_17  and  C_18
REMARK   13  A    between atoms: C_19  and  O_20
REMARK   14  A    between atoms: O_20  and  C_21
REMARK   15  A    between atoms: C_27  and  C_28
REMARK   16  A    between atoms: C_27  and  C_29
REMARK                            x       y       z     vdW  Elec       q    Type
REMARK                         _______ _______ _______ _____ _____    ______ ____
ROOT
ATOM      1  N   UNL     1       3.415   6.411  17.840  0.00  0.00    +0.000 N 
ATOM      2  N   UNL     1       2.938   7.617  18.298  0.00  0.00    +0.000 NA
ATOM      3  C   UNL     1       2.138   7.634  19.324  0.00  0.00    +0.000 C 
ATOM      4  C   UNL     1       1.706   6.393  20.081  0.00  0.00    +0.000 C 
ATOM      5  C   UNL     1       2.185   5.149  19.433  0.00  0.00    +0.000 C 
ATOM      6  C   UNL     1       3.007   5.179  18.370  0.00  0.00    +0.000 C 
ATOM      7  C   UNL     1       3.509   3.891  17.745  0.00  0.00    +0.000 C 
ATOM      8  C   UNL     1       3.424   2.664  18.683  0.00  0.00    +0.000 C 
ATOM      9  C   UNL     1       4.491   2.756  19.796  0.00  0.00    +0.000 C 
ATOM     10  C   UNL     1       3.690   1.389  17.867  0.00  0.00    +0.000 C 
ATOM     11  C   UNL     1       2.017   2.591  19.291  0.00  0.00    +0.000 C 
ATOM     12  C   UNL     1       1.660   3.877  19.997  0.00  0.00    +0.000 C 
ATOM     13  O   UNL     1       0.912   3.891  20.974  0.00  0.00    +0.000 OA
ENDROOT
BRANCH   3  14
ATOM     14  C   UNL     1       1.605   8.954  19.793  0.00  0.00    +0.000 A 
ATOM     15  C   UNL     1       1.208   9.137  21.117  0.00  0.00    +0.000 A 
ATOM     16  C   UNL     1       0.632  10.338  21.528  0.00  0.00    +0.000 A 
ATOM     17  C   UNL     1       0.438  11.379  20.592  0.00  0.00    +0.000 A 
ATOM     18  C   UNL     1       0.858  11.210  19.256  0.00  0.00    +0.000 A 
ATOM     19  C   UNL     1       1.453   9.998  18.877  0.00  0.00    +0.000 A 
BRANCH  16  20
ATOM     20  O   UNL     1       0.210  10.554  22.818  0.00  0.00    +0.000 OA
ATOM     21  C   UNL     1      -0.432   9.460  23.471  0.00  0.00    +0.000 C 
ENDBRANCH  16  20
BRANCH  17  22
ATOM     22  O   UNL     1      -0.239  12.471  21.088  0.00  0.00    +0.000 OA
ATOM     23  C   UNL     1      -1.639  12.535  20.856  0.00  0.00    +0.000 C 
ENDBRANCH  17  22
BRANCH  18  24
ATOM     24  O   UNL     1       0.625  12.228  18.370  0.00  0.00    +0.000 OA
ATOM     25  C   UNL     1       1.560  13.299  18.313  0.00  0.00    +0.000 C 
ENDBRANCH  18  24
ENDBRANCH   3  14
BRANCH   1  26
ATOM     26  C   UNL     1       4.274   6.576  16.644  0.00  0.00    +0.000 C 
BRANCH  26  27
ATOM     27  C   UNL     1       5.667   5.941  16.855  0.00  0.00    +0.000 C 
BRANCH  27  28
ATOM     28  N   UNL     1       6.479   6.531  17.953  0.00  0.00    +0.000 NA
BRANCH  28  30
ATOM     29  C   UNL     1       8.061   5.625  19.708  0.00  0.00    +0.000 C 
ATOM     30  C   UNL     1       6.717   5.508  18.992  0.00  0.00    +0.000 C 
ENDBRANCH  28  30
BRANCH  28  31
ATOM     31  C   UNL     1       7.705   7.192  17.482  0.00  0.00    +0.000 C 
ATOM     32  C   UNL     1       7.806   8.692  17.742  0.00  0.00    +0.000 C 
ENDBRANCH  28  31
ENDBRANCH  27  28
ENDBRANCH  26  27
ENDBRANCH   1  26
TORSDOF 9
ENDMDL
MODEL 9
REMARK VINA RESULT:      -6.8      1.974      4.521
REMARK  Name = 
REMARK  16 active torsions:
REMARK  status: ('A' for Active; 'I' for Inactive)
REMARK    1  A    between atoms: C_1  and  C_2
REMARK    2  A    between atoms: C_2  and  N_3
REMARK    3  A    between atoms: N_3  and  C_4
REMARK    4  A    between atoms: N_3  and  C_6
REMARK    5  A    between atoms: C_4  and  C_5
REMARK    6  A    between atoms: C_6  and  C_7
REMARK    7  A    between atoms: C_7  and  N_8
REMARK    8  A    between atoms: C_10  and  C_11
REMARK    9  A    between atoms: C_13  and  O_14
REMARK   10  A    between atoms: O_14  and  C_15
REMARK   11  A    between atoms: C_16  and  O_17
REMARK   12  A    between atoms: O_17  and  C_18
REMARK   13  A    between atoms: C_19  and  O_20
REMARK   14  A    between atoms: O_20  and  C_21
REMARK   15  A    between atoms: C_27  and  C_28
REMARK   16  A    between atoms: C_27  and  C_29
REMARK                            x       y       z     vdW  Elec       q    Type
REMARK                         _______ _______ _______ _____ _____    ______ ____
ROOT
ATOM      1  N   UNL     1       2.600   5.341  17.676  0.00  0.00    +0.000 N 
ATOM      2  N   UNL     1       1.866   6.332  18.286  0.00  0.00    +0.000 NA
ATOM      3  C   UNL     1       2.391   7.514  18.429  0.00  0.00    +0.000 C 
ATOM      4  C   UNL     1       3.776   7.890  17.936  0.00  0.00    +0.000 C 
ATOM      5  C   UNL     1       4.514   6.721  17.402  0.00  0.00    +0.000 C 
ATOM      6  C   UNL     1       3.932   5.516  17.277  0.00  0.00    +0.000 C 
ATOM      7  C   UNL     1       4.701   4.344  16.698  0.00  0.00    +0.000 C 
ATOM      8  C   UNL     1       5.927   4.756  15.849  0.00  0.00    +0.000 C 
ATOM      9  C   UNL     1       5.477   5.364  14.502  0.00  0.00    +0.000 C 
ATOM     10  C   UNL     1       6.774   3.508  15.553  0.00  0.00    +0.000 C 
ATOM     11  C   UNL     1       6.771   5.764  16.639  0.00  0.00    +0.000 C 
ATOM     12  C   UNL     1       5.945   6.954  17.064  0.00  0.00    +0.000 C 
ATOM     13  O   UNL     1       6.440   8.073  17.188  0.00  0.00    +0.000 OA
ENDROOT
BRANCH   3  14
ATOM     14  C   UNL     1       1.589   8.574  19.120  0.00  0.00    +0.000 A 
ATOM     15  C   UNL     1       0.871   9.519  18.390  0.00  0.00    +0.000 A 
ATOM     16  C   UNL     1       0.197  10.555  19.035  0.00  0.00    +0.000 A 
ATOM     17  C   UNL     1       0.250  10.657  20.444  0.00  0.00    +0.000 A 
ATOM     18  C   UNL     1       0.958   9.691  21.191  0.00  0.00    +0.000 A 
ATOM     19  C   UNL     1       1.607   8.648  20.515  0.00  0.00    +0.000 A 
BRANCH  16  20
ATOM     20  O   UNL     1      -0.508  11.519  18.354  0.00  0.00    +0.000 OA
ATOM     21  C   UNL     1      -1.762  11.121  17.802  0.00  0.00    +0.000 C 
ENDBRANCH  16  20
BRANCH  17  22
ATOM     22  O   UNL     1      -0.358  11.781  20.957  0.00  0.00    +0.000 OA
ATOM     23  C   UNL     1       0.469  12.899  21.247  0.00  0.00    +0.000 C 
ENDBRANCH  17  22
BRANCH  18  24
ATOM     24  O   UNL     1       1.014   9.839  22.552  0.00  0.00    +0.000 OA
ATOM     25  C   UNL     1      -0.122   9.458  23.319  0.00  0.00    +0.000 C 
ENDBRANCH  18  24
ENDBRANCH   3  14
BRANCH   1  26
ATOM     26  C   UNL     1       1.866   4.055  17.637  0.00  0.00    +0.000 C 
BRANCH  26  27
ATOM     27  C   UNL     1       1.224   3.728  19.004  0.00  0.00    +0.000 C 
BRANCH  27  28
ATOM     28  N   UNL     1       1.758   2.520  19.689  0.00  0.00    +0.000 NA
BRANCH  28  30
ATOM     29  C   UNL     1       4.226   1.993  19.511  0.00  0.00    +0.000 C 
ATOM     30  C   UNL     1       2.840   1.932  18.874  0.00  0.00    +0.000 C 
ENDBRANCH  28  30
BRANCH  28  31
ATOM     31  C   UNL     1       2.138   2.763  21.090  0.00  0.00    +0.000 C 
ATOM     32  C   UNL     1       2.247   4.224  21.517  0.00  0.00    +0.000 C 
ENDBRANCH  28  31
ENDBRANCH  27  28
ENDBRANCH  26  27
ENDBRANCH   1  26
TORSDOF 9
ENDMDL
