MODEL 1
REMARK VINA RESULT:      -8.9      0.000      0.000
REMARK  Name = 
REMARK  5 active torsions:
REMARK  status: ('A' for Active; 'I' for Inactive)
REMARK    1  A    between atoms: C_1  and  O_2
REMARK    2  A    between atoms: O_2  and  C_3
REMARK    3  A    between atoms: C_7  and  C_8
REMARK    4  A    between atoms: C_10  and  C_11
REMARK    5  A    between atoms: C_15  and  C_16
REMARK                            x       y       z     vdW  Elec       q    Type
REMARK                         _______ _______ _______ _____ _____    ______ ____
ROOT
ATOM      1  C   UNL     1       6.526   4.839  16.096  0.00  0.00    +0.000 A 
ATOM      2  C   UNL     1       5.394   4.385  16.772  0.00  0.00    +0.000 A 
ATOM      3  C   UNL     1       5.278   4.533  18.154  0.00  0.00    +0.000 A 
ATOM      4  C   UNL     1       6.311   5.179  18.821  0.00  0.00    +0.000 A 
ATOM      5  C   UNL     1       7.401   5.618  18.086  0.00  0.00    +0.000 A 
ATOM      6  N   UNL     1       7.534   5.457  16.750  0.00  0.00    +0.000 NA
ENDROOT
BRANCH   1  11
ATOM      7  C   UNL     1       6.034   3.501  12.568  0.00  0.00    +0.000 A 
ATOM      8  C   UNL     1       7.015   4.203  11.873  0.00  0.00    +0.000 A 
ATOM      9  C   UNL     1       7.821   5.130  12.536  0.00  0.00    +0.000 A 
ATOM     10  C   UNL     1       7.656   5.350  13.905  0.00  0.00    +0.000 A 
ATOM     11  C   UNL     1       6.681   4.654  14.637  0.00  0.00    +0.000 A 
ATOM     12  C   UNL     1       5.867   3.743  13.932  0.00  0.00    +0.000 A 
BRANCH   7  14
ATOM     13  C   UNL     1       4.119   3.112  11.217  0.00  0.00    +0.000 C 
ATOM     14  O   UNL     1       5.302   2.609  11.831  0.00  0.00    +0.000 OA
ENDBRANCH   7  14
ENDBRANCH   1  11
BRANCH   3  15
ATOM     15  C   UNL     1       4.103   4.025  18.842  0.00  0.00    +0.000 A 
ATOM     16  C   UNL     1       3.943   2.693  19.178  0.00  0.00    +0.000 A 
ATOM     17  N   UNL     1       2.765   2.611  19.862  0.00  0.00    +0.000 N 
ATOM     18  N   UNL     1       2.153   3.789  20.030  0.00  0.00    +0.000 NA
ATOM     19  C   UNL     1       2.928   4.674  19.369  0.00  0.00    +0.000 A 
ATOM     20  H   UNL     1       2.329   1.784  20.250  0.00  0.00    +0.000 HD
BRANCH  19  21
ATOM     21  C   UNL     1       2.529   6.089  19.255  0.00  0.00    +0.000 A 
ATOM     22  C   UNL     1       2.643   6.774  18.048  0.00  0.00    +0.000 A 
ATOM     23  C   UNL     1       2.246   8.110  17.993  0.00  0.00    +0.000 A 
ATOM     24  C   UNL     1       1.735   8.717  19.134  0.00  0.00    +0.000 A 
ATOM     25  C   UNL     1       1.643   7.964  20.290  0.00  0.00    +0.000 A 
ATOM     26  N   UNL     1       2.038   6.678  20.374  0.00  0.00    +0.000 NA
ENDBRANCH  19  21
ENDBRANCH   3  15
TORSDOF 4
ENDMDL
MODEL 2
REMARK VINA RESULT:      -8.8      0.874      1.213
REMARK  Name = 
REMARK  5 active torsions:
REMARK  status: ('A' for Active; 'I' for Inactive)
REMARK    1  A    between atoms: C_1  and  O_2
REMARK    2  A    between atoms: O_2  and  C_3
REMARK    3  A    between atoms: C_7  and  C_8
REMARK    4  A    between atoms: C_10  and  C_11
REMARK    5  A    between atoms: C_15  and  C_16
REMARK                            x       y       z     vdW  Elec       q    Type
REMARK                         _______ _______ _______ _____ _____    ______ ____
ROOT
ATOM      1  C   UNL     1       6.270   4.395  15.978  0.00  0.00    +0.000 A 
ATOM      2  C   UNL     1       5.075   3.906  16.506  0.00  0.00    +0.000 A 
ATOM      3  C   UNL     1       4.853   3.892  17.883  0.00  0.00    +0.000 A 
ATOM      4  C   UNL     1       5.847   4.415  18.701  0.00  0.00    +0.000 A 
ATOM      5  C   UNL     1       7.003   4.899  18.110  0.00  0.00    +0.000 A 
ATOM      6  N   UNL     1       7.238   4.894  16.779  0.00  0.00    +0.000 NA
ENDROOT
BRANCH   1  11
ATOM      7  C   UNL     1       6.063   3.469  12.294  0.00  0.00    +0.000 A 
ATOM      8  C   UNL     1       7.082   4.253  11.760  0.00  0.00    +0.000 A 
ATOM      9  C   UNL     1       7.821   5.103  12.584  0.00  0.00    +0.000 A 
ATOM     10  C   UNL     1       7.551   5.163  13.952  0.00  0.00    +0.000 A 
ATOM     11  C   UNL     1       6.535   4.380  14.524  0.00  0.00    +0.000 A 
ATOM     12  C   UNL     1       5.791   3.551  13.660  0.00  0.00    +0.000 A 
BRANCH   7  14
ATOM     13  C   UNL     1       4.059   3.025  11.097  0.00  0.00    +0.000 C 
ATOM     14  O   UNL     1       5.402   2.662  11.407  0.00  0.00    +0.000 OA
ENDBRANCH   7  14
ENDBRANCH   1  11
BRANCH   3  15
ATOM     15  C   UNL     1       3.613   3.348  18.412  0.00  0.00    +0.000 A 
ATOM     16  C   UNL     1       3.307   2.000  18.381  0.00  0.00    +0.000 A 
ATOM     17  N   UNL     1       2.109   1.865  19.020  0.00  0.00    +0.000 N 
ATOM     18  N   UNL     1       1.618   3.016  19.498  0.00  0.00    +0.000 NA
ATOM     19  C   UNL     1       2.499   3.956  19.096  0.00  0.00    +0.000 A 
ATOM     20  H   UNL     1       1.579   1.017  19.174  0.00  0.00    +0.000 HD
BRANCH  19  21
ATOM     21  C   UNL     1       2.253   5.385  19.366  0.00  0.00    +0.000 A 
ATOM     22  C   UNL     1       1.785   5.813  20.606  0.00  0.00    +0.000 A 
ATOM     23  C   UNL     1       1.575   7.176  20.811  0.00  0.00    +0.000 A 
ATOM     24  C   UNL     1       1.850   8.071  19.783  0.00  0.00    +0.000 A 
ATOM     25  C   UNL     1       2.323   7.566  18.586  0.00  0.00    +0.000 A 
ATOM     26  N   UNL     1       2.516   6.252  18.357  0.00  0.00    +0.000 NA
ENDBRANCH  19  21
ENDBRANCH   3  15
TORSDOF 4
ENDMDL
MODEL 3
REMARK VINA RESULT:      -8.7      3.147      7.334
REMARK  Name = 
REMARK  5 active torsions:
REMARK  status: ('A' for Active; 'I' for Inactive)
REMARK    1  A    between atoms: C_1  and  O_2
REMARK    2  A    between atoms: O_2  and  C_3
REMARK    3  A    between atoms: C_7  and  C_8
REMARK    4  A    between atoms: C_10  and  C_11
REMARK    5  A    between atoms: C_15  and  C_16
REMARK                            x       y       z     vdW  Elec       q    Type
REMARK                         _______ _______ _______ _____ _____    ______ ____
ROOT
ATOM      1  C   UNL     1       2.706   5.905  18.188  0.00  0.00    +0.000 A 
ATOM      2  C   UNL     1       3.771   5.887  17.287  0.00  0.00    +0.000 A 
ATOM      3  C   UNL     1       4.254   4.684  16.774  0.00  0.00    +0.000 A 
ATOM      4  C   UNL     1       3.615   3.514  17.164  0.00  0.00    +0.000 A 
ATOM      5  C   UNL     1       2.554   3.605  18.051  0.00  0.00    +0.000 A 
ATOM      6  N   UNL     1       2.094   4.763  18.573  0.00  0.00    +0.000 NA
ENDROOT
BRANCH   1  11
ATOM      7  C   UNL     1       1.405   8.431  20.717  0.00  0.00    +0.000 A 
ATOM      8  C   UNL     1       1.163   9.533  19.900  0.00  0.00    +0.000 A 
ATOM      9  C   UNL     1       1.444   9.472  18.535  0.00  0.00    +0.000 A 
ATOM     10  C   UNL     1       1.960   8.300  17.978  0.00  0.00    +0.000 A 
ATOM     11  C   UNL     1       2.208   7.169  18.771  0.00  0.00    +0.000 A 
ATOM     12  C   UNL     1       1.937   7.272  20.151  0.00  0.00    +0.000 A 
BRANCH   7  14
ATOM     13  C   UNL     1       0.271   9.707  22.370  0.00  0.00    +0.000 C 
ATOM     14  O   UNL     1       1.088   8.587  22.040  0.00  0.00    +0.000 OA
ENDBRANCH   7  14
ENDBRANCH   1  11
BRANCH   3  15
ATOM     15  C   UNL     1       5.385   4.688  15.860  0.00  0.00    +0.000 A 
ATOM     16  C   UNL     1       5.367   4.046  14.635  0.00  0.00    +0.000 A 
ATOM     17  N   UNL     1       6.564   4.324  14.041  0.00  0.00    +0.000 N 
ATOM     18  N   UNL     1       7.355   5.125  14.765  0.00  0.00    +0.000 NA
ATOM     19  C   UNL     1       6.677   5.327  15.914  0.00  0.00    +0.000 A 
ATOM     20  H   UNL     1       6.897   4.009  13.139  0.00  0.00    +0.000 HD
BRANCH  19  21
ATOM     21  C   UNL     1       7.273   6.105  17.016  0.00  0.00    +0.000 A 
ATOM     22  C   UNL     1       7.629   5.496  18.217  0.00  0.00    +0.000 A 
ATOM     23  C   UNL     1       8.195   6.276  19.224  0.00  0.00    +0.000 A 
ATOM     24  C   UNL     1       8.404   7.632  19.000  0.00  0.00    +0.000 A 
ATOM     25  C   UNL     1       8.035   8.157  17.775  0.00  0.00    +0.000 A 
ATOM     26  N   UNL     1       7.469   7.429  16.794  0.00  0.00    +0.000 NA
ENDBRANCH  19  21
ENDBRANCH   3  15
TORSDOF 4
ENDMDL
MODEL 4
REMARK VINA RESULT:      -8.6      3.666      8.306
REMARK  Name = 
REMARK  5 active torsions:
REMARK  status: ('A' for Active; 'I' for Inactive)
REMARK    1  A    between atoms: C_1  and  O_2
REMARK    2  A    between atoms: O_2  and  C_3
REMARK    3  A    between atoms: C_7  and  C_8
REMARK    4  A    between atoms: C_10  and  C_11
REMARK    5  A    between atoms: C_15  and  C_16
REMARK                            x       y       z     vdW  Elec       q    Type
REMARK                         _______ _______ _______ _____ _____    ______ ____
ROOT
ATOM      1  C   UNL     1       1.519   8.263  20.001  0.00  0.00    +0.000 A 
ATOM      2  C   UNL     1       1.902   6.975  20.373  0.00  0.00    +0.000 A 
ATOM      3  C   UNL     1       2.637   6.167  19.506  0.00  0.00    +0.000 A 
ATOM      4  C   UNL     1       3.003   6.706  18.279  0.00  0.00    +0.000 A 
ATOM      5  C   UNL     1       2.603   7.999  17.979  0.00  0.00    +0.000 A 
ATOM      6  N   UNL     1       1.869   8.780  18.802  0.00  0.00    +0.000 NA
ENDROOT
BRANCH   1  11
ATOM      7  C   UNL     1      -0.723  11.086  21.217  0.00  0.00    +0.000 A 
ATOM      8  C   UNL     1      -0.773  10.823  22.583  0.00  0.00    +0.000 A 
ATOM      9  C   UNL     1      -0.105   9.718  23.113  0.00  0.00    +0.000 A 
ATOM     10  C   UNL     1       0.629   8.876  22.275  0.00  0.00    +0.000 A 
ATOM     11  C   UNL     1       0.707   9.116  20.894  0.00  0.00    +0.000 A 
ATOM     12  C   UNL     1      -0.001  10.226  20.388  0.00  0.00    +0.000 A 
BRANCH   7  14
ATOM     13  C   UNL     1      -2.010  12.122  19.509  0.00  0.00    +0.000 C 
ATOM     14  O   UNL     1      -1.404  12.197  20.797  0.00  0.00    +0.000 OA
ENDBRANCH   7  14
ENDBRANCH   1  11
BRANCH   3  15
ATOM     15  C   UNL     1       2.997   4.816  19.903  0.00  0.00    +0.000 A 
ATOM     16  C   UNL     1       2.330   4.117  20.892  0.00  0.00    +0.000 A 
ATOM     17  N   UNL     1       2.902   2.879  20.937  0.00  0.00    +0.000 N 
ATOM     18  N   UNL     1       3.871   2.697  20.031  0.00  0.00    +0.000 NA
ATOM     19  C   UNL     1       3.988   3.890  19.412  0.00  0.00    +0.000 A 
ATOM     20  H   UNL     1       2.669   2.109  21.551  0.00  0.00    +0.000 HD
BRANCH  19  21
ATOM     21  C   UNL     1       5.029   4.111  18.391  0.00  0.00    +0.000 A 
ATOM     22  C   UNL     1       4.771   3.887  17.041  0.00  0.00    +0.000 A 
ATOM     23  C   UNL     1       5.788   4.118  16.115  0.00  0.00    +0.000 A 
ATOM     24  C   UNL     1       7.023   4.577  16.559  0.00  0.00    +0.000 A 
ATOM     25  C   UNL     1       7.194   4.787  17.915  0.00  0.00    +0.000 A 
ATOM     26  N   UNL     1       6.233   4.554  18.831  0.00  0.00    +0.000 NA
ENDBRANCH  19  21
ENDBRANCH   3  15
TORSDOF 4
ENDMDL
MODEL 5
REMARK VINA RESULT:      -8.6      2.794      7.086
REMARK  Name = 
REMARK  5 active torsions:
REMARK  status: ('A' for Active; 'I' for Inactive)
REMARK    1  A    between atoms: C_1  and  O_2
REMARK    2  A    between atoms: O_2  and  C_3
REMARK    3  A    between atoms: C_7  and  C_8
REMARK    4  A    between atoms: C_10  and  C_11
REMARK    5  A    between atoms: C_15  and  C_16
REMARK                            x       y       z     vdW  Elec       q    Type
REMARK                         _______ _______ _______ _____ _____    ______ ____
ROOT
ATOM      1  C   UNL     1       2.801   5.379  18.254  0.00  0.00    +0.000 A 
ATOM      2  C   UNL     1       3.838   5.493  17.329  0.00  0.00    +0.000 A 
ATOM      3  C   UNL     1       4.380   4.362  16.719  0.00  0.00    +0.000 A 
ATOM      4  C   UNL     1       3.826   3.129  17.038  0.00  0.00    +0.000 A 
ATOM      5  C   UNL     1       2.787   3.089  17.955  0.00  0.00    +0.000 A 
ATOM      6  N   UNL     1       2.271   4.176  18.571  0.00  0.00    +0.000 NA
ENDROOT
BRANCH   1  11
ATOM      7  C   UNL     1       1.647   8.946  18.903  0.00  0.00    +0.000 A 
ATOM      8  C   UNL     1       1.273   8.870  20.242  0.00  0.00    +0.000 A 
ATOM      9  C   UNL     1       1.368   7.661  20.933  0.00  0.00    +0.000 A 
ATOM     10  C   UNL     1       1.850   6.521  20.286  0.00  0.00    +0.000 A 
ATOM     11  C   UNL     1       2.242   6.564  18.939  0.00  0.00    +0.000 A 
ATOM     12  C   UNL     1       2.110   7.795  18.264  0.00  0.00    +0.000 A 
BRANCH   7  14
ATOM     13  C   UNL     1       0.783  11.155  19.041  0.00  0.00    +0.000 C 
ATOM     14  O   UNL     1       1.525  10.177  18.317  0.00  0.00    +0.000 OA
ENDBRANCH   7  14
ENDBRANCH   1  11
BRANCH   3  15
ATOM     15  C   UNL     1       5.482   4.502  15.780  0.00  0.00    +0.000 A 
ATOM     16  C   UNL     1       5.480   3.927  14.523  0.00  0.00    +0.000 A 
ATOM     17  N   UNL     1       6.635   4.327  13.918  0.00  0.00    +0.000 N 
ATOM     18  N   UNL     1       7.382   5.149  14.666  0.00  0.00    +0.000 NA
ATOM     19  C   UNL     1       6.722   5.237  15.840  0.00  0.00    +0.000 A 
ATOM     20  H   UNL     1       6.967   4.087  12.992  0.00  0.00    +0.000 HD
BRANCH  19  21
ATOM     21  C   UNL     1       7.287   6.000  16.968  0.00  0.00    +0.000 A 
ATOM     22  C   UNL     1       7.599   5.376  18.173  0.00  0.00    +0.000 A 
ATOM     23  C   UNL     1       8.137   6.143  19.206  0.00  0.00    +0.000 A 
ATOM     24  C   UNL     1       8.361   7.500  19.004  0.00  0.00    +0.000 A 
ATOM     25  C   UNL     1       8.035   8.040  17.773  0.00  0.00    +0.000 A 
ATOM     26  N   UNL     1       7.496   7.325  16.766  0.00  0.00    +0.000 NA
ENDBRANCH  19  21
ENDBRANCH   3  15
TORSDOF 4
ENDMDL
MODEL 6
REMARK VINA RESULT:      -8.5      1.431      3.039
REMARK  Name = 
REMARK  5 active torsions:
REMARK  status: ('A' for Active; 'I' for Inactive)
REMARK    1  A    between atoms: C_1  and  O_2
REMARK    2  A    between atoms: O_2  and  C_3
REMARK    3  A    between atoms: C_7  and  C_8
REMARK    4  A    between atoms: C_10  and  C_11
REMARK    5  A    between atoms: C_15  and  C_16
REMARK                            x       y       z     vdW  Elec       q    Type
REMARK                         _______ _______ _______ _____ _____    ______ ____
ROOT
ATOM      1  C   UNL     1       6.342   4.965  15.736  0.00  0.00    +0.000 A 
ATOM      2  C   UNL     1       5.218   5.678  16.153  0.00  0.00    +0.000 A 
ATOM      3  C   UNL     1       4.992   5.931  17.506  0.00  0.00    +0.000 A 
ATOM      4  C   UNL     1       5.943   5.481  18.413  0.00  0.00    +0.000 A 
ATOM      5  C   UNL     1       7.044   4.793  17.929  0.00  0.00    +0.000 A 
ATOM      6  N   UNL     1       7.260   4.520  16.623  0.00  0.00    +0.000 NA
ENDROOT
BRANCH   1  11
ATOM      7  C   UNL     1       6.085   3.282  12.334  0.00  0.00    +0.000 A 
ATOM      8  C   UNL     1       7.062   3.969  11.617  0.00  0.00    +0.000 A 
ATOM      9  C   UNL     1       7.787   4.996  12.223  0.00  0.00    +0.000 A 
ATOM     10  C   UNL     1       7.546   5.332  13.556  0.00  0.00    +0.000 A 
ATOM     11  C   UNL     1       6.575   4.655  14.310  0.00  0.00    +0.000 A 
ATOM     12  C   UNL     1       5.842   3.640  13.661  0.00  0.00    +0.000 A 
BRANCH   7  14
ATOM     13  C   UNL     1       6.242   1.217  11.169  0.00  0.00    +0.000 C 
ATOM     14  O   UNL     1       5.435   2.287  11.655  0.00  0.00    +0.000 OA
ENDBRANCH   7  14
ENDBRANCH   1  11
BRANCH   3  15
ATOM     15  C   UNL     1       3.797   6.649  17.920  0.00  0.00    +0.000 A 
ATOM     16  C   UNL     1       3.565   7.974  17.601  0.00  0.00    +0.000 A 
ATOM     17  N   UNL     1       2.330   8.276  18.097  0.00  0.00    +0.000 N 
ATOM     18  N   UNL     1       1.718   7.243  18.690  0.00  0.00    +0.000 NA
ATOM     19  C   UNL     1       2.618   6.238  18.641  0.00  0.00    +0.000 A 
ATOM     20  H   UNL     1       1.843   9.161  18.054  0.00  0.00    +0.000 HD
BRANCH  19  21
ATOM     21  C   UNL     1       2.334   4.940  19.279  0.00  0.00    +0.000 A 
ATOM     22  C   UNL     1       2.360   4.797  20.664  0.00  0.00    +0.000 A 
ATOM     23  C   UNL     1       2.078   3.549  21.216  0.00  0.00    +0.000 A 
ATOM     24  C   UNL     1       1.765   2.486  20.377  0.00  0.00    +0.000 A 
ATOM     25  C   UNL     1       1.748   2.713  19.013  0.00  0.00    +0.000 A 
ATOM     26  N   UNL     1       2.036   3.905  18.454  0.00  0.00    +0.000 NA
ENDBRANCH  19  21
ENDBRANCH   3  15
TORSDOF 4
ENDMDL
MODEL 7
REMARK VINA RESULT:      -8.4      1.476      2.952
REMARK  Name = 
REMARK  5 active torsions:
REMARK  status: ('A' for Active; 'I' for Inactive)
REMARK    1  A    between atoms: C_1  and  O_2
REMARK    2  A    between atoms: O_2  and  C_3
REMARK    3  A    between atoms: C_7  and  C_8
REMARK    4  A    between atoms: C_10  and  C_11
REMARK    5  A    between atoms: C_15  and  C_16
REMARK                            x       y       z     vdW  Elec       q    Type
REMARK                         _______ _______ _______ _____ _____    ______ ____
ROOT
ATOM      1  C   UNL     1       6.354   5.014  15.614  0.00  0.00    +0.000 A 
ATOM      2  C   UNL     1       5.218   5.710  16.025  0.00  0.00    +0.000 A 
ATOM      3  C   UNL     1       5.009   6.009  17.371  0.00  0.00    +0.000 A 
ATOM      4  C   UNL     1       5.988   5.621  18.277  0.00  0.00    +0.000 A 
ATOM      5  C   UNL     1       7.100   4.946  17.799  0.00  0.00    +0.000 A 
ATOM      6  N   UNL     1       7.300   4.629  16.501  0.00  0.00    +0.000 NA
ENDROOT
BRANCH   1  11
ATOM      7  C   UNL     1       6.046   3.228  12.269  0.00  0.00    +0.000 A 
ATOM      8  C   UNL     1       7.026   3.878  11.524  0.00  0.00    +0.000 A 
ATOM      9  C   UNL     1       7.772   4.912  12.091  0.00  0.00    +0.000 A 
ATOM     10  C   UNL     1       7.546   5.294  13.415  0.00  0.00    +0.000 A 
ATOM     11  C   UNL     1       6.571   4.655  14.197  0.00  0.00    +0.000 A 
ATOM     12  C   UNL     1       5.818   3.631  13.586  0.00  0.00    +0.000 A 
BRANCH   7  14
ATOM     13  C   UNL     1       6.166   1.137  11.148  0.00  0.00    +0.000 C 
ATOM     14  O   UNL     1       5.376   2.222  11.627  0.00  0.00    +0.000 OA
ENDBRANCH   7  14
ENDBRANCH   1  11
BRANCH   3  15
ATOM     15  C   UNL     1       3.801   6.709  17.779  0.00  0.00    +0.000 A 
ATOM     16  C   UNL     1       3.616   8.066  17.591  0.00  0.00    +0.000 A 
ATOM     17  N   UNL     1       2.355   8.344  18.033  0.00  0.00    +0.000 N 
ATOM     18  N   UNL     1       1.685   7.270  18.468  0.00  0.00    +0.000 NA
ATOM     19  C   UNL     1       2.567   6.254  18.371  0.00  0.00    +0.000 A 
ATOM     20  H   UNL     1       1.889   9.241  18.055  0.00  0.00    +0.000 HD
BRANCH  19  21
ATOM     21  C   UNL     1       2.216   4.902  18.843  0.00  0.00    +0.000 A 
ATOM     22  C   UNL     1       1.884   3.890  17.946  0.00  0.00    +0.000 A 
ATOM     23  C   UNL     1       1.566   2.627  18.444  0.00  0.00    +0.000 A 
ATOM     24  C   UNL     1       1.603   2.406  19.817  0.00  0.00    +0.000 A 
ATOM     25  C   UNL     1       1.956   3.460  20.639  0.00  0.00    +0.000 A 
ATOM     26  N   UNL     1       2.248   4.694  20.183  0.00  0.00    +0.000 NA
ENDBRANCH  19  21
ENDBRANCH   3  15
TORSDOF 4
ENDMDL
MODEL 8
REMARK VINA RESULT:      -8.4      4.384      8.713
REMARK  Name = 
REMARK  5 active torsions:
REMARK  status: ('A' for Active; 'I' for Inactive)
REMARK    1  A    between atoms: C_1  and  O_2
REMARK    2  A    between atoms: O_2  and  C_3
REMARK    3  A    between atoms: C_7  and  C_8
REMARK    4  A    between atoms: C_10  and  C_11
REMARK    5  A    between atoms: C_15  and  C_16
REMARK                            x       y       z     vdW  Elec       q    Type
REMARK                         _______ _______ _______ _____ _____    ______ ____
ROOT
ATOM      1  C   UNL     1       1.264   8.832  19.961  0.00  0.00    +0.000 A 
ATOM      2  C   UNL     1       1.758   7.551  20.206  0.00  0.00    +0.000 A 
ATOM      3  C   UNL     1       2.449   6.849  19.218  0.00  0.00    +0.000 A 
ATOM      4  C   UNL     1       2.656   7.486  18.001  0.00  0.00    +0.000 A 
ATOM      5  C   UNL     1       2.151   8.765  17.829  0.00  0.00    +0.000 A 
ATOM      6  N   UNL     1       1.459   9.444  18.771  0.00  0.00    +0.000 NA
ENDROOT
BRANCH   1  11
ATOM      7  C   UNL     1      -0.630  11.631  21.708  0.00  0.00    +0.000 A 
ATOM      8  C   UNL     1      -0.886  11.052  22.948  0.00  0.00    +0.000 A 
ATOM      9  C   UNL     1      -0.470   9.747  23.215  0.00  0.00    +0.000 A 
ATOM     10  C   UNL     1       0.216   9.017  22.242  0.00  0.00    +0.000 A 
ATOM     11  C   UNL     1       0.496   9.573  20.984  0.00  0.00    +0.000 A 
ATOM     12  C   UNL     1       0.040  10.885  20.738  0.00  0.00    +0.000 A 
BRANCH   7  14
ATOM     13  C   UNL     1      -0.618  13.868  22.507  0.00  0.00    +0.000 C 
ATOM     14  O   UNL     1      -1.070  12.917  21.547  0.00  0.00    +0.000 OA
ENDBRANCH   7  14
ENDBRANCH   1  11
BRANCH   3  15
ATOM     15  C   UNL     1       2.928   5.503  19.486  0.00  0.00    +0.000 A 
ATOM     16  C   UNL     1       2.113   4.494  19.965  0.00  0.00    +0.000 A 
ATOM     17  N   UNL     1       2.888   3.373  20.027  0.00  0.00    +0.000 N 
ATOM     18  N   UNL     1       4.142   3.558  19.595  0.00  0.00    +0.000 NA
ATOM     19  C   UNL     1       4.212   4.873  19.301  0.00  0.00    +0.000 A 
ATOM     20  H   UNL     1       2.621   2.449  20.343  0.00  0.00    +0.000 HD
BRANCH  19  21
ATOM     21  C   UNL     1       5.482   5.482  18.865  0.00  0.00    +0.000 A 
ATOM     22  C   UNL     1       5.564   6.201  17.675  0.00  0.00    +0.000 A 
ATOM     23  C   UNL     1       6.788   6.763  17.313  0.00  0.00    +0.000 A 
ATOM     24  C   UNL     1       7.886   6.605  18.150  0.00  0.00    +0.000 A 
ATOM     25  C   UNL     1       7.717   5.888  19.321  0.00  0.00    +0.000 A 
ATOM     26  N   UNL     1       6.551   5.319  19.684  0.00  0.00    +0.000 NA
ENDBRANCH  19  21
ENDBRANCH   3  15
TORSDOF 4
ENDMDL
MODEL 9
REMARK VINA RESULT:      -8.2      3.032      7.657
REMARK  Name = 
REMARK  5 active torsions:
REMARK  status: ('A' for Active; 'I' for Inactive)
REMARK    1  A    between atoms: C_1  and  O_2
REMARK    2  A    between atoms: O_2  and  C_3
REMARK    3  A    between atoms: C_7  and  C_8
REMARK    4  A    between atoms: C_10  and  C_11
REMARK    5  A    between atoms: C_15  and  C_16
REMARK                            x       y       z     vdW  Elec       q    Type
REMARK                         _______ _______ _______ _____ _____    ______ ____
ROOT
ATOM      1  C   UNL     1       2.702   6.566  18.336  0.00  0.00    +0.000 A 
ATOM      2  C   UNL     1       4.085   6.390  18.352  0.00  0.00    +0.000 A 
ATOM      3  C   UNL     1       4.654   5.163  18.013  0.00  0.00    +0.000 A 
ATOM      4  C   UNL     1       3.797   4.140  17.625  0.00  0.00    +0.000 A 
ATOM      5  C   UNL     1       2.434   4.388  17.617  0.00  0.00    +0.000 A 
ATOM      6  N   UNL     1       1.871   5.566  17.968  0.00  0.00    +0.000 NA
ENDROOT
BRANCH   1  11
ATOM      7  C   UNL     1       0.988   9.237  20.435  0.00  0.00    +0.000 A 
ATOM      8  C   UNL     1       0.804  10.246  19.492  0.00  0.00    +0.000 A 
ATOM      9  C   UNL     1       1.257  10.077  18.183  0.00  0.00    +0.000 A 
ATOM     10  C   UNL     1       1.887   8.889  17.807  0.00  0.00    +0.000 A 
ATOM     11  C   UNL     1       2.081   7.849  18.730  0.00  0.00    +0.000 A 
ATOM     12  C   UNL     1       1.635   8.062  20.051  0.00  0.00    +0.000 A 
BRANCH   7  14
ATOM     13  C   UNL     1      -0.117  10.764  21.881  0.00  0.00    +0.000 C 
ATOM     14  O   UNL     1       0.502   9.494  21.688  0.00  0.00    +0.000 OA
ENDBRANCH   7  14
ENDBRANCH   1  11
BRANCH   3  15
ATOM     15  C   UNL     1       6.097   4.993  18.067  0.00  0.00    +0.000 A 
ATOM     16  C   UNL     1       6.822   5.072  19.241  0.00  0.00    +0.000 A 
ATOM     17  N   UNL     1       8.117   4.797  18.910  0.00  0.00    +0.000 N 
ATOM     18  N   UNL     1       8.295   4.511  17.614  0.00  0.00    +0.000 NA
ATOM     19  C   UNL     1       7.076   4.672  17.058  0.00  0.00    +0.000 A 
ATOM     20  H   UNL     1       8.923   4.775  19.521  0.00  0.00    +0.000 HD
BRANCH  19  21
ATOM     21  C   UNL     1       6.885   4.525  15.604  0.00  0.00    +0.000 A 
ATOM     22  C   UNL     1       5.907   3.678  15.088  0.00  0.00    +0.000 A 
ATOM     23  C   UNL     1       5.764   3.580  13.705  0.00  0.00    +0.000 A 
ATOM     24  C   UNL     1       6.586   4.337  12.878  0.00  0.00    +0.000 A 
ATOM     25  C   UNL     1       7.525   5.163  13.469  0.00  0.00    +0.000 A 
ATOM     26  N   UNL     1       7.696   5.261  14.802  0.00  0.00    +0.000 NA
ENDBRANCH  19  21
ENDBRANCH   3  15
TORSDOF 4
ENDMDL
