MODEL 1
REMARK VINA RESULT:      -7.8      0.000      0.000
REMARK  Name = 
REMARK  9 active torsions:
REMARK  status: ('A' for Active; 'I' for Inactive)
REMARK    1  A    between atoms: C_1  and  C_2
REMARK    2  A    between atoms: C_2  and  O_3
REMARK    3  A    between atoms: O_3  and  C_4
REMARK    4  A    between atoms: C_4  and  O_5
REMARK    5  A    between atoms: C_7  and  C_8
REMARK    6  A    between atoms: C_13  and  C_14
REMARK    7  A    between atoms: C_17  and  O_18
REMARK    8  A    between atoms: O_18  and  C_19
REMARK    9  A    between atoms: C_19  and  C_20
REMARK                            x       y       z     vdW  Elec       q    Type
REMARK                         _______ _______ _______ _____ _____    ______ ____
ROOT
ATOM      1  C   UNL     1       3.071   6.464  19.089  0.00  0.00    +0.000 A 
ATOM      2  C   UNL     1       3.155   7.294  17.963  0.00  0.00    +0.000 A 
ATOM      3  C   UNL     1       2.465   8.505  17.922  0.00  0.00    +0.000 A 
ATOM      4  C   UNL     1       1.656   8.898  18.989  0.00  0.00    +0.000 A 
ATOM      5  C   UNL     1       1.568   8.094  20.121  0.00  0.00    +0.000 A 
ATOM      6  C   UNL     1       2.270   6.883  20.171  0.00  0.00    +0.000 A 
ENDROOT
BRANCH   1  15
ATOM      7  C   UNL     1       2.451   3.751  17.651  0.00  0.00    +0.000 C 
ATOM      8  C   UNL     1       3.666   4.275  17.939  0.00  0.00    +0.000 C 
ATOM      9  C   UNL     1       4.926   4.083  17.146  0.00  0.00    +0.000 C 
ATOM     10  C   UNL     1       5.010   3.218  15.899  0.00  0.00    +0.000 C 
ATOM     11  N   UNL     1       6.070   4.601  17.462  0.00  0.00    +0.000 NA
ATOM     12  C   UNL     1       6.248   5.326  18.590  0.00  0.00    +0.000 C 
ATOM     13  S   UNL     1       7.700   6.051  19.006  0.00  0.00    +0.000 S 
ATOM     14  N   UNL     1       5.218   5.441  19.459  0.00  0.00    +0.000 N 
ATOM     15  C   UNL     1       3.838   5.151  19.157  0.00  0.00    +0.000 C 
ATOM     16  H   UNL     1       5.403   6.056  20.241  0.00  0.00    +0.000 HD
BRANCH   7  17
ATOM     17  O   UNL     1       2.222   3.036  16.505  0.00  0.00    +0.000 OA
ATOM     18  H   UNL     1       2.408   2.103  16.674  0.00  0.00    +0.000 HD
ENDBRANCH   7  17
BRANCH   7  19
ATOM     19  O   UNL     1       1.420   3.901  18.565  0.00  0.00    +0.000 OA
BRANCH  19  21
ATOM     20  C   UNL     1       1.191   3.003  20.774  0.00  0.00    +0.000 C 
ATOM     21  C   UNL     1       1.022   2.735  19.289  0.00  0.00    +0.000 C 
ENDBRANCH  19  21
ENDBRANCH   7  19
ENDBRANCH   1  15
BRANCH   4  22
ATOM     22  O   UNL     1       1.032  10.094  18.796  0.00  0.00    +0.000 OA
BRANCH  22  23
ATOM     23  C   UNL     1      -0.226  10.069  18.143  0.00  0.00    +0.000 C 
BRANCH  23  24
ATOM     24  C   UNL     1      -1.272  10.801  18.988  0.00  0.00    +0.000 C 
ATOM     25  O   UNL     1      -1.173  10.787  20.218  0.00  0.00    +0.000 OA
ATOM     26  N   UNL     1      -2.267  11.523  18.338  0.00  0.00    +0.000 N 
ATOM     27  C   UNL     1      -3.202  12.321  19.128  0.00  0.00    +0.000 C 
ATOM     28  C   UNL     1      -4.626  11.788  18.992  0.00  0.00    +0.000 C 
ATOM     29  C   UNL     1      -5.032  11.667  17.522  0.00  0.00    +0.000 C 
ATOM     30  C   UNL     1      -4.003  10.851  16.737  0.00  0.00    +0.000 C 
ATOM     31  C   UNL     1      -2.598  11.429  16.915  0.00  0.00    +0.000 C 
ENDBRANCH  23  24
ENDBRANCH  22  23
ENDBRANCH   4  22
TORSDOF 7
ENDMDL
MODEL 2
REMARK VINA RESULT:      -7.7      1.743      2.310
REMARK  Name = 
REMARK  9 active torsions:
REMARK  status: ('A' for Active; 'I' for Inactive)
REMARK    1  A    between atoms: C_1  and  C_2
REMARK    2  A    between atoms: C_2  and  O_3
REMARK    3  A    between atoms: O_3  and  C_4
REMARK    4  A    between atoms: C_4  and  O_5
REMARK    5  A    between atoms: C_7  and  C_8
REMARK    6  A    between atoms: C_13  and  C_14
REMARK    7  A    between atoms: C_17  and  O_18
REMARK    8  A    between atoms: O_18  and  C_19
REMARK    9  A    between atoms: C_19  and  C_20
REMARK                            x       y       z     vdW  Elec       q    Type
REMARK                         _______ _______ _______ _____ _____    ______ ____
ROOT
ATOM      1  C   UNL     1       3.031   6.621  19.017  0.00  0.00    +0.000 A 
ATOM      2  C   UNL     1       3.113   7.405  17.859  0.00  0.00    +0.000 A 
ATOM      3  C   UNL     1       2.420   8.612  17.769  0.00  0.00    +0.000 A 
ATOM      4  C   UNL     1       1.611   9.046  18.819  0.00  0.00    +0.000 A 
ATOM      5  C   UNL     1       1.524   8.289  19.983  0.00  0.00    +0.000 A 
ATOM      6  C   UNL     1       2.229   7.082  20.082  0.00  0.00    +0.000 A 
ENDROOT
BRANCH   1  15
ATOM      7  C   UNL     1       2.389   3.839  17.729  0.00  0.00    +0.000 C 
ATOM      8  C   UNL     1       3.608   4.378  17.969  0.00  0.00    +0.000 C 
ATOM      9  C   UNL     1       4.855   4.146  17.165  0.00  0.00    +0.000 C 
ATOM     10  C   UNL     1       4.919   3.220  15.962  0.00  0.00    +0.000 C 
ATOM     11  N   UNL     1       6.003   4.680  17.435  0.00  0.00    +0.000 NA
ATOM     12  C   UNL     1       6.200   5.461  18.522  0.00  0.00    +0.000 C 
ATOM     13  S   UNL     1       7.657   6.206  18.876  0.00  0.00    +0.000 S 
ATOM     14  N   UNL     1       5.184   5.619  19.402  0.00  0.00    +0.000 N 
ATOM     15  C   UNL     1       3.799   5.314  19.139  0.00  0.00    +0.000 C 
ATOM     16  H   UNL     1       5.382   6.272  20.148  0.00  0.00    +0.000 HD
BRANCH   7  17
ATOM     17  O   UNL     1       2.141   3.068  16.624  0.00  0.00    +0.000 OA
ATOM     18  H   UNL     1       2.877   2.454  16.498  0.00  0.00    +0.000 HD
ENDBRANCH   7  17
BRANCH   7  19
ATOM     19  O   UNL     1       1.373   4.035  18.652  0.00  0.00    +0.000 OA
BRANCH  19  21
ATOM     20  C   UNL     1       1.206   3.258  20.911  0.00  0.00    +0.000 C 
ATOM     21  C   UNL     1       0.997   2.909  19.448  0.00  0.00    +0.000 C 
ENDBRANCH  19  21
ENDBRANCH   7  19
ENDBRANCH   1  15
BRANCH   4  22
ATOM     22  O   UNL     1       0.985  10.233  18.578  0.00  0.00    +0.000 OA
BRANCH  22  23
ATOM     23  C   UNL     1       1.226  11.288  19.494  0.00  0.00    +0.000 C 
BRANCH  23  24
ATOM     24  C   UNL     1      -0.038  12.137  19.663  0.00  0.00    +0.000 C 
ATOM     25  O   UNL     1      -0.182  13.150  18.973  0.00  0.00    +0.000 OA
ATOM     26  N   UNL     1      -1.023  11.698  20.542  0.00  0.00    +0.000 N 
ATOM     27  C   UNL     1      -2.282  12.433  20.628  0.00  0.00    +0.000 C 
ATOM     28  C   UNL     1      -2.461  13.053  22.012  0.00  0.00    +0.000 C 
ATOM     29  C   UNL     1      -2.303  12.002  23.111  0.00  0.00    +0.000 C 
ATOM     30  C   UNL     1      -0.983  11.242  22.954  0.00  0.00    +0.000 C 
ATOM     31  C   UNL     1      -0.860  10.648  21.550  0.00  0.00    +0.000 C 
ENDBRANCH  23  24
ENDBRANCH  22  23
ENDBRANCH   4  22
TORSDOF 7
ENDMDL
MODEL 3
REMARK VINA RESULT:      -7.6      0.646      1.186
REMARK  Name = 
REMARK  9 active torsions:
REMARK  status: ('A' for Active; 'I' for Inactive)
REMARK    1  A    between atoms: C_1  and  C_2
REMARK    2  A    between atoms: C_2  and  O_3
REMARK    3  A    between atoms: O_3  and  C_4
REMARK    4  A    between atoms: C_4  and  O_5
REMARK    5  A    between atoms: C_7  and  C_8
REMARK    6  A    between atoms: C_13  and  C_14
REMARK    7  A    between atoms: C_17  and  O_18
REMARK    8  A    between atoms: O_18  and  C_19
REMARK    9  A    between atoms: C_19  and  C_20
REMARK                            x       y       z     vdW  Elec       q    Type
REMARK                         _______ _______ _______ _____ _____    ______ ____
ROOT
ATOM      1  C   UNL     1       3.035   6.629  19.069  0.00  0.00    +0.000 A 
ATOM      2  C   UNL     1       2.225   7.106  20.108  0.00  0.00    +0.000 A 
ATOM      3  C   UNL     1       1.526   8.304  19.968  0.00  0.00    +0.000 A 
ATOM      4  C   UNL     1       1.643   9.063  18.803  0.00  0.00    +0.000 A 
ATOM      5  C   UNL     1       2.432   8.602  17.755  0.00  0.00    +0.000 A 
ATOM      6  C   UNL     1       3.126   7.392  17.887  0.00  0.00    +0.000 A 
ENDROOT
BRANCH   1  15
ATOM      7  C   UNL     1       2.336   3.842  17.822  0.00  0.00    +0.000 C 
ATOM      8  C   UNL     1       3.566   4.364  18.043  0.00  0.00    +0.000 C 
ATOM      9  C   UNL     1       4.800   4.104  17.228  0.00  0.00    +0.000 C 
ATOM     10  C   UNL     1       4.836   3.162  16.035  0.00  0.00    +0.000 C 
ATOM     11  N   UNL     1       5.959   4.623  17.478  0.00  0.00    +0.000 NA
ATOM     12  C   UNL     1       6.180   5.413  18.553  0.00  0.00    +0.000 C 
ATOM     13  S   UNL     1       7.653   6.141  18.881  0.00  0.00    +0.000 S 
ATOM     14  N   UNL     1       5.177   5.598  19.442  0.00  0.00    +0.000 N 
ATOM     15  C   UNL     1       3.785   5.311  19.198  0.00  0.00    +0.000 C 
ATOM     16  H   UNL     1       5.394   6.257  20.178  0.00  0.00    +0.000 HD
BRANCH   7  17
ATOM     17  O   UNL     1       2.064   3.061  16.730  0.00  0.00    +0.000 OA
ATOM     18  H   UNL     1       2.350   2.156  16.911  0.00  0.00    +0.000 HD
ENDBRANCH   7  17
BRANCH   7  19
ATOM     19  O   UNL     1       1.334   4.065  18.754  0.00  0.00    +0.000 OA
BRANCH  19  21
ATOM     20  C   UNL     1       1.275   3.170  20.975  0.00  0.00    +0.000 C 
ATOM     21  C   UNL     1       0.902   2.938  19.521  0.00  0.00    +0.000 C 
ENDBRANCH  19  21
ENDBRANCH   7  19
ENDBRANCH   1  15
BRANCH   4  22
ATOM     22  O   UNL     1       0.915  10.216  18.821  0.00  0.00    +0.000 OA
BRANCH  22  23
ATOM     23  C   UNL     1      -0.496  10.089  18.789  0.00  0.00    +0.000 C 
BRANCH  23  24
ATOM     24  C   UNL     1      -1.135  11.072  19.775  0.00  0.00    +0.000 C 
ATOM     25  O   UNL     1      -0.685  11.157  20.921  0.00  0.00    +0.000 OA
ATOM     26  N   UNL     1      -2.162  11.895  19.325  0.00  0.00    +0.000 N 
ATOM     27  C   UNL     1      -2.702  12.917  20.218  0.00  0.00    +0.000 C 
ATOM     28  C   UNL     1      -4.165  12.634  20.551  0.00  0.00    +0.000 C 
ATOM     29  C   UNL     1      -4.994  12.449  19.280  0.00  0.00    +0.000 C 
ATOM     30  C   UNL     1      -4.367  11.392  18.367  0.00  0.00    +0.000 C 
ATOM     31  C   UNL     1      -2.903  11.726  18.073  0.00  0.00    +0.000 C 
ENDBRANCH  23  24
ENDBRANCH  22  23
ENDBRANCH   4  22
TORSDOF 7
ENDMDL
MODEL 4
REMARK VINA RESULT:      -7.6      1.792      2.344
REMARK  Name = 
REMARK  9 active torsions:
REMARK  status: ('A' for Active; 'I' for Inactive)
REMARK    1  A    between atoms: C_1  and  C_2
REMARK    2  A    between atoms: C_2  and  O_3
REMARK    3  A    between atoms: O_3  and  C_4
REMARK    4  A    between atoms: C_4  and  O_5
REMARK    5  A    between atoms: C_7  and  C_8
REMARK    6  A    between atoms: C_13  and  C_14
REMARK    7  A    between atoms: C_17  and  O_18
REMARK    8  A    between atoms: O_18  and  C_19
REMARK    9  A    between atoms: C_19  and  C_20
REMARK                            x       y       z     vdW  Elec       q    Type
REMARK                         _______ _______ _______ _____ _____    ______ ____
ROOT
ATOM      1  C   UNL     1       3.074   6.391  19.167  0.00  0.00    +0.000 A 
ATOM      2  C   UNL     1       3.050   7.255  18.063  0.00  0.00    +0.000 A 
ATOM      3  C   UNL     1       2.318   8.441  18.107  0.00  0.00    +0.000 A 
ATOM      4  C   UNL     1       1.575   8.776  19.239  0.00  0.00    +0.000 A 
ATOM      5  C   UNL     1       1.594   7.939  20.350  0.00  0.00    +0.000 A 
ATOM      6  C   UNL     1       2.338   6.753  20.315  0.00  0.00    +0.000 A 
ENDROOT
BRANCH   1  15
ATOM      7  C   UNL     1       2.501   3.737  17.606  0.00  0.00    +0.000 C 
ATOM      8  C   UNL     1       3.706   4.289  17.886  0.00  0.00    +0.000 C 
ATOM      9  C   UNL     1       4.947   4.184  17.047  0.00  0.00    +0.000 C 
ATOM     10  C   UNL     1       5.022   3.389  15.754  0.00  0.00    +0.000 C 
ATOM     11  N   UNL     1       6.082   4.725  17.356  0.00  0.00    +0.000 NA
ATOM     12  C   UNL     1       6.270   5.396  18.516  0.00  0.00    +0.000 C 
ATOM     13  S   UNL     1       7.708   6.150  18.927  0.00  0.00    +0.000 S 
ATOM     14  N   UNL     1       5.264   5.429  19.420  0.00  0.00    +0.000 N 
ATOM     15  C   UNL     1       3.886   5.106  19.143  0.00  0.00    +0.000 C 
ATOM     16  H   UNL     1       5.453   6.008  20.227  0.00  0.00    +0.000 HD
BRANCH   7  17
ATOM     17  O   UNL     1       2.261   3.076  16.430  0.00  0.00    +0.000 OA
ATOM     18  H   UNL     1       2.179   2.131  16.612  0.00  0.00    +0.000 HD
ENDBRANCH   7  17
BRANCH   7  19
ATOM     19  O   UNL     1       1.495   3.803  18.557  0.00  0.00    +0.000 OA
BRANCH  19  21
ATOM     20  C   UNL     1       1.267   2.949  20.783  0.00  0.00    +0.000 C 
ATOM     21  C   UNL     1       1.232   2.612  19.303  0.00  0.00    +0.000 C 
ENDBRANCH  19  21
ENDBRANCH   7  19
ENDBRANCH   1  15
BRANCH   4  22
ATOM     22  O   UNL     1       0.900   9.955  19.126  0.00  0.00    +0.000 OA
BRANCH  22  23
ATOM     23  C   UNL     1      -0.188  10.164  20.012  0.00  0.00    +0.000 C 
BRANCH  23  24
ATOM     24  C   UNL     1       0.172  11.241  21.039  0.00  0.00    +0.000 C 
ATOM     25  O   UNL     1       1.199  11.117  21.712  0.00  0.00    +0.000 OA
ATOM     26  N   UNL     1      -0.638  12.369  21.133  0.00  0.00    +0.000 N 
ATOM     27  C   UNL     1      -0.245  13.458  22.025  0.00  0.00    +0.000 C 
ATOM     28  C   UNL     1      -1.257  13.631  23.155  0.00  0.00    +0.000 C 
ATOM     29  C   UNL     1      -2.675  13.786  22.605  0.00  0.00    +0.000 C 
ATOM     30  C   UNL     1      -3.022  12.638  21.655  0.00  0.00    +0.000 C 
ATOM     31  C   UNL     1      -1.973  12.511  20.548  0.00  0.00    +0.000 C 
ENDBRANCH  23  24
ENDBRANCH  22  23
ENDBRANCH   4  22
TORSDOF 7
ENDMDL
MODEL 5
REMARK VINA RESULT:      -7.5      1.752      2.337
REMARK  Name = 
REMARK  9 active torsions:
REMARK  status: ('A' for Active; 'I' for Inactive)
REMARK    1  A    between atoms: C_1  and  C_2
REMARK    2  A    between atoms: C_2  and  O_3
REMARK    3  A    between atoms: O_3  and  C_4
REMARK    4  A    between atoms: C_4  and  O_5
REMARK    5  A    between atoms: C_7  and  C_8
REMARK    6  A    between atoms: C_13  and  C_14
REMARK    7  A    between atoms: C_17  and  O_18
REMARK    8  A    between atoms: O_18  and  C_19
REMARK    9  A    between atoms: C_19  and  C_20
REMARK                            x       y       z     vdW  Elec       q    Type
REMARK                         _______ _______ _______ _____ _____    ______ ____
ROOT
ATOM      1  C   UNL     1       3.060   6.416  19.247  0.00  0.00    +0.000 A 
ATOM      2  C   UNL     1       2.278   6.693  20.377  0.00  0.00    +0.000 A 
ATOM      3  C   UNL     1       1.458   7.820  20.412  0.00  0.00    +0.000 A 
ATOM      4  C   UNL     1       1.422   8.707  19.336  0.00  0.00    +0.000 A 
ATOM      5  C   UNL     1       2.181   8.445  18.200  0.00  0.00    +0.000 A 
ATOM      6  C   UNL     1       2.997   7.307  18.156  0.00  0.00    +0.000 A 
ENDROOT
BRANCH   1  15
ATOM      7  C   UNL     1       2.524   3.697  17.786  0.00  0.00    +0.000 C 
ATOM      8  C   UNL     1       3.713   4.323  17.961  0.00  0.00    +0.000 C 
ATOM      9  C   UNL     1       4.890   4.268  17.029  0.00  0.00    +0.000 C 
ATOM     10  C   UNL     1       4.911   3.448  15.750  0.00  0.00    +0.000 C 
ATOM     11  N   UNL     1       6.011   4.880  17.238  0.00  0.00    +0.000 NA
ATOM     12  C   UNL     1       6.249   5.587  18.366  0.00  0.00    +0.000 C 
ATOM     13  S   UNL     1       7.668   6.431  18.649  0.00  0.00    +0.000 S 
ATOM     14  N   UNL     1       5.315   5.584  19.346  0.00  0.00    +0.000 N 
ATOM     15  C   UNL     1       3.941   5.178  19.184  0.00  0.00    +0.000 C 
ATOM     16  H   UNL     1       5.532   6.192  20.125  0.00  0.00    +0.000 HD
BRANCH   7  17
ATOM     17  O   UNL     1       2.233   2.996  16.645  0.00  0.00    +0.000 OA
ATOM     18  H   UNL     1       1.668   2.246  16.873  0.00  0.00    +0.000 HD
ENDBRANCH   7  17
BRANCH   7  19
ATOM     19  O   UNL     1       1.592   3.728  18.811  0.00  0.00    +0.000 OA
BRANCH  19  21
ATOM     20  C   UNL     1       1.323   2.992  21.074  0.00  0.00    +0.000 C 
ATOM     21  C   UNL     1       1.490   2.560  19.628  0.00  0.00    +0.000 C 
ENDBRANCH  19  21
ENDBRANCH   7  19
ENDBRANCH   1  15
BRANCH   4  22
ATOM     22  O   UNL     1       0.589   9.769  19.525  0.00  0.00    +0.000 OA
BRANCH  22  23
ATOM     23  C   UNL     1       1.117  10.889  20.215  0.00  0.00    +0.000 C 
BRANCH  23  24
ATOM     24  C   UNL     1       0.363  11.099  21.532  0.00  0.00    +0.000 C 
ATOM     25  O   UNL     1       0.630  10.384  22.502  0.00  0.00    +0.000 OA
ATOM     26  N   UNL     1      -0.555  12.141  21.615  0.00  0.00    +0.000 N 
ATOM     27  C   UNL     1      -1.196  12.427  22.896  0.00  0.00    +0.000 C 
ATOM     28  C   UNL     1      -2.702  12.183  22.820  0.00  0.00    +0.000 C 
ATOM     29  C   UNL     1      -3.326  12.947  21.652  0.00  0.00    +0.000 C 
ATOM     30  C   UNL     1      -2.596  12.636  20.343  0.00  0.00    +0.000 C 
ATOM     31  C   UNL     1      -1.094  12.894  20.481  0.00  0.00    +0.000 C 
ENDBRANCH  23  24
ENDBRANCH  22  23
ENDBRANCH   4  22
TORSDOF 7
ENDMDL
MODEL 6
REMARK VINA RESULT:      -7.5      2.714      8.796
REMARK  Name = 
REMARK  9 active torsions:
REMARK  status: ('A' for Active; 'I' for Inactive)
REMARK    1  A    between atoms: C_1  and  C_2
REMARK    2  A    between atoms: C_2  and  O_3
REMARK    3  A    between atoms: O_3  and  C_4
REMARK    4  A    between atoms: C_4  and  O_5
REMARK    5  A    between atoms: C_7  and  C_8
REMARK    6  A    between atoms: C_13  and  C_14
REMARK    7  A    between atoms: C_17  and  O_18
REMARK    8  A    between atoms: O_18  and  C_19
REMARK    9  A    between atoms: C_19  and  C_20
REMARK                            x       y       z     vdW  Elec       q    Type
REMARK                         _______ _______ _______ _____ _____    ______ ____
ROOT
ATOM      1  C   UNL     1       1.227   9.923  18.825  0.00  0.00    +0.000 A 
ATOM      2  C   UNL     1       1.074   9.348  20.095  0.00  0.00    +0.000 A 
ATOM      3  C   UNL     1       1.558   8.068  20.356  0.00  0.00    +0.000 A 
ATOM      4  C   UNL     1       2.180   7.324  19.353  0.00  0.00    +0.000 A 
ATOM      5  C   UNL     1       2.353   7.879  18.089  0.00  0.00    +0.000 A 
ATOM      6  C   UNL     1       1.878   9.170  17.826  0.00  0.00    +0.000 A 
ENDROOT
BRANCH   1  15
ATOM      7  C   UNL     1      -1.715  10.904  18.393  0.00  0.00    +0.000 C 
ATOM      8  C   UNL     1      -0.696  11.578  18.977  0.00  0.00    +0.000 C 
ATOM      9  C   UNL     1      -0.819  12.592  20.078  0.00  0.00    +0.000 C 
ATOM     10  C   UNL     1      -2.147  13.034  20.669  0.00  0.00    +0.000 C 
ATOM     11  N   UNL     1       0.185  13.217  20.606  0.00  0.00    +0.000 NA
ATOM     12  C   UNL     1       1.453  13.053  20.162  0.00  0.00    +0.000 C 
ATOM     13  S   UNL     1       2.780  13.806  20.852  0.00  0.00    +0.000 S 
ATOM     14  N   UNL     1       1.667  12.275  19.076  0.00  0.00    +0.000 N 
ATOM     15  C   UNL     1       0.725  11.328  18.531  0.00  0.00    +0.000 C 
ATOM     16  H   UNL     1       2.643  12.142  18.849  0.00  0.00    +0.000 HD
BRANCH   7  17
ATOM     17  O   UNL     1      -3.008  11.020  18.831  0.00  0.00    +0.000 OA
ATOM     18  H   UNL     1      -3.133  10.446  19.598  0.00  0.00    +0.000 HD
ENDBRANCH   7  17
BRANCH   7  19
ATOM     19  O   UNL     1      -1.450  10.110  17.288  0.00  0.00    +0.000 OA
BRANCH  19  21
ATOM     20  C   UNL     1      -2.798  10.758  15.417  0.00  0.00    +0.000 C 
ATOM     21  C   UNL     1      -2.570   9.712  16.494  0.00  0.00    +0.000 C 
ENDBRANCH  19  21
ENDBRANCH   7  19
ENDBRANCH   1  15
BRANCH   4  22
ATOM     22  O   UNL     1       2.584   6.085  19.754  0.00  0.00    +0.000 OA
BRANCH  22  23
ATOM     23  C   UNL     1       3.938   5.739  19.514  0.00  0.00    +0.000 C 
BRANCH  23  24
ATOM     24  C   UNL     1       4.028   4.746  18.351  0.00  0.00    +0.000 C 
ATOM     25  O   UNL     1       3.481   3.645  18.453  0.00  0.00    +0.000 OA
ATOM     26  N   UNL     1       4.666   5.147  17.182  0.00  0.00    +0.000 N 
ATOM     27  C   UNL     1       4.659   4.256  16.024  0.00  0.00    +0.000 C 
ATOM     28  C   UNL     1       6.073   3.795  15.680  0.00  0.00    +0.000 C 
ATOM     29  C   UNL     1       7.017   4.988  15.515  0.00  0.00    +0.000 C 
ATOM     30  C   UNL     1       6.960   5.903  16.741  0.00  0.00    +0.000 C 
ATOM     31  C   UNL     1       5.520   6.327  17.038  0.00  0.00    +0.000 C 
ENDBRANCH  23  24
ENDBRANCH  22  23
ENDBRANCH   4  22
TORSDOF 7
ENDMDL
MODEL 7
REMARK VINA RESULT:      -7.5      3.024      8.501
REMARK  Name = 
REMARK  9 active torsions:
REMARK  status: ('A' for Active; 'I' for Inactive)
REMARK    1  A    between atoms: C_1  and  C_2
REMARK    2  A    between atoms: C_2  and  O_3
REMARK    3  A    between atoms: O_3  and  C_4
REMARK    4  A    between atoms: C_4  and  O_5
REMARK    5  A    between atoms: C_7  and  C_8
REMARK    6  A    between atoms: C_13  and  C_14
REMARK    7  A    between atoms: C_17  and  O_18
REMARK    8  A    between atoms: O_18  and  C_19
REMARK    9  A    between atoms: C_19  and  C_20
REMARK                            x       y       z     vdW  Elec       q    Type
REMARK                         _______ _______ _______ _____ _____    ______ ____
ROOT
ATOM      1  C   UNL     1       0.589   9.413  19.172  0.00  0.00    +0.000 A 
ATOM      2  C   UNL     1       1.252   9.550  17.945  0.00  0.00    +0.000 A 
ATOM      3  C   UNL     1       2.311   8.705  17.614  0.00  0.00    +0.000 A 
ATOM      4  C   UNL     1       2.747   7.728  18.508  0.00  0.00    +0.000 A 
ATOM      5  C   UNL     1       2.096   7.567  19.727  0.00  0.00    +0.000 A 
ATOM      6  C   UNL     1       1.024   8.405  20.058  0.00  0.00    +0.000 A 
ENDROOT
BRANCH   1  15
ATOM      7  C   UNL     1       0.558  11.948  21.012  0.00  0.00    +0.000 C 
ATOM      8  C   UNL     1      -0.185  11.722  19.903  0.00  0.00    +0.000 C 
ATOM      9  C   UNL     1      -0.682  12.761  18.940  0.00  0.00    +0.000 C 
ATOM     10  C   UNL     1      -0.436  14.251  19.112  0.00  0.00    +0.000 C 
ATOM     11  N   UNL     1      -1.395  12.500  17.891  0.00  0.00    +0.000 NA
ATOM     12  C   UNL     1      -1.817  11.249  17.598  0.00  0.00    +0.000 C 
ATOM     13  S   UNL     1      -2.699  10.866  16.227  0.00  0.00    +0.000 S 
ATOM     14  N   UNL     1      -1.555  10.251  18.475  0.00  0.00    +0.000 N 
ATOM     15  C   UNL     1      -0.583  10.311  19.538  0.00  0.00    +0.000 C 
ATOM     16  H   UNL     1      -1.837   9.335  18.153  0.00  0.00    +0.000 HD
BRANCH   7  17
ATOM     17  O   UNL     1       1.029  13.195  21.328  0.00  0.00    +0.000 OA
ATOM     18  H   UNL     1       0.745  13.820  20.649  0.00  0.00    +0.000 HD
ENDBRANCH   7  17
BRANCH   7  19
ATOM     19  O   UNL     1       0.811  10.895  21.878  0.00  0.00    +0.000 OA
BRANCH  19  21
ATOM     20  C   UNL     1       0.179   9.280  23.530  0.00  0.00    +0.000 C 
ATOM     21  C   UNL     1      -0.243  10.525  22.770  0.00  0.00    +0.000 C 
ENDBRANCH  19  21
ENDBRANCH   7  19
ENDBRANCH   1  15
BRANCH   4  22
ATOM     22  O   UNL     1       3.801   6.994  18.052  0.00  0.00    +0.000 OA
BRANCH  22  23
ATOM     23  C   UNL     1       4.291   5.970  18.901  0.00  0.00    +0.000 C 
BRANCH  23  24
ATOM     24  C   UNL     1       3.854   4.599  18.378  0.00  0.00    +0.000 C 
ATOM     25  O   UNL     1       4.186   4.251  17.242  0.00  0.00    +0.000 OA
ATOM     26  N   UNL     1       3.152   3.753  19.231  0.00  0.00    +0.000 N 
ATOM     27  C   UNL     1       2.830   2.399  18.788  0.00  0.00    +0.000 C 
ATOM     28  C   UNL     1       1.319   2.208  18.670  0.00  0.00    +0.000 C 
ATOM     29  C   UNL     1       0.611   2.600  19.967  0.00  0.00    +0.000 C 
ATOM     30  C   UNL     1       1.009   4.012  20.402  0.00  0.00    +0.000 C 
ATOM     31  C   UNL     1       2.531   4.144  20.498  0.00  0.00    +0.000 C 
ENDBRANCH  23  24
ENDBRANCH  22  23
ENDBRANCH   4  22
TORSDOF 7
ENDMDL
MODEL 8
REMARK VINA RESULT:      -7.5      2.800      8.847
REMARK  Name = 
REMARK  9 active torsions:
REMARK  status: ('A' for Active; 'I' for Inactive)
REMARK    1  A    between atoms: C_1  and  C_2
REMARK    2  A    between atoms: C_2  and  O_3
REMARK    3  A    between atoms: O_3  and  C_4
REMARK    4  A    between atoms: C_4  and  O_5
REMARK    5  A    between atoms: C_7  and  C_8
REMARK    6  A    between atoms: C_13  and  C_14
REMARK    7  A    between atoms: C_17  and  O_18
REMARK    8  A    between atoms: O_18  and  C_19
REMARK    9  A    between atoms: C_19  and  C_20
REMARK                            x       y       z     vdW  Elec       q    Type
REMARK                         _______ _______ _______ _____ _____    ______ ____
ROOT
ATOM      1  C   UNL     1       1.186  10.280  18.876  0.00  0.00    +0.000 A 
ATOM      2  C   UNL     1       0.988   9.651  20.113  0.00  0.00    +0.000 A 
ATOM      3  C   UNL     1       1.433   8.347  20.324  0.00  0.00    +0.000 A 
ATOM      4  C   UNL     1       2.057   7.634  19.300  0.00  0.00    +0.000 A 
ATOM      5  C   UNL     1       2.275   8.243  18.068  0.00  0.00    +0.000 A 
ATOM      6  C   UNL     1       1.841   9.558  17.856  0.00  0.00    +0.000 A 
ENDROOT
BRANCH   1  15
ATOM      7  C   UNL     1      -1.726  11.372  18.508  0.00  0.00    +0.000 C 
ATOM      8  C   UNL     1      -0.680  11.991  19.107  0.00  0.00    +0.000 C 
ATOM      9  C   UNL     1      -0.758  12.968  20.244  0.00  0.00    +0.000 C 
ATOM     10  C   UNL     1      -2.066  13.431  20.865  0.00  0.00    +0.000 C 
ATOM     11  N   UNL     1       0.270  13.539  20.784  0.00  0.00    +0.000 NA
ATOM     12  C   UNL     1       1.527  13.350  20.322  0.00  0.00    +0.000 C 
ATOM     13  S   UNL     1       2.886  14.033  21.025  0.00  0.00    +0.000 S 
ATOM     14  N   UNL     1       1.706  12.605  19.206  0.00  0.00    +0.000 N 
ATOM     15  C   UNL     1       0.728  11.711  18.638  0.00  0.00    +0.000 C 
ATOM     16  H   UNL     1       2.675  12.449  18.965  0.00  0.00    +0.000 HD
BRANCH   7  17
ATOM     17  O   UNL     1      -3.010  11.515  18.964  0.00  0.00    +0.000 OA
ATOM     18  H   UNL     1      -2.988  11.719  19.908  0.00  0.00    +0.000 HD
ENDBRANCH   7  17
BRANCH   7  19
ATOM     19  O   UNL     1      -1.497  10.611  17.373  0.00  0.00    +0.000 OA
BRANCH  19  21
ATOM     20  C   UNL     1      -2.824  10.360  15.395  0.00  0.00    +0.000 C 
ATOM     21  C   UNL     1      -2.616   9.907  16.830  0.00  0.00    +0.000 C 
ENDBRANCH  19  21
ENDBRANCH   7  19
ENDBRANCH   1  15
BRANCH   4  22
ATOM     22  O   UNL     1       2.419   6.367  19.651  0.00  0.00    +0.000 OA
BRANCH  22  23
ATOM     23  C   UNL     1       2.706   5.463  18.598  0.00  0.00    +0.000 C 
BRANCH  23  24
ATOM     24  C   UNL     1       4.099   4.856  18.791  0.00  0.00    +0.000 C 
ATOM     25  O   UNL     1       4.284   4.042  19.700  0.00  0.00    +0.000 OA
ATOM     26  N   UNL     1       5.102   5.190  17.886  0.00  0.00    +0.000 N 
ATOM     27  C   UNL     1       6.403   4.532  17.988  0.00  0.00    +0.000 C 
ATOM     28  C   UNL     1       7.498   5.537  18.334  0.00  0.00    +0.000 C 
ATOM     29  C   UNL     1       7.495   6.714  17.359  0.00  0.00    +0.000 C 
ATOM     30  C   UNL     1       6.104   7.345  17.268  0.00  0.00    +0.000 C 
ATOM     31  C   UNL     1       5.049   6.291  16.923  0.00  0.00    +0.000 C 
ENDBRANCH  23  24
ENDBRANCH  22  23
ENDBRANCH   4  22
TORSDOF 7
ENDMDL
MODEL 9
REMARK VINA RESULT:      -7.5      3.096      8.596
REMARK  Name = 
REMARK  9 active torsions:
REMARK  status: ('A' for Active; 'I' for Inactive)
REMARK    1  A    between atoms: C_1  and  C_2
REMARK    2  A    between atoms: C_2  and  O_3
REMARK    3  A    between atoms: O_3  and  C_4
REMARK    4  A    between atoms: C_4  and  O_5
REMARK    5  A    between atoms: C_7  and  C_8
REMARK    6  A    between atoms: C_13  and  C_14
REMARK    7  A    between atoms: C_17  and  O_18
REMARK    8  A    between atoms: O_18  and  C_19
REMARK    9  A    between atoms: C_19  and  C_20
REMARK                            x       y       z     vdW  Elec       q    Type
REMARK                         _______ _______ _______ _____ _____    ______ ____
ROOT
ATOM      1  C   UNL     1       1.126  10.329  18.961  0.00  0.00    +0.000 A 
ATOM      2  C   UNL     1       0.926   9.786  20.237  0.00  0.00    +0.000 A 
ATOM      3  C   UNL     1       1.375   8.501  20.539  0.00  0.00    +0.000 A 
ATOM      4  C   UNL     1       2.007   7.723  19.569  0.00  0.00    +0.000 A 
ATOM      5  C   UNL     1       2.227   8.246  18.300  0.00  0.00    +0.000 A 
ATOM      6  C   UNL     1       1.788   9.541  17.996  0.00  0.00    +0.000 A 
ENDROOT
BRANCH   1  15
ATOM      7  C   UNL     1      -1.787  11.373  18.477  0.00  0.00    +0.000 C 
ATOM      8  C   UNL     1      -0.755  12.037  19.050  0.00  0.00    +0.000 C 
ATOM      9  C   UNL     1      -0.858  13.085  20.121  0.00  0.00    +0.000 C 
ATOM     10  C   UNL     1      -2.179  13.577  20.689  0.00  0.00    +0.000 C 
ATOM     11  N   UNL     1       0.157  13.698  20.639  0.00  0.00    +0.000 NA
ATOM     12  C   UNL     1       1.423  13.489  20.210  0.00  0.00    +0.000 C 
ATOM     13  S   UNL     1       2.765  14.227  20.888  0.00  0.00    +0.000 S 
ATOM     14  N   UNL     1       1.625  12.675  19.148  0.00  0.00    +0.000 N 
ATOM     15  C   UNL     1       0.663  11.737  18.623  0.00  0.00    +0.000 C 
ATOM     16  H   UNL     1       2.599  12.510  18.932  0.00  0.00    +0.000 HD
BRANCH   7  17
ATOM     17  O   UNL     1      -3.079  11.535  18.902  0.00  0.00    +0.000 OA
ATOM     18  H   UNL     1      -3.624  11.808  18.153  0.00  0.00    +0.000 HD
ENDBRANCH   7  17
BRANCH   7  19
ATOM     19  O   UNL     1      -1.534  10.541  17.397  0.00  0.00    +0.000 OA
BRANCH  19  21
ATOM     20  C   UNL     1      -2.762  10.234  15.364  0.00  0.00    +0.000 C 
ATOM     21  C   UNL     1      -2.655   9.858  16.831  0.00  0.00    +0.000 C 
ENDBRANCH  19  21
ENDBRANCH   7  19
ENDBRANCH   1  15
BRANCH   4  22
ATOM     22  O   UNL     1       2.373   6.485  20.008  0.00  0.00    +0.000 OA
BRANCH  22  23
ATOM     23  C   UNL     1       1.395   5.732  20.706  0.00  0.00    +0.000 C 
BRANCH  23  24
ATOM     24  C   UNL     1       1.786   4.251  20.724  0.00  0.00    +0.000 C 
ATOM     25  O   UNL     1       2.133   3.730  21.788  0.00  0.00    +0.000 OA
ATOM     26  N   UNL     1       1.669   3.517  19.548  0.00  0.00    +0.000 N 
ATOM     27  C   UNL     1       1.927   2.079  19.576  0.00  0.00    +0.000 C 
ATOM     28  C   UNL     1       3.143   1.725  18.723  0.00  0.00    +0.000 C 
ATOM     29  C   UNL     1       3.003   2.283  17.306  0.00  0.00    +0.000 C 
ATOM     30  C   UNL     1       2.703   3.783  17.337  0.00  0.00    +0.000 C 
ATOM     31  C   UNL     1       1.480   4.077  18.208  0.00  0.00    +0.000 C 
ENDBRANCH  23  24
ENDBRANCH  22  23
ENDBRANCH   4  22
TORSDOF 7
ENDMDL
