MODEL 1
REMARK VINA RESULT:      -8.0      0.000      0.000
REMARK  Name = 
REMARK  6 active torsions:
REMARK  status: ('A' for Active; 'I' for Inactive)
REMARK    1  A    between atoms: C_1  and  N_2
REMARK    2  A    between atoms: N_2  and  C_3
REMARK    3  A    between atoms: N_2  and  C_4
REMARK    4  A    between atoms: C_4  and  C_5
REMARK    5  A    between atoms: C_11  and  C_13
REMARK    6  A    between atoms: C_16  and  N_17
REMARK                            x       y       z     vdW  Elec       q    Type
REMARK                         _______ _______ _______ _____ _____    ______ ____
ROOT
ATOM      1  C   UNL     1       3.980   4.245  19.442  0.00  0.00    +0.000 C 
ATOM      2  C   UNL     1       3.592   2.832  19.962  0.00  0.00    +0.000 C 
ATOM      3  C   UNL     1       2.647   2.845  21.149  0.00  0.00    +0.000 C 
ATOM      4  C   UNL     1       1.400   3.596  20.742  0.00  0.00    +0.000 C 
ATOM      5  C   UNL     1       1.774   5.007  20.358  0.00  0.00    +0.000 C 
ATOM      6  N   UNL     1       2.822   5.188  19.348  0.00  0.00    +0.000 N 
ATOM      7  C   UNL     1       3.039   6.469  18.763  0.00  0.00    +0.000 C 
ATOM      8  O   UNL     1       3.933   6.684  17.948  0.00  0.00    +0.000 OA
ENDROOT
BRANCH   7   9
ATOM      9  C   UNL     1       2.179   7.670  19.077  0.00  0.00    +0.000 A 
ATOM     10  C   UNL     1       1.763   8.023  20.360  0.00  0.00    +0.000 A 
ATOM     11  C   UNL     1       0.912   9.097  20.598  0.00  0.00    +0.000 A 
ATOM     12  C   UNL     1       0.538   9.967  19.581  0.00  0.00    +0.000 A 
ATOM     13  C   UNL     1       1.059   9.703  18.309  0.00  0.00    +0.000 A 
ATOM     14  C   UNL     1       1.850   8.565  18.052  0.00  0.00    +0.000 A 
BRANCH  12  15
ATOM     15  N   UNL     1      -0.255  11.085  19.828  0.00  0.00    +0.000 N 
ATOM     16  C   UNL     1      -1.561  11.244  19.142  0.00  0.00    +0.000 C 
ATOM     17  C   UNL     1      -1.438  12.101  17.872  0.00  0.00    +0.000 C 
ATOM     18  O   UNL     1      -0.834  13.372  18.157  0.00  0.00    +0.000 OA
ATOM     19  C   UNL     1       0.483  13.178  18.701  0.00  0.00    +0.000 C 
ATOM     20  C   UNL     1       0.451  12.372  20.013  0.00  0.00    +0.000 C 
ENDBRANCH  12  15
ENDBRANCH   7   9
BRANCH   1  21
ATOM     21  C   UNL     1       4.899   4.028  18.181  0.00  0.00    +0.000 C 
BRANCH  21  23
ATOM     22  C   UNL     1       7.010   4.617  17.122  0.00  0.00    +0.000 C 
ATOM     23  N   UNL     1       6.346   4.265  18.378  0.00  0.00    +0.000 NA
ATOM     24  C   UNL     1       6.559   5.329  19.360  0.00  0.00    +0.000 C 
ENDBRANCH  21  23
ENDBRANCH   1  21
TORSDOF 4
ENDMDL
MODEL 2
REMARK VINA RESULT:      -7.9      0.834      1.168
REMARK  Name = 
REMARK  6 active torsions:
REMARK  status: ('A' for Active; 'I' for Inactive)
REMARK    1  A    between atoms: C_1  and  N_2
REMARK    2  A    between atoms: N_2  and  C_3
REMARK    3  A    between atoms: N_2  and  C_4
REMARK    4  A    between atoms: C_4  and  C_5
REMARK    5  A    between atoms: C_11  and  C_13
REMARK    6  A    between atoms: C_16  and  N_17
REMARK                            x       y       z     vdW  Elec       q    Type
REMARK                         _______ _______ _______ _____ _____    ______ ____
ROOT
ATOM      1  C   UNL     1       4.082   4.338  19.352  0.00  0.00    +0.000 C 
ATOM      2  C   UNL     1       3.707   2.913  19.848  0.00  0.00    +0.000 C 
ATOM      3  C   UNL     1       2.695   2.895  20.979  0.00  0.00    +0.000 C 
ATOM      4  C   UNL     1       1.452   3.608  20.501  0.00  0.00    +0.000 C 
ATOM      5  C   UNL     1       1.804   5.031  20.140  0.00  0.00    +0.000 C 
ATOM      6  N   UNL     1       2.902   5.246  19.192  0.00  0.00    +0.000 N 
ATOM      7  C   UNL     1       3.114   6.534  18.621  0.00  0.00    +0.000 C 
ATOM      8  O   UNL     1       4.046   6.778  17.859  0.00  0.00    +0.000 OA
ENDROOT
BRANCH   7   9
ATOM      9  C   UNL     1       2.201   7.708  18.885  0.00  0.00    +0.000 A 
ATOM     10  C   UNL     1       1.788   8.109  20.155  0.00  0.00    +0.000 A 
ATOM     11  C   UNL     1       0.889   9.153  20.350  0.00  0.00    +0.000 A 
ATOM     12  C   UNL     1       0.457   9.947  19.295  0.00  0.00    +0.000 A 
ATOM     13  C   UNL     1       0.971   9.639  18.029  0.00  0.00    +0.000 A 
ATOM     14  C   UNL     1       1.812   8.528  17.819  0.00  0.00    +0.000 A 
BRANCH  12  15
ATOM     15  N   UNL     1      -0.386  11.038  19.495  0.00  0.00    +0.000 N 
ATOM     16  C   UNL     1      -0.198  12.284  18.711  0.00  0.00    +0.000 C 
ATOM     17  C   UNL     1       0.660  13.310  19.468  0.00  0.00    +0.000 C 
ATOM     18  O   UNL     1       0.119  13.582  20.770  0.00  0.00    +0.000 OA
ATOM     19  C   UNL     1       0.073  12.371  21.545  0.00  0.00    +0.000 C 
ATOM     20  C   UNL     1      -0.815  11.300  20.885  0.00  0.00    +0.000 C 
ENDBRANCH  12  15
ENDBRANCH   7   9
BRANCH   1  21
ATOM     21  C   UNL     1       5.078   4.152  18.146  0.00  0.00    +0.000 C 
BRANCH  21  23
ATOM     22  C   UNL     1       7.283   4.635  17.238  0.00  0.00    +0.000 C 
ATOM     23  N   UNL     1       6.513   4.346  18.448  0.00  0.00    +0.000 NA
ATOM     24  C   UNL     1       6.689   5.433  19.412  0.00  0.00    +0.000 C 
ENDBRANCH  21  23
ENDBRANCH   1  21
TORSDOF 4
ENDMDL
MODEL 3
REMARK VINA RESULT:      -7.8      0.673      1.342
REMARK  Name = 
REMARK  6 active torsions:
REMARK  status: ('A' for Active; 'I' for Inactive)
REMARK    1  A    between atoms: C_1  and  N_2
REMARK    2  A    between atoms: N_2  and  C_3
REMARK    3  A    between atoms: N_2  and  C_4
REMARK    4  A    between atoms: C_4  and  C_5
REMARK    5  A    between atoms: C_11  and  C_13
REMARK    6  A    between atoms: C_16  and  N_17
REMARK                            x       y       z     vdW  Elec       q    Type
REMARK                         _______ _______ _______ _____ _____    ______ ____
ROOT
ATOM      1  C   UNL     1       4.110   4.392  19.332  0.00  0.00    +0.000 C 
ATOM      2  C   UNL     1       3.729   2.969  19.829  0.00  0.00    +0.000 C 
ATOM      3  C   UNL     1       2.703   2.955  20.947  0.00  0.00    +0.000 C 
ATOM      4  C   UNL     1       1.465   3.666  20.451  0.00  0.00    +0.000 C 
ATOM      5  C   UNL     1       1.822   5.088  20.089  0.00  0.00    +0.000 C 
ATOM      6  N   UNL     1       2.932   5.299  19.153  0.00  0.00    +0.000 N 
ATOM      7  C   UNL     1       3.150   6.585  18.580  0.00  0.00    +0.000 C 
ATOM      8  O   UNL     1       4.092   6.827  17.829  0.00  0.00    +0.000 OA
ENDROOT
BRANCH   7   9
ATOM      9  C   UNL     1       2.234   7.760  18.828  0.00  0.00    +0.000 A 
ATOM     10  C   UNL     1       1.678   8.547  17.820  0.00  0.00    +0.000 A 
ATOM     11  C   UNL     1       0.896   9.664  18.094  0.00  0.00    +0.000 A 
ATOM     12  C   UNL     1       0.508   9.980  19.391  0.00  0.00    +0.000 A 
ATOM     13  C   UNL     1       0.948   9.118  20.403  0.00  0.00    +0.000 A 
ATOM     14  C   UNL     1       1.812   8.037  20.134  0.00  0.00    +0.000 A 
BRANCH  12  15
ATOM     15  N   UNL     1      -0.335  11.055  19.663  0.00  0.00    +0.000 N 
ATOM     16  C   UNL     1      -0.621  12.067  18.616  0.00  0.00    +0.000 C 
ATOM     17  C   UNL     1       0.315  13.282  18.728  0.00  0.00    +0.000 C 
ATOM     18  O   UNL     1       0.269  13.855  20.043  0.00  0.00    +0.000 OA
ATOM     19  C   UNL     1       0.677  12.880  21.018  0.00  0.00    +0.000 C 
ATOM     20  C   UNL     1      -0.243  11.645  21.016  0.00  0.00    +0.000 C 
ENDBRANCH  12  15
ENDBRANCH   7   9
BRANCH   1  21
ATOM     21  C   UNL     1       5.121   4.202  18.140  0.00  0.00    +0.000 C 
BRANCH  21  23
ATOM     22  C   UNL     1       7.365   4.551  17.267  0.00  0.00    +0.000 C 
ATOM     23  N   UNL     1       6.555   4.352  18.469  0.00  0.00    +0.000 NA
ATOM     24  C   UNL     1       6.753   5.477  19.384  0.00  0.00    +0.000 C 
ENDBRANCH  21  23
ENDBRANCH   1  21
TORSDOF 4
ENDMDL
MODEL 4
REMARK VINA RESULT:      -7.8      1.231      1.319
REMARK  Name = 
REMARK  6 active torsions:
REMARK  status: ('A' for Active; 'I' for Inactive)
REMARK    1  A    between atoms: C_1  and  N_2
REMARK    2  A    between atoms: N_2  and  C_3
REMARK    3  A    between atoms: N_2  and  C_4
REMARK    4  A    between atoms: C_4  and  C_5
REMARK    5  A    between atoms: C_11  and  C_13
REMARK    6  A    between atoms: C_16  and  N_17
REMARK                            x       y       z     vdW  Elec       q    Type
REMARK                         _______ _______ _______ _____ _____    ______ ____
ROOT
ATOM      1  C   UNL     1       3.960   3.926  17.738  0.00  0.00    +0.000 C 
ATOM      2  C   UNL     1       3.441   2.461  17.779  0.00  0.00    +0.000 C 
ATOM      3  C   UNL     1       2.466   2.178  18.906  0.00  0.00    +0.000 C 
ATOM      4  C   UNL     1       1.297   3.125  18.758  0.00  0.00    +0.000 C 
ATOM      5  C   UNL     1       1.797   4.547  18.846  0.00  0.00    +0.000 C 
ATOM      6  N   UNL     1       2.885   4.948  17.948  0.00  0.00    +0.000 N 
ATOM      7  C   UNL     1       3.225   6.324  17.803  0.00  0.00    +0.000 C 
ATOM      8  O   UNL     1       4.157   6.709  17.101  0.00  0.00    +0.000 OA
ENDROOT
BRANCH   7   9
ATOM      9  C   UNL     1       2.457   7.433  18.483  0.00  0.00    +0.000 A 
ATOM     10  C   UNL     1       2.147   7.453  19.842  0.00  0.00    +0.000 A 
ATOM     11  C   UNL     1       1.376   8.459  20.414  0.00  0.00    +0.000 A 
ATOM     12  C   UNL     1       0.986   9.579  19.690  0.00  0.00    +0.000 A 
ATOM     13  C   UNL     1       1.408   9.637  18.355  0.00  0.00    +0.000 A 
ATOM     14  C   UNL     1       2.113   8.577  17.752  0.00  0.00    +0.000 A 
BRANCH  12  15
ATOM     15  N   UNL     1       0.277  10.623  20.277  0.00  0.00    +0.000 N 
ATOM     16  C   UNL     1      -1.104  10.935  19.832  0.00  0.00    +0.000 C 
ATOM     17  C   UNL     1      -1.123  12.045  18.769  0.00  0.00    +0.000 C 
ATOM     18  O   UNL     1      -0.439  13.220  19.230  0.00  0.00    +0.000 OA
ATOM     19  C   UNL     1       0.931  12.904  19.528  0.00  0.00    +0.000 C 
ATOM     20  C   UNL     1       1.048  11.835  20.630  0.00  0.00    +0.000 C 
ENDBRANCH  12  15
ENDBRANCH   7   9
BRANCH   1  21
ATOM     21  C   UNL     1       4.895   4.042  16.476  0.00  0.00    +0.000 C 
BRANCH  21  23
ATOM     22  C   UNL     1       7.036   4.960  15.773  0.00  0.00    +0.000 C 
ATOM     23  N   UNL     1       6.348   4.106  16.742  0.00  0.00    +0.000 NA
ATOM     24  C   UNL     1       6.597   4.602  18.096  0.00  0.00    +0.000 C 
ENDBRANCH  21  23
ENDBRANCH   1  21
TORSDOF 4
ENDMDL
MODEL 5
REMARK VINA RESULT:      -7.7      2.217      7.860
REMARK  Name = 
REMARK  6 active torsions:
REMARK  status: ('A' for Active; 'I' for Inactive)
REMARK    1  A    between atoms: C_1  and  N_2
REMARK    2  A    between atoms: N_2  and  C_3
REMARK    3  A    between atoms: N_2  and  C_4
REMARK    4  A    between atoms: C_4  and  C_5
REMARK    5  A    between atoms: C_11  and  C_13
REMARK    6  A    between atoms: C_16  and  N_17
REMARK                            x       y       z     vdW  Elec       q    Type
REMARK                         _______ _______ _______ _____ _____    ______ ____
ROOT
ATOM      1  C   UNL     1      -0.137  10.047  19.789  0.00  0.00    +0.000 C 
ATOM      2  C   UNL     1      -0.468  10.481  21.245  0.00  0.00    +0.000 C 
ATOM      3  C   UNL     1      -0.270   9.389  22.279  0.00  0.00    +0.000 C 
ATOM      4  C   UNL     1       1.168   8.931  22.202  0.00  0.00    +0.000 C 
ATOM      5  C   UNL     1       1.444   8.395  20.818  0.00  0.00    +0.000 C 
ATOM      6  N   UNL     1       1.128   9.256  19.674  0.00  0.00    +0.000 N 
ATOM      7  C   UNL     1       1.595   8.916  18.371  0.00  0.00    +0.000 C 
ATOM      8  O   UNL     1       1.321   9.576  17.373  0.00  0.00    +0.000 OA
ENDROOT
BRANCH   7   9
ATOM      9  C   UNL     1       2.486   7.725  18.104  0.00  0.00    +0.000 A 
ATOM     10  C   UNL     1       2.097   6.399  18.287  0.00  0.00    +0.000 A 
ATOM     11  C   UNL     1       2.972   5.334  18.098  0.00  0.00    +0.000 A 
ATOM     12  C   UNL     1       4.248   5.524  17.581  0.00  0.00    +0.000 A 
ATOM     13  C   UNL     1       4.605   6.841  17.265  0.00  0.00    +0.000 A 
ATOM     14  C   UNL     1       3.751   7.928  17.539  0.00  0.00    +0.000 A 
BRANCH  12  15
ATOM     15  N   UNL     1       5.101   4.454  17.322  0.00  0.00    +0.000 N 
ATOM     16  C   UNL     1       6.229   4.156  18.238  0.00  0.00    +0.000 C 
ATOM     17  C   UNL     1       7.539   4.804  17.760  0.00  0.00    +0.000 C 
ATOM     18  O   UNL     1       7.843   4.428  16.409  0.00  0.00    +0.000 OA
ATOM     19  C   UNL     1       6.784   4.849  15.532  0.00  0.00    +0.000 C 
ATOM     20  C   UNL     1       5.437   4.201  15.904  0.00  0.00    +0.000 C 
ENDBRANCH  12  15
ENDBRANCH   7   9
BRANCH   1  21
ATOM     21  C   UNL     1      -0.335  11.318  18.880  0.00  0.00    +0.000 C 
BRANCH  21  23
ATOM     22  C   UNL     1       1.493  12.895  18.576  0.00  0.00    +0.000 C 
ATOM     23  N   UNL     1       0.298  12.567  19.355  0.00  0.00    +0.000 NA
ATOM     24  C   UNL     1      -0.652  13.678  19.286  0.00  0.00    +0.000 C 
ENDBRANCH  21  23
ENDBRANCH   1  21
TORSDOF 4
ENDMDL
MODEL 6
REMARK VINA RESULT:      -7.6      2.133      7.961
REMARK  Name = 
REMARK  6 active torsions:
REMARK  status: ('A' for Active; 'I' for Inactive)
REMARK    1  A    between atoms: C_1  and  N_2
REMARK    2  A    between atoms: N_2  and  C_3
REMARK    3  A    between atoms: N_2  and  C_4
REMARK    4  A    between atoms: C_4  and  C_5
REMARK    5  A    between atoms: C_11  and  C_13
REMARK    6  A    between atoms: C_16  and  N_17
REMARK                            x       y       z     vdW  Elec       q    Type
REMARK                         _______ _______ _______ _____ _____    ______ ____
ROOT
ATOM      1  C   UNL     1      -0.328  10.032  20.326  0.00  0.00    +0.000 C 
ATOM      2  C   UNL     1      -0.567  10.533  21.778  0.00  0.00    +0.000 C 
ATOM      3  C   UNL     1      -0.212   9.520  22.851  0.00  0.00    +0.000 C 
ATOM      4  C   UNL     1       1.243   9.151  22.677  0.00  0.00    +0.000 C 
ATOM      5  C   UNL     1       1.440   8.549  21.306  0.00  0.00    +0.000 C 
ATOM      6  N   UNL     1       0.974   9.317  20.146  0.00  0.00    +0.000 N 
ATOM      7  C   UNL     1       1.355   8.928  18.830  0.00  0.00    +0.000 C 
ATOM      8  O   UNL     1       0.955   9.508  17.823  0.00  0.00    +0.000 OA
ENDROOT
BRANCH   7   9
ATOM      9  C   UNL     1       2.300   7.782  18.554  0.00  0.00    +0.000 A 
ATOM     10  C   UNL     1       2.160   6.504  19.094  0.00  0.00    +0.000 A 
ATOM     11  C   UNL     1       3.092   5.496  18.871  0.00  0.00    +0.000 A 
ATOM     12  C   UNL     1       4.148   5.665  17.984  0.00  0.00    +0.000 A 
ATOM     13  C   UNL     1       4.224   6.901  17.330  0.00  0.00    +0.000 A 
ATOM     14  C   UNL     1       3.330   7.951  17.622  0.00  0.00    +0.000 A 
BRANCH  12  15
ATOM     15  N   UNL     1       5.042   4.635  17.702  0.00  0.00    +0.000 N 
ATOM     16  C   UNL     1       6.310   4.514  18.464  0.00  0.00    +0.000 C 
ATOM     17  C   UNL     1       7.479   5.196  17.735  0.00  0.00    +0.000 C 
ATOM     18  O   UNL     1       7.619   4.699  16.396  0.00  0.00    +0.000 OA
ATOM     19  C   UNL     1       6.415   4.951  15.651  0.00  0.00    +0.000 C 
ATOM     20  C   UNL     1       5.193   4.255  16.281  0.00  0.00    +0.000 C 
ENDBRANCH  12  15
ENDBRANCH   7   9
BRANCH   1  21
ATOM     21  C   UNL     1      -0.685  11.231  19.368  0.00  0.00    +0.000 C 
BRANCH  21  23
ATOM     22  C   UNL     1      -2.864  12.302  19.531  0.00  0.00    +0.000 C 
ATOM     23  N   UNL     1      -2.073  11.270  18.860  0.00  0.00    +0.000 NA
ATOM     24  C   UNL     1      -2.081  11.510  17.416  0.00  0.00    +0.000 C 
ENDBRANCH  21  23
ENDBRANCH   1  21
TORSDOF 4
ENDMDL
MODEL 7
REMARK VINA RESULT:      -7.6      1.557      1.769
REMARK  Name = 
REMARK  6 active torsions:
REMARK  status: ('A' for Active; 'I' for Inactive)
REMARK    1  A    between atoms: C_1  and  N_2
REMARK    2  A    between atoms: N_2  and  C_3
REMARK    3  A    between atoms: N_2  and  C_4
REMARK    4  A    between atoms: C_4  and  C_5
REMARK    5  A    between atoms: C_11  and  C_13
REMARK    6  A    between atoms: C_16  and  N_17
REMARK                            x       y       z     vdW  Elec       q    Type
REMARK                         _______ _______ _______ _____ _____    ______ ____
ROOT
ATOM      1  C   UNL     1       4.170   4.843  17.646  0.00  0.00    +0.000 C 
ATOM      2  C   UNL     1       3.831   3.348  17.390  0.00  0.00    +0.000 C 
ATOM      3  C   UNL     1       2.732   2.798  18.282  0.00  0.00    +0.000 C 
ATOM      4  C   UNL     1       1.496   3.641  18.069  0.00  0.00    +0.000 C 
ATOM      5  C   UNL     1       1.802   5.072  18.441  0.00  0.00    +0.000 C 
ATOM      6  N   UNL     1       2.961   5.712  17.809  0.00  0.00    +0.000 N 
ATOM      7  C   UNL     1       3.152   7.119  17.920  0.00  0.00    +0.000 C 
ATOM      8  O   UNL     1       4.129   7.697  17.451  0.00  0.00    +0.000 OA
ENDROOT
BRANCH   7   9
ATOM      9  C   UNL     1       2.160   8.029  18.607  0.00  0.00    +0.000 A 
ATOM     10  C   UNL     1       1.921   8.034  19.981  0.00  0.00    +0.000 A 
ATOM     11  C   UNL     1       0.948   8.838  20.564  0.00  0.00    +0.000 A 
ATOM     12  C   UNL     1       0.251   9.787  19.827  0.00  0.00    +0.000 A 
ATOM     13  C   UNL     1       0.578   9.887  18.468  0.00  0.00    +0.000 A 
ATOM     14  C   UNL     1       1.500   9.013  17.860  0.00  0.00    +0.000 A 
BRANCH  12  15
ATOM     15  N   UNL     1      -0.673  10.644  20.420  0.00  0.00    +0.000 N 
ATOM     16  C   UNL     1      -1.548  11.500  19.581  0.00  0.00    +0.000 C 
ATOM     17  C   UNL     1      -0.958  12.906  19.391  0.00  0.00    +0.000 C 
ATOM     18  O   UNL     1      -0.669  13.525  20.654  0.00  0.00    +0.000 OA
ATOM     19  C   UNL     1       0.282  12.730  21.383  0.00  0.00    +0.000 C 
ATOM     20  C   UNL     1      -0.251  11.314  21.669  0.00  0.00    +0.000 C 
ENDBRANCH  12  15
ENDBRANCH   7   9
BRANCH   1  21
ATOM     21  C   UNL     1       5.269   5.246  16.593  0.00  0.00    +0.000 C 
BRANCH  21  23
ATOM     22  C   UNL     1       7.024   4.415  15.127  0.00  0.00    +0.000 C 
ATOM     23  N   UNL     1       6.411   4.317  16.452  0.00  0.00    +0.000 NA
ATOM     24  C   UNL     1       7.419   4.587  17.478  0.00  0.00    +0.000 C 
ENDBRANCH  21  23
ENDBRANCH   1  21
TORSDOF 4
ENDMDL
MODEL 8
REMARK VINA RESULT:      -7.5      2.287      8.012
REMARK  Name = 
REMARK  6 active torsions:
REMARK  status: ('A' for Active; 'I' for Inactive)
REMARK    1  A    between atoms: C_1  and  N_2
REMARK    2  A    between atoms: N_2  and  C_3
REMARK    3  A    between atoms: N_2  and  C_4
REMARK    4  A    between atoms: C_4  and  C_5
REMARK    5  A    between atoms: C_11  and  C_13
REMARK    6  A    between atoms: C_16  and  N_17
REMARK                            x       y       z     vdW  Elec       q    Type
REMARK                         _______ _______ _______ _____ _____    ______ ____
ROOT
ATOM      1  C   UNL     1      -0.288   9.930  20.081  0.00  0.00    +0.000 C 
ATOM      2  C   UNL     1      -0.476  10.393  21.553  0.00  0.00    +0.000 C 
ATOM      3  C   UNL     1      -0.051   9.366  22.586  0.00  0.00    +0.000 C 
ATOM      4  C   UNL     1       1.404   9.035  22.341  0.00  0.00    +0.000 C 
ATOM      5  C   UNL     1       1.555   8.469  20.950  0.00  0.00    +0.000 C 
ATOM      6  N   UNL     1       1.022   9.250  19.829  0.00  0.00    +0.000 N 
ATOM      7  C   UNL     1       1.355   8.900  18.489  0.00  0.00    +0.000 C 
ATOM      8  O   UNL     1       0.899   9.492  17.514  0.00  0.00    +0.000 OA
ENDROOT
BRANCH   7   9
ATOM      9  C   UNL     1       2.313   7.783  18.147  0.00  0.00    +0.000 A 
ATOM     10  C   UNL     1       3.625   7.981  17.716  0.00  0.00    +0.000 A 
ATOM     11  C   UNL     1       4.452   6.926  17.343  0.00  0.00    +0.000 A 
ATOM     12  C   UNL     1       4.064   5.603  17.511  0.00  0.00    +0.000 A 
ATOM     13  C   UNL     1       2.798   5.389  18.071  0.00  0.00    +0.000 A 
ATOM     14  C   UNL     1       1.927   6.456  18.367  0.00  0.00    +0.000 A 
BRANCH  12  15
ATOM     15  N   UNL     1       4.916   4.544  17.207  0.00  0.00    +0.000 N 
ATOM     16  C   UNL     1       6.077   4.242  18.081  0.00  0.00    +0.000 C 
ATOM     17  C   UNL     1       7.365   4.908  17.568  0.00  0.00    +0.000 C 
ATOM     18  O   UNL     1       7.626   4.553  16.202  0.00  0.00    +0.000 OA
ATOM     19  C   UNL     1       6.534   4.979  15.368  0.00  0.00    +0.000 C 
ATOM     20  C   UNL     1       5.206   4.314  15.776  0.00  0.00    +0.000 C 
ENDBRANCH  12  15
ENDBRANCH   7   9
BRANCH   1  21
ATOM     21  C   UNL     1      -0.714  11.140  19.166  0.00  0.00    +0.000 C 
BRANCH  21  23
ATOM     22  C   UNL     1      -2.869  12.235  19.443  0.00  0.00    +0.000 C 
ATOM     23  N   UNL     1      -2.132  11.177  18.750  0.00  0.00    +0.000 NA
ATOM     24  C   UNL     1      -2.234  11.377  17.304  0.00  0.00    +0.000 C 
ENDBRANCH  21  23
ENDBRANCH   1  21
TORSDOF 4
ENDMDL
MODEL 9
REMARK VINA RESULT:      -7.5      2.062      8.342
REMARK  Name = 
REMARK  6 active torsions:
REMARK  status: ('A' for Active; 'I' for Inactive)
REMARK    1  A    between atoms: C_1  and  N_2
REMARK    2  A    between atoms: N_2  and  C_3
REMARK    3  A    between atoms: N_2  and  C_4
REMARK    4  A    between atoms: C_4  and  C_5
REMARK    5  A    between atoms: C_11  and  C_13
REMARK    6  A    between atoms: C_16  and  N_17
REMARK                            x       y       z     vdW  Elec       q    Type
REMARK                         _______ _______ _______ _____ _____    ______ ____
ROOT
ATOM      1  C   UNL     1      -1.116  11.913  19.580  0.00  0.00    +0.000 C 
ATOM      2  C   UNL     1      -2.564  12.167  19.074  0.00  0.00    +0.000 C 
ATOM      3  C   UNL     1      -2.862  11.560  17.715  0.00  0.00    +0.000 C 
ATOM      4  C   UNL     1      -2.612  10.073  17.806  0.00  0.00    +0.000 C 
ATOM      5  C   UNL     1      -1.167   9.835  18.178  0.00  0.00    +0.000 C 
ATOM      6  N   UNL     1      -0.648  10.506  19.374  0.00  0.00    +0.000 N 
ATOM      7  C   UNL     1       0.614  10.128  19.916  0.00  0.00    +0.000 C 
ATOM      8  O   UNL     1       1.116  10.689  20.887  0.00  0.00    +0.000 OA
ENDROOT
BRANCH   7   9
ATOM      9  C   UNL     1       1.439   8.992  19.359  0.00  0.00    +0.000 A 
ATOM     10  C   UNL     1       2.097   9.030  18.130  0.00  0.00    +0.000 A 
ATOM     11  C   UNL     1       2.787   7.935  17.621  0.00  0.00    +0.000 A 
ATOM     12  C   UNL     1       2.978   6.782  18.373  0.00  0.00    +0.000 A 
ATOM     13  C   UNL     1       2.436   6.781  19.664  0.00  0.00    +0.000 A 
ATOM     14  C   UNL     1       1.662   7.856  20.146  0.00  0.00    +0.000 A 
BRANCH  12  15
ATOM     15  N   UNL     1       3.729   5.711  17.896  0.00  0.00    +0.000 N 
ATOM     16  C   UNL     1       3.320   4.316  18.194  0.00  0.00    +0.000 C 
ATOM     17  C   UNL     1       4.044   3.762  19.432  0.00  0.00    +0.000 C 
ATOM     18  O   UNL     1       5.469   3.877  19.296  0.00  0.00    +0.000 OA
ATOM     19  C   UNL     1       5.837   5.257  19.138  0.00  0.00    +0.000 C 
ATOM     20  C   UNL     1       5.198   5.883  17.884  0.00  0.00    +0.000 C 
ENDBRANCH  12  15
ENDBRANCH   7   9
BRANCH   1  21
ATOM     21  C   UNL     1      -1.019  12.552  21.017  0.00  0.00    +0.000 C 
BRANCH  21  23
ATOM     22  C   UNL     1      -1.483  11.283  23.041  0.00  0.00    +0.000 C 
ATOM     23  N   UNL     1      -2.049  12.131  21.991  0.00  0.00    +0.000 NA
ATOM     24  C   UNL     1      -2.685  13.302  22.597  0.00  0.00    +0.000 C 
ENDBRANCH  21  23
ENDBRANCH   1  21
TORSDOF 4
ENDMDL
