MODEL 1
REMARK VINA RESULT:      -7.3      0.000      0.000
REMARK  Name = 
REMARK  11 active torsions:
REMARK  status: ('A' for Active; 'I' for Inactive)
REMARK    1  A    between atoms: C_1  and  C_2
REMARK    2  A    between atoms: C_2  and  S_4
REMARK    3  A    between atoms: S_4  and  C_5
REMARK    4  A    between atoms: C_5  and  C_6
REMARK    5  A    between atoms: C_6  and  C_8
REMARK    6  A    between atoms: C_11  and  N_12
REMARK    7  A    between atoms: N_12  and  C_13
REMARK    8  A    between atoms: N_12  and  S_14
REMARK    9  A    between atoms: S_14  and  C_17
REMARK   10  A    between atoms: C_20  and  O_21
REMARK   11  A    between atoms: O_21  and  C_22
REMARK                            x       y       z     vdW  Elec       q    Type
REMARK                         _______ _______ _______ _____ _____    ______ ____
ROOT
ATOM      1  N   UNL     1       2.812   5.185  18.708  0.00  0.00    +0.000 N 
ATOM      2  C   UNL     1       2.063   4.355  17.752  0.00  0.00    +0.000 C 
ENDROOT
BRANCH   1   6
ATOM      3  C   UNL     1       1.426   9.151  19.269  0.00  0.00    +0.000 A 
ATOM      4  C   UNL     1       1.886   8.744  18.006  0.00  0.00    +0.000 A 
ATOM      5  C   UNL     1       2.360   7.442  17.800  0.00  0.00    +0.000 A 
ATOM      6  C   UNL     1       2.398   6.545  18.865  0.00  0.00    +0.000 A 
ATOM      7  C   UNL     1       1.969   6.956  20.134  0.00  0.00    +0.000 A 
ATOM      8  C   UNL     1       1.477   8.253  20.339  0.00  0.00    +0.000 A 
BRANCH   3   9
ATOM      9  C   UNL     1       0.919  10.545  19.418  0.00  0.00    +0.000 C 
ATOM     10  O   UNL     1       1.605  11.450  18.942  0.00  0.00    +0.000 OA
BRANCH   9  11
ATOM     11  C   UNL     1      -0.394  10.777  20.157  0.00  0.00    +0.000 C 
BRANCH  11  12
ATOM     12  S   UNL     1      -0.128  11.866  21.592  0.00  0.00    +0.000 S 
BRANCH  12  14
ATOM     13  C   UNL     1      -0.206   9.678  23.241  0.00  0.00    +0.000 C 
ATOM     14  C   UNL     1      -0.940  10.926  22.834  0.00  0.00    +0.000 C 
ATOM     15  O   UNL     1      -2.004  11.278  23.325  0.00  0.00    +0.000 OA
ENDBRANCH  12  14
ENDBRANCH  11  12
ENDBRANCH   9  11
ENDBRANCH   3   9
ENDBRANCH   1   6
BRANCH   1  16
ATOM     16  S   UNL     1       4.445   4.789  18.977  0.00  0.00    +0.000 S 
ATOM     17  O   UNL     1       5.095   5.883  19.670  0.00  0.00    +0.000 OA
ATOM     18  O   UNL     1       4.490   3.446  19.513  0.00  0.00    +0.000 OA
BRANCH  16  19
ATOM     19  C   UNL     1       5.151   4.701  17.337  0.00  0.00    +0.000 A 
ATOM     20  C   UNL     1       5.578   3.479  16.820  0.00  0.00    +0.000 A 
ATOM     21  C   UNL     1       6.073   3.425  15.514  0.00  0.00    +0.000 A 
ATOM     22  C   UNL     1       6.121   4.571  14.710  0.00  0.00    +0.000 A 
ATOM     23  C   UNL     1       5.704   5.792  15.239  0.00  0.00    +0.000 A 
ATOM     24  C   UNL     1       5.190   5.852  16.541  0.00  0.00    +0.000 A 
BRANCH  22  25
ATOM     25  O   UNL     1       6.633   4.367  13.466  0.00  0.00    +0.000 OA
BRANCH  25  26
ATOM     26  C   UNL     1       5.878   3.668  12.485  0.00  0.00    +0.000 C 
ATOM     27  F   UNL     1       6.084   2.336  12.471  0.00  0.00    +0.000 F 
ATOM     28  F   UNL     1       4.563   3.903  12.685  0.00  0.00    +0.000 F 
ATOM     29  F   UNL     1       6.211   4.151  11.267  0.00  0.00    +0.000 F 
ENDBRANCH  25  26
ENDBRANCH  22  25
ENDBRANCH  16  19
ENDBRANCH   1  16
TORSDOF 9
ENDMDL
MODEL 2
REMARK VINA RESULT:      -7.1      4.304      8.533
REMARK  Name = 
REMARK  11 active torsions:
REMARK  status: ('A' for Active; 'I' for Inactive)
REMARK    1  A    between atoms: C_1  and  C_2
REMARK    2  A    between atoms: C_2  and  S_4
REMARK    3  A    between atoms: S_4  and  C_5
REMARK    4  A    between atoms: C_5  and  C_6
REMARK    5  A    between atoms: C_6  and  C_8
REMARK    6  A    between atoms: C_11  and  N_12
REMARK    7  A    between atoms: N_12  and  C_13
REMARK    8  A    between atoms: N_12  and  S_14
REMARK    9  A    between atoms: S_14  and  C_17
REMARK   10  A    between atoms: C_20  and  O_21
REMARK   11  A    between atoms: O_21  and  C_22
REMARK                            x       y       z     vdW  Elec       q    Type
REMARK                         _______ _______ _______ _____ _____    ______ ____
ROOT
ATOM      1  N   UNL     1       3.376   2.680  19.698  0.00  0.00    +0.000 N 
ATOM      2  C   UNL     1       4.065   2.134  20.877  0.00  0.00    +0.000 C 
ENDROOT
BRANCH   1   6
ATOM      3  C   UNL     1       5.755   4.536  16.721  0.00  0.00    +0.000 A 
ATOM      4  C   UNL     1       4.747   3.633  16.347  0.00  0.00    +0.000 A 
ATOM      5  C   UNL     1       3.956   2.999  17.314  0.00  0.00    +0.000 A 
ATOM      6  C   UNL     1       4.187   3.247  18.664  0.00  0.00    +0.000 A 
ATOM      7  C   UNL     1       5.212   4.123  19.044  0.00  0.00    +0.000 A 
ATOM      8  C   UNL     1       5.993   4.773  18.078  0.00  0.00    +0.000 A 
BRANCH   3   9
ATOM      9  C   UNL     1       6.550   5.190  15.643  0.00  0.00    +0.000 C 
ATOM     10  O   UNL     1       7.587   5.765  15.974  0.00  0.00    +0.000 OA
BRANCH   9  11
ATOM     11  C   UNL     1       6.038   5.129  14.209  0.00  0.00    +0.000 C 
BRANCH  11  12
ATOM     12  S   UNL     1       7.362   4.577  13.087  0.00  0.00    +0.000 S 
BRANCH  12  14
ATOM     13  C   UNL     1       4.987   3.504  12.238  0.00  0.00    +0.000 C 
ATOM     14  C   UNL     1       6.483   3.372  12.159  0.00  0.00    +0.000 C 
ATOM     15  O   UNL     1       7.055   2.515  11.499  0.00  0.00    +0.000 OA
ENDBRANCH  12  14
ENDBRANCH  11  12
ENDBRANCH   9  11
ENDBRANCH   3   9
ENDBRANCH   1   6
BRANCH   1  16
ATOM     16  S   UNL     1       1.797   3.274  19.919  0.00  0.00    +0.000 S 
ATOM     17  O   UNL     1       0.928   2.717  18.902  0.00  0.00    +0.000 OA
ATOM     18  O   UNL     1       1.469   3.142  21.323  0.00  0.00    +0.000 OA
BRANCH  16  19
ATOM     19  C   UNL     1       1.939   5.027  19.598  0.00  0.00    +0.000 A 
ATOM     20  C   UNL     1       2.028   5.497  18.289  0.00  0.00    +0.000 A 
ATOM     21  C   UNL     1       2.081   6.875  18.060  0.00  0.00    +0.000 A 
ATOM     22  C   UNL     1       2.017   7.788  19.121  0.00  0.00    +0.000 A 
ATOM     23  C   UNL     1       1.941   7.309  20.428  0.00  0.00    +0.000 A 
ATOM     24  C   UNL     1       1.870   5.931  20.666  0.00  0.00    +0.000 A 
BRANCH  22  25
ATOM     25  O   UNL     1       2.086   9.094  18.746  0.00  0.00    +0.000 OA
BRANCH  25  26
ATOM     26  C   UNL     1       0.903   9.876  18.648  0.00  0.00    +0.000 C 
ATOM     27  F   UNL     1       0.082   9.778  19.713  0.00  0.00    +0.000 F 
ATOM     28  F   UNL     1       1.240  11.174  18.477  0.00  0.00    +0.000 F 
ATOM     29  F   UNL     1       0.215   9.474  17.556  0.00  0.00    +0.000 F 
ENDBRANCH  25  26
ENDBRANCH  22  25
ENDBRANCH  16  19
ENDBRANCH   1  16
TORSDOF 9
ENDMDL
MODEL 3
REMARK VINA RESULT:      -7.0      3.189      3.721
REMARK  Name = 
REMARK  11 active torsions:
REMARK  status: ('A' for Active; 'I' for Inactive)
REMARK    1  A    between atoms: C_1  and  C_2
REMARK    2  A    between atoms: C_2  and  S_4
REMARK    3  A    between atoms: S_4  and  C_5
REMARK    4  A    between atoms: C_5  and  C_6
REMARK    5  A    between atoms: C_6  and  C_8
REMARK    6  A    between atoms: C_11  and  N_12
REMARK    7  A    between atoms: N_12  and  C_13
REMARK    8  A    between atoms: N_12  and  S_14
REMARK    9  A    between atoms: S_14  and  C_17
REMARK   10  A    between atoms: C_20  and  O_21
REMARK   11  A    between atoms: O_21  and  C_22
REMARK                            x       y       z     vdW  Elec       q    Type
REMARK                         _______ _______ _______ _____ _____    ______ ____
ROOT
ATOM      1  N   UNL     1       2.242   3.273  19.231  0.00  0.00    +0.000 N 
ATOM      2  C   UNL     1       1.063   2.489  18.834  0.00  0.00    +0.000 C 
ENDROOT
BRANCH   1   6
ATOM      3  C   UNL     1       1.947   7.478  18.792  0.00  0.00    +0.000 A 
ATOM      4  C   UNL     1       1.929   6.655  17.655  0.00  0.00    +0.000 A 
ATOM      5  C   UNL     1       2.037   5.263  17.775  0.00  0.00    +0.000 A 
ATOM      6  C   UNL     1       2.188   4.690  19.035  0.00  0.00    +0.000 A 
ATOM      7  C   UNL     1       2.238   5.509  20.169  0.00  0.00    +0.000 A 
ATOM      8  C   UNL     1       2.112   6.901  20.054  0.00  0.00    +0.000 A 
BRANCH   3   9
ATOM      9  C   UNL     1       1.811   8.950  18.598  0.00  0.00    +0.000 C 
ATOM     10  O   UNL     1       2.239   9.424  17.545  0.00  0.00    +0.000 OA
BRANCH   9  11
ATOM     11  C   UNL     1       1.175   9.784  19.703  0.00  0.00    +0.000 C 
BRANCH  11  12
ATOM     12  S   UNL     1       1.054  11.527  19.190  0.00  0.00    +0.000 S 
BRANCH  12  14
ATOM     13  C   UNL     1      -1.195  12.758  20.158  0.00  0.00    +0.000 C 
ATOM     14  C   UNL     1       0.136  12.174  20.542  0.00  0.00    +0.000 C 
ATOM     15  O   UNL     1       0.553  12.131  21.692  0.00  0.00    +0.000 OA
ENDBRANCH  12  14
ENDBRANCH  11  12
ENDBRANCH   9  11
ENDBRANCH   3   9
ENDBRANCH   1   6
BRANCH   1  16
ATOM     16  S   UNL     1       3.755   2.496  19.175  0.00  0.00    +0.000 S 
ATOM     17  O   UNL     1       4.214   2.242  20.526  0.00  0.00    +0.000 OA
ATOM     18  O   UNL     1       3.662   1.419  18.213  0.00  0.00    +0.000 OA
BRANCH  16  19
ATOM     19  C   UNL     1       4.849   3.716  18.461  0.00  0.00    +0.000 A 
ATOM     20  C   UNL     1       5.648   4.511  19.281  0.00  0.00    +0.000 A 
ATOM     21  C   UNL     1       6.537   5.418  18.698  0.00  0.00    +0.000 A 
ATOM     22  C   UNL     1       6.658   5.520  17.306  0.00  0.00    +0.000 A 
ATOM     23  C   UNL     1       5.846   4.731  16.492  0.00  0.00    +0.000 A 
ATOM     24  C   UNL     1       4.965   3.807  17.068  0.00  0.00    +0.000 A 
BRANCH  22  25
ATOM     25  O   UNL     1       7.557   6.450  16.885  0.00  0.00    +0.000 OA
BRANCH  25  26
ATOM     26  C   UNL     1       7.695   7.682  17.580  0.00  0.00    +0.000 C 
ATOM     27  F   UNL     1       6.531   8.318  17.819  0.00  0.00    +0.000 F 
ATOM     28  F   UNL     1       8.319   7.461  18.758  0.00  0.00    +0.000 F 
ATOM     29  F   UNL     1       8.472   8.505  16.841  0.00  0.00    +0.000 F 
ENDBRANCH  25  26
ENDBRANCH  22  25
ENDBRANCH  16  19
ENDBRANCH   1  16
TORSDOF 9
ENDMDL
MODEL 4
REMARK VINA RESULT:      -6.9      4.233      6.236
REMARK  Name = 
REMARK  11 active torsions:
REMARK  status: ('A' for Active; 'I' for Inactive)
REMARK    1  A    between atoms: C_1  and  C_2
REMARK    2  A    between atoms: C_2  and  S_4
REMARK    3  A    between atoms: S_4  and  C_5
REMARK    4  A    between atoms: C_5  and  C_6
REMARK    5  A    between atoms: C_6  and  C_8
REMARK    6  A    between atoms: C_11  and  N_12
REMARK    7  A    between atoms: N_12  and  C_13
REMARK    8  A    between atoms: N_12  and  S_14
REMARK    9  A    between atoms: S_14  and  C_17
REMARK   10  A    between atoms: C_20  and  O_21
REMARK   11  A    between atoms: O_21  and  C_22
REMARK                            x       y       z     vdW  Elec       q    Type
REMARK                         _______ _______ _______ _____ _____    ______ ____
ROOT
ATOM      1  N   UNL     1       0.286  10.896  19.643  0.00  0.00    +0.000 N 
ATOM      2  C   UNL     1       1.137  12.093  19.720  0.00  0.00    +0.000 C 
ENDROOT
BRANCH   1   6
ATOM      3  C   UNL     1      -3.679  11.351  18.216  0.00  0.00    +0.000 A 
ATOM      4  C   UNL     1      -2.796  10.479  17.558  0.00  0.00    +0.000 A 
ATOM      5  C   UNL     1      -1.477  10.321  18.005  0.00  0.00    +0.000 A 
ATOM      6  C   UNL     1      -1.028  11.056  19.100  0.00  0.00    +0.000 A 
ATOM      7  C   UNL     1      -1.896  11.950  19.739  0.00  0.00    +0.000 A 
ATOM      8  C   UNL     1      -3.221  12.096  19.306  0.00  0.00    +0.000 A 
BRANCH   3   9
ATOM      9  C   UNL     1      -5.073  11.460  17.701  0.00  0.00    +0.000 C 
ATOM     10  O   UNL     1      -5.252  12.144  16.692  0.00  0.00    +0.000 OA
BRANCH   9  11
ATOM     11  C   UNL     1      -6.194  10.746  18.448  0.00  0.00    +0.000 C 
BRANCH  11  12
ATOM     12  S   UNL     1      -7.298  11.957  19.241  0.00  0.00    +0.000 S 
BRANCH  12  14
ATOM     13  C   UNL     1      -7.230  12.369  21.949  0.00  0.00    +0.000 C 
ATOM     14  C   UNL     1      -7.316  11.318  20.877  0.00  0.00    +0.000 C 
ATOM     15  O   UNL     1      -7.405  10.119  21.107  0.00  0.00    +0.000 OA
ENDBRANCH  12  14
ENDBRANCH  11  12
ENDBRANCH   9  11
ENDBRANCH   3   9
ENDBRANCH   1   6
BRANCH   1  16
ATOM     16  S   UNL     1       0.555   9.669  20.791  0.00  0.00    +0.000 S 
ATOM     17  O   UNL     1       1.379  10.187  21.864  0.00  0.00    +0.000 OA
ATOM     18  O   UNL     1      -0.720   9.045  21.075  0.00  0.00    +0.000 OA
BRANCH  16  19
ATOM     19  C   UNL     1       1.526   8.451  19.912  0.00  0.00    +0.000 A 
ATOM     20  C   UNL     1       1.803   7.217  20.498  0.00  0.00    +0.000 A 
ATOM     21  C   UNL     1       2.515   6.260  19.769  0.00  0.00    +0.000 A 
ATOM     22  C   UNL     1       2.927   6.511  18.454  0.00  0.00    +0.000 A 
ATOM     23  C   UNL     1       2.657   7.753  17.880  0.00  0.00    +0.000 A 
ATOM     24  C   UNL     1       1.930   8.711  18.597  0.00  0.00    +0.000 A 
BRANCH  22  25
ATOM     25  O   UNL     1       3.616   5.490  17.875  0.00  0.00    +0.000 OA
BRANCH  25  26
ATOM     26  C   UNL     1       5.036   5.517  17.830  0.00  0.00    +0.000 C 
ATOM     27  F   UNL     1       5.552   6.579  17.179  0.00  0.00    +0.000 F 
ATOM     28  F   UNL     1       5.522   5.501  19.090  0.00  0.00    +0.000 F 
ATOM     29  F   UNL     1       5.464   4.399  17.201  0.00  0.00    +0.000 F 
ENDBRANCH  25  26
ENDBRANCH  22  25
ENDBRANCH  16  19
ENDBRANCH   1  16
TORSDOF 9
ENDMDL
MODEL 5
REMARK VINA RESULT:      -6.9      3.385      3.929
REMARK  Name = 
REMARK  11 active torsions:
REMARK  status: ('A' for Active; 'I' for Inactive)
REMARK    1  A    between atoms: C_1  and  C_2
REMARK    2  A    between atoms: C_2  and  S_4
REMARK    3  A    between atoms: S_4  and  C_5
REMARK    4  A    between atoms: C_5  and  C_6
REMARK    5  A    between atoms: C_6  and  C_8
REMARK    6  A    between atoms: C_11  and  N_12
REMARK    7  A    between atoms: N_12  and  C_13
REMARK    8  A    between atoms: N_12  and  S_14
REMARK    9  A    between atoms: S_14  and  C_17
REMARK   10  A    between atoms: C_20  and  O_21
REMARK   11  A    between atoms: O_21  and  C_22
REMARK                            x       y       z     vdW  Elec       q    Type
REMARK                         _______ _______ _______ _____ _____    ______ ____
ROOT
ATOM      1  N   UNL     1       2.348   3.560  19.435  0.00  0.00    +0.000 N 
ATOM      2  C   UNL     1       1.142   2.885  19.937  0.00  0.00    +0.000 C 
ENDROOT
BRANCH   1   6
ATOM      3  C   UNL     1       1.922   7.713  18.704  0.00  0.00    +0.000 A 
ATOM      4  C   UNL     1       1.828   6.804  17.638  0.00  0.00    +0.000 A 
ATOM      5  C   UNL     1       1.976   5.427  17.854  0.00  0.00    +0.000 A 
ATOM      6  C   UNL     1       2.246   4.956  19.137  0.00  0.00    +0.000 A 
ATOM      7  C   UNL     1       2.372   5.863  20.197  0.00  0.00    +0.000 A 
ATOM      8  C   UNL     1       2.205   7.239  19.987  0.00  0.00    +0.000 A 
BRANCH   3   9
ATOM      9  C   UNL     1       1.737   9.163  18.410  0.00  0.00    +0.000 C 
ATOM     10  O   UNL     1       2.418   9.649  17.506  0.00  0.00    +0.000 OA
BRANCH   9  11
ATOM     11  C   UNL     1       0.744   9.964  19.243  0.00  0.00    +0.000 C 
BRANCH  11  12
ATOM     12  S   UNL     1       1.149  11.737  19.180  0.00  0.00    +0.000 S 
BRANCH  12  14
ATOM     13  C   UNL     1      -1.375  11.390  18.173  0.00  0.00    +0.000 C 
ATOM     14  C   UNL     1      -0.431  12.392  18.778  0.00  0.00    +0.000 C 
ATOM     15  O   UNL     1      -0.725  13.560  18.992  0.00  0.00    +0.000 OA
ENDBRANCH  12  14
ENDBRANCH  11  12
ENDBRANCH   9  11
ENDBRANCH   3   9
ENDBRANCH   1   6
BRANCH   1  16
ATOM     16  S   UNL     1       3.472   2.618  18.572  0.00  0.00    +0.000 S 
ATOM     17  O   UNL     1       4.081   1.656  19.468  0.00  0.00    +0.000 OA
ATOM     18  O   UNL     1       2.835   2.185  17.347  0.00  0.00    +0.000 OA
BRANCH  16  19
ATOM     19  C   UNL     1       4.743   3.782  18.094  0.00  0.00    +0.000 A 
ATOM     20  C   UNL     1       4.924   4.113  16.752  0.00  0.00    +0.000 A 
ATOM     21  C   UNL     1       5.885   5.068  16.408  0.00  0.00    +0.000 A 
ATOM     22  C   UNL     1       6.647   5.715  17.389  0.00  0.00    +0.000 A 
ATOM     23  C   UNL     1       6.469   5.367  18.728  0.00  0.00    +0.000 A 
ATOM     24  C   UNL     1       5.496   4.424  19.084  0.00  0.00    +0.000 A 
BRANCH  22  25
ATOM     25  O   UNL     1       7.547   6.613  16.904  0.00  0.00    +0.000 OA
BRANCH  25  26
ATOM     26  C   UNL     1       7.799   7.825  17.604  0.00  0.00    +0.000 C 
ATOM     27  F   UNL     1       8.616   8.680  16.957  0.00  0.00    +0.000 F 
ATOM     28  F   UNL     1       6.627   8.447  17.853  0.00  0.00    +0.000 F 
ATOM     29  F   UNL     1       8.373   7.520  18.790  0.00  0.00    +0.000 F 
ENDBRANCH  25  26
ENDBRANCH  22  25
ENDBRANCH  16  19
ENDBRANCH   1  16
TORSDOF 9
ENDMDL
MODEL 6
REMARK VINA RESULT:      -6.9      3.038      3.558
REMARK  Name = 
REMARK  11 active torsions:
REMARK  status: ('A' for Active; 'I' for Inactive)
REMARK    1  A    between atoms: C_1  and  C_2
REMARK    2  A    between atoms: C_2  and  S_4
REMARK    3  A    between atoms: S_4  and  C_5
REMARK    4  A    between atoms: C_5  and  C_6
REMARK    5  A    between atoms: C_6  and  C_8
REMARK    6  A    between atoms: C_11  and  N_12
REMARK    7  A    between atoms: N_12  and  C_13
REMARK    8  A    between atoms: N_12  and  S_14
REMARK    9  A    between atoms: S_14  and  C_17
REMARK   10  A    between atoms: C_20  and  O_21
REMARK   11  A    between atoms: O_21  and  C_22
REMARK                            x       y       z     vdW  Elec       q    Type
REMARK                         _______ _______ _______ _____ _____    ______ ____
ROOT
ATOM      1  N   UNL     1       2.231   3.245  19.301  0.00  0.00    +0.000 N 
ATOM      2  C   UNL     1       1.054   2.502  18.824  0.00  0.00    +0.000 C 
ENDROOT
BRANCH   1   6
ATOM      3  C   UNL     1       1.834   7.462  19.440  0.00  0.00    +0.000 A 
ATOM      4  C   UNL     1       2.037   6.820  18.207  0.00  0.00    +0.000 A 
ATOM      5  C   UNL     1       2.182   5.429  18.138  0.00  0.00    +0.000 A 
ATOM      6  C   UNL     1       2.149   4.673  19.308  0.00  0.00    +0.000 A 
ATOM      7  C   UNL     1       1.979   5.313  20.542  0.00  0.00    +0.000 A 
ATOM      8  C   UNL     1       1.815   6.703  20.613  0.00  0.00    +0.000 A 
BRANCH   3   9
ATOM      9  C   UNL     1       1.669   8.944  19.443  0.00  0.00    +0.000 C 
ATOM     10  O   UNL     1       1.822   9.533  18.372  0.00  0.00    +0.000 OA
BRANCH   9  11
ATOM     11  C   UNL     1       1.343   9.647  20.755  0.00  0.00    +0.000 C 
BRANCH  11  12
ATOM     12  S   UNL     1      -0.327  10.368  20.688  0.00  0.00    +0.000 S 
BRANCH  12  14
ATOM     13  C   UNL     1      -0.058   9.498  23.273  0.00  0.00    +0.000 C 
ATOM     14  C   UNL     1      -0.628  10.586  22.406  0.00  0.00    +0.000 C 
ATOM     15  O   UNL     1      -1.238  11.553  22.842  0.00  0.00    +0.000 OA
ENDBRANCH  12  14
ENDBRANCH  11  12
ENDBRANCH   9  11
ENDBRANCH   3   9
ENDBRANCH   1   6
BRANCH   1  16
ATOM     16  S   UNL     1       3.754   2.512  19.102  0.00  0.00    +0.000 S 
ATOM     17  O   UNL     1       4.288   2.155  20.401  0.00  0.00    +0.000 OA
ATOM     18  O   UNL     1       3.631   1.518  18.057  0.00  0.00    +0.000 OA
BRANCH  16  19
ATOM     19  C   UNL     1       4.784   3.814  18.440  0.00  0.00    +0.000 A 
ATOM     20  C   UNL     1       4.894   3.992  17.062  0.00  0.00    +0.000 A 
ATOM     21  C   UNL     1       5.659   5.053  16.569  0.00  0.00    +0.000 A 
ATOM     22  C   UNL     1       6.292   5.953  17.435  0.00  0.00    +0.000 A 
ATOM     23  C   UNL     1       6.188   5.760  18.813  0.00  0.00    +0.000 A 
ATOM     24  C   UNL     1       5.409   4.710  19.316  0.00  0.00    +0.000 A 
BRANCH  22  25
ATOM     25  O   UNL     1       7.007   6.929  16.812  0.00  0.00    +0.000 OA
BRANCH  25  26
ATOM     26  C   UNL     1       7.769   7.857  17.572  0.00  0.00    +0.000 C 
ATOM     27  F   UNL     1       7.047   8.862  18.106  0.00  0.00    +0.000 F 
ATOM     28  F   UNL     1       8.405   7.202  18.567  0.00  0.00    +0.000 F 
ATOM     29  F   UNL     1       8.704   8.404  16.764  0.00  0.00    +0.000 F 
ENDBRANCH  25  26
ENDBRANCH  22  25
ENDBRANCH  16  19
ENDBRANCH   1  16
TORSDOF 9
ENDMDL
MODEL 7
REMARK VINA RESULT:      -6.9      3.269      3.798
REMARK  Name = 
REMARK  11 active torsions:
REMARK  status: ('A' for Active; 'I' for Inactive)
REMARK    1  A    between atoms: C_1  and  C_2
REMARK    2  A    between atoms: C_2  and  S_4
REMARK    3  A    between atoms: S_4  and  C_5
REMARK    4  A    between atoms: C_5  and  C_6
REMARK    5  A    between atoms: C_6  and  C_8
REMARK    6  A    between atoms: C_11  and  N_12
REMARK    7  A    between atoms: N_12  and  C_13
REMARK    8  A    between atoms: N_12  and  S_14
REMARK    9  A    between atoms: S_14  and  C_17
REMARK   10  A    between atoms: C_20  and  O_21
REMARK   11  A    between atoms: O_21  and  C_22
REMARK                            x       y       z     vdW  Elec       q    Type
REMARK                         _______ _______ _______ _____ _____    ______ ____
ROOT
ATOM      1  N   UNL     1       2.177   3.595  19.323  0.00  0.00    +0.000 N 
ATOM      2  C   UNL     1       0.976   2.927  19.845  0.00  0.00    +0.000 C 
ENDROOT
BRANCH   1   6
ATOM      3  C   UNL     1       1.827   7.788  18.809  0.00  0.00    +0.000 A 
ATOM      4  C   UNL     1       1.748   6.939  17.693  0.00  0.00    +0.000 A 
ATOM      5  C   UNL     1       1.872   5.550  17.838  0.00  0.00    +0.000 A 
ATOM      6  C   UNL     1       2.102   5.006  19.099  0.00  0.00    +0.000 A 
ATOM      7  C   UNL     1       2.213   5.852  20.210  0.00  0.00    +0.000 A 
ATOM      8  C   UNL     1       2.071   7.240  20.072  0.00  0.00    +0.000 A 
BRANCH   3   9
ATOM      9  C   UNL     1       1.670   9.254  18.590  0.00  0.00    +0.000 C 
ATOM     10  O   UNL     1       2.197   9.736  17.588  0.00  0.00    +0.000 OA
BRANCH   9  11
ATOM     11  C   UNL     1       0.891  10.073  19.613  0.00  0.00    +0.000 C 
BRANCH  11  12
ATOM     12  S   UNL     1       0.967  11.843  19.195  0.00  0.00    +0.000 S 
BRANCH  12  14
ATOM     13  C   UNL     1      -1.371  12.860  20.200  0.00  0.00    +0.000 C 
ATOM     14  C   UNL     1      -0.748  12.180  19.012  0.00  0.00    +0.000 C 
ATOM     15  O   UNL     1      -1.363  11.892  17.995  0.00  0.00    +0.000 OA
ENDBRANCH  12  14
ENDBRANCH  11  12
ENDBRANCH   9  11
ENDBRANCH   3   9
ENDBRANCH   1   6
BRANCH   1  16
ATOM     16  S   UNL     1       3.235   2.669  18.364  0.00  0.00    +0.000 S 
ATOM     17  O   UNL     1       3.856   1.648  19.184  0.00  0.00    +0.000 OA
ATOM     18  O   UNL     1       2.532   2.314  17.150  0.00  0.00    +0.000 OA
BRANCH  16  19
ATOM     19  C   UNL     1       4.515   3.821  17.885  0.00  0.00    +0.000 A 
ATOM     20  C   UNL     1       5.411   4.312  18.834  0.00  0.00    +0.000 A 
ATOM     21  C   UNL     1       6.439   5.166  18.426  0.00  0.00    +0.000 A 
ATOM     22  C   UNL     1       6.598   5.515  17.078  0.00  0.00    +0.000 A 
ATOM     23  C   UNL     1       5.690   5.031  16.137  0.00  0.00    +0.000 A 
ATOM     24  C   UNL     1       4.668   4.159  16.535  0.00  0.00    +0.000 A 
BRANCH  22  25
ATOM     25  O   UNL     1       7.637   6.359  16.833  0.00  0.00    +0.000 OA
BRANCH  25  26
ATOM     26  C   UNL     1       7.774   7.563  17.577  0.00  0.00    +0.000 C 
ATOM     27  F   UNL     1       8.319   7.402  18.799  0.00  0.00    +0.000 F 
ATOM     28  F   UNL     1       8.529   8.436  16.875  0.00  0.00    +0.000 F 
ATOM     29  F   UNL     1       6.546   8.106  17.740  0.00  0.00    +0.000 F 
ENDBRANCH  25  26
ENDBRANCH  22  25
ENDBRANCH  16  19
ENDBRANCH   1  16
TORSDOF 9
ENDMDL
MODEL 8
REMARK VINA RESULT:      -6.9      3.074      3.609
REMARK  Name = 
REMARK  11 active torsions:
REMARK  status: ('A' for Active; 'I' for Inactive)
REMARK    1  A    between atoms: C_1  and  C_2
REMARK    2  A    between atoms: C_2  and  S_4
REMARK    3  A    between atoms: S_4  and  C_5
REMARK    4  A    between atoms: C_5  and  C_6
REMARK    5  A    between atoms: C_6  and  C_8
REMARK    6  A    between atoms: C_11  and  N_12
REMARK    7  A    between atoms: N_12  and  C_13
REMARK    8  A    between atoms: N_12  and  S_14
REMARK    9  A    between atoms: S_14  and  C_17
REMARK   10  A    between atoms: C_20  and  O_21
REMARK   11  A    between atoms: O_21  and  C_22
REMARK                            x       y       z     vdW  Elec       q    Type
REMARK                         _______ _______ _______ _____ _____    ______ ____
ROOT
ATOM      1  N   UNL     1       2.253   3.348  19.176  0.00  0.00    +0.000 N 
ATOM      2  C   UNL     1       1.065   2.583  18.768  0.00  0.00    +0.000 C 
ENDROOT
BRANCH   1   6
ATOM      3  C   UNL     1       1.961   7.567  18.888  0.00  0.00    +0.000 A 
ATOM      4  C   UNL     1       1.992   6.788  17.720  0.00  0.00    +0.000 A 
ATOM      5  C   UNL     1       2.100   5.393  17.790  0.00  0.00    +0.000 A 
ATOM      6  C   UNL     1       2.202   4.771  19.032  0.00  0.00    +0.000 A 
ATOM      7  C   UNL     1       2.203   5.547  20.198  0.00  0.00    +0.000 A 
ATOM      8  C   UNL     1       2.077   6.941  20.132  0.00  0.00    +0.000 A 
BRANCH   3   9
ATOM      9  C   UNL     1       1.828   9.045  18.745  0.00  0.00    +0.000 C 
ATOM     10  O   UNL     1       1.900   9.512  17.608  0.00  0.00    +0.000 OA
BRANCH   9  11
ATOM     11  C   UNL     1       1.631   9.892  19.996  0.00  0.00    +0.000 C 
BRANCH  11  12
ATOM     12  S   UNL     1      -0.090   9.769  20.578  0.00  0.00    +0.000 S 
BRANCH  12  14
ATOM     13  C   UNL     1       0.171  12.408  21.270  0.00  0.00    +0.000 C 
ATOM     14  C   UNL     1      -0.080  11.026  21.807  0.00  0.00    +0.000 C 
ATOM     15  O   UNL     1      -0.276  10.781  22.989  0.00  0.00    +0.000 OA
ENDBRANCH  12  14
ENDBRANCH  11  12
ENDBRANCH   9  11
ENDBRANCH   3   9
ENDBRANCH   1   6
BRANCH   1  16
ATOM     16  S   UNL     1       3.762   2.568  19.070  0.00  0.00    +0.000 S 
ATOM     17  O   UNL     1       4.244   2.273  20.404  0.00  0.00    +0.000 OA
ATOM     18  O   UNL     1       3.647   1.520  18.078  0.00  0.00    +0.000 OA
BRANCH  16  19
ATOM     19  C   UNL     1       4.847   3.805  18.371  0.00  0.00    +0.000 A 
ATOM     20  C   UNL     1       5.654   4.582  19.201  0.00  0.00    +0.000 A 
ATOM     21  C   UNL     1       6.536   5.503  18.628  0.00  0.00    +0.000 A 
ATOM     22  C   UNL     1       6.642   5.637  17.238  0.00  0.00    +0.000 A 
ATOM     23  C   UNL     1       5.821   4.865  16.415  0.00  0.00    +0.000 A 
ATOM     24  C   UNL     1       4.947   3.927  16.980  0.00  0.00    +0.000 A 
BRANCH  22  25
ATOM     25  O   UNL     1       7.536   6.577  16.828  0.00  0.00    +0.000 OA
BRANCH  25  26
ATOM     26  C   UNL     1       7.712   7.774  17.574  0.00  0.00    +0.000 C 
ATOM     27  F   UNL     1       8.490   8.695  16.972  0.00  0.00    +0.000 F 
ATOM     28  F   UNL     1       6.504   8.322  17.827  0.00  0.00    +0.000 F 
ATOM     29  F   UNL     1       8.285   7.458  18.757  0.00  0.00    +0.000 F 
ENDBRANCH  25  26
ENDBRANCH  22  25
ENDBRANCH  16  19
ENDBRANCH   1  16
TORSDOF 9
ENDMDL
MODEL 9
REMARK VINA RESULT:      -6.8      6.524     11.045
REMARK  Name = 
REMARK  11 active torsions:
REMARK  status: ('A' for Active; 'I' for Inactive)
REMARK    1  A    between atoms: C_1  and  C_2
REMARK    2  A    between atoms: C_2  and  S_4
REMARK    3  A    between atoms: S_4  and  C_5
REMARK    4  A    between atoms: C_5  and  C_6
REMARK    5  A    between atoms: C_6  and  C_8
REMARK    6  A    between atoms: C_11  and  N_12
REMARK    7  A    between atoms: N_12  and  C_13
REMARK    8  A    between atoms: N_12  and  S_14
REMARK    9  A    between atoms: S_14  and  C_17
REMARK   10  A    between atoms: C_20  and  O_21
REMARK   11  A    between atoms: O_21  and  C_22
REMARK                            x       y       z     vdW  Elec       q    Type
REMARK                         _______ _______ _______ _____ _____    ______ ____
ROOT
ATOM      1  N   UNL     1       0.408  10.991  18.821  0.00  0.00    +0.000 N 
ATOM      2  C   UNL     1      -0.952  10.875  18.274  0.00  0.00    +0.000 C 
ENDROOT
BRANCH   1   6
ATOM      3  C   UNL     1       2.605   7.373  19.031  0.00  0.00    +0.000 A 
ATOM      4  C   UNL     1       1.817   7.775  20.121  0.00  0.00    +0.000 A 
ATOM      5  C   UNL     1       1.091   8.973  20.079  0.00  0.00    +0.000 A 
ATOM      6  C   UNL     1       1.170   9.787  18.952  0.00  0.00    +0.000 A 
ATOM      7  C   UNL     1       1.980   9.406  17.875  0.00  0.00    +0.000 A 
ATOM      8  C   UNL     1       2.693   8.199  17.907  0.00  0.00    +0.000 A 
BRANCH   3   9
ATOM      9  C   UNL     1       3.339   6.080  19.132  0.00  0.00    +0.000 C 
ATOM     10  O   UNL     1       3.177   5.415  20.156  0.00  0.00    +0.000 OA
BRANCH   9  11
ATOM     11  C   UNL     1       4.254   5.659  17.988  0.00  0.00    +0.000 C 
BRANCH  11  12
ATOM     12  S   UNL     1       5.454   4.416  18.561  0.00  0.00    +0.000 S 
BRANCH  12  14
ATOM     13  C   UNL     1       7.165   6.465  17.943  0.00  0.00    +0.000 C 
ATOM     14  C   UNL     1       6.788   5.470  19.005  0.00  0.00    +0.000 C 
ATOM     15  O   UNL     1       7.341   5.397  20.094  0.00  0.00    +0.000 OA
ENDBRANCH  12  14
ENDBRANCH  11  12
ENDBRANCH   9  11
ENDBRANCH   3   9
ENDBRANCH   1   6
BRANCH   1  16
ATOM     16  S   UNL     1       0.712  12.275  19.896  0.00  0.00    +0.000 S 
ATOM     17  O   UNL     1       1.860  11.950  20.719  0.00  0.00    +0.000 OA
ATOM     18  O   UNL     1       0.676  13.505  19.134  0.00  0.00    +0.000 OA
BRANCH  16  19
ATOM     19  C   UNL     1      -0.721  12.302  20.964  0.00  0.00    +0.000 A 
ATOM     20  C   UNL     1      -1.849  13.040  20.608  0.00  0.00    +0.000 A 
ATOM     21  C   UNL     1      -2.978  13.000  21.431  0.00  0.00    +0.000 A 
ATOM     22  C   UNL     1      -3.004  12.211  22.588  0.00  0.00    +0.000 A 
ATOM     23  C   UNL     1      -1.867  11.487  22.944  0.00  0.00    +0.000 A 
ATOM     24  C   UNL     1      -0.737  11.507  22.116  0.00  0.00    +0.000 A 
BRANCH  22  25
ATOM     25  O   UNL     1      -4.167  12.279  23.291  0.00  0.00    +0.000 OA
BRANCH  25  26
ATOM     26  C   UNL     1      -4.266  13.116  24.435  0.00  0.00    +0.000 C 
ATOM     27  F   UNL     1      -5.249  14.036  24.367  0.00  0.00    +0.000 F 
ATOM     28  F   UNL     1      -4.462  12.350  25.531  0.00  0.00    +0.000 F 
ATOM     29  F   UNL     1      -3.094  13.773  24.586  0.00  0.00    +0.000 F 
ENDBRANCH  25  26
ENDBRANCH  22  25
ENDBRANCH  16  19
ENDBRANCH   1  16
TORSDOF 9
ENDMDL
