MODEL 1
REMARK VINA RESULT:      -7.2      0.000      0.000
REMARK  Name = 
REMARK  5 active torsions:
REMARK  status: ('A' for Active; 'I' for Inactive)
REMARK    1  A    between atoms: O_1  and  C_2
REMARK    2  A    between atoms: C_5  and  C_6
REMARK    3  A    between atoms: C_10  and  C_11
REMARK    4  A    between atoms: N_12  and  C_13
REMARK    5  A    between atoms: C_13  and  C_14
REMARK                            x       y       z     vdW  Elec       q    Type
REMARK                         _______ _______ _______ _____ _____    ______ ____
ROOT
ATOM      1  C   UNL     1       7.063   4.987  18.650  0.00  0.00    +0.000 A 
ATOM      2  N   UNL     1       8.151   4.640  17.894  0.00  0.00    +0.000 N 
ATOM      3  N   UNL     1       7.888   4.515  16.588  0.00  0.00    +0.000 NA
ATOM      4  C   UNL     1       6.570   4.800  16.483  0.00  0.00    +0.000 A 
ATOM      5  C   UNL     1       6.011   5.112  17.763  0.00  0.00    +0.000 A 
ATOM      6  H   UNL     1       9.103   4.471  18.198  0.00  0.00    +0.000 HD
ENDROOT
BRANCH   4   7
ATOM      7  C   UNL     1       5.846   4.771  15.157  0.00  0.00    +0.000 C 
ATOM      8  F   UNL     1       6.664   4.395  14.130  0.00  0.00    +0.000 F 
ATOM      9  F   UNL     1       4.812   3.890  15.146  0.00  0.00    +0.000 F 
ATOM     10  F   UNL     1       5.357   5.990  14.806  0.00  0.00    +0.000 F 
ENDBRANCH   4   7
BRANCH   1  11
ATOM     11  O   UNL     1       7.118   5.145  19.969  0.00  0.00    +0.000 OA
ATOM     12  H   UNL     1       7.362   4.309  20.403  0.00  0.00    +0.000 HD
ENDBRANCH   1  11
BRANCH   5  13
ATOM     13  C   UNL     1       4.653   5.473  18.106  0.00  0.00    +0.000 C 
ATOM     14  N   UNL     1       4.360   5.602  19.350  0.00  0.00    +0.000 NA
BRANCH  14  15
ATOM     15  C   UNL     1       2.965   5.976  19.625  0.00  0.00    +0.000 C 
BRANCH  15  16
ATOM     16  C   UNL     1       2.147   4.737  19.881  0.00  0.00    +0.000 A 
ATOM     17  C   UNL     1       1.867   4.116  21.085  0.00  0.00    +0.000 A 
ATOM     18  C   UNL     1       1.064   2.949  20.932  0.00  0.00    +0.000 A 
ATOM     19  C   UNL     1       0.761   2.704  19.612  0.00  0.00    +0.000 A 
ATOM     20  S   UNL     1       1.447   3.875  18.569  0.00  0.00    +0.000 S 
ENDBRANCH  15  16
ENDBRANCH  14  15
ENDBRANCH   5  13
TORSDOF 5
ENDMDL
MODEL 2
REMARK VINA RESULT:      -7.1      1.634      2.025
REMARK  Name = 
REMARK  5 active torsions:
REMARK  status: ('A' for Active; 'I' for Inactive)
REMARK    1  A    between atoms: O_1  and  C_2
REMARK    2  A    between atoms: C_5  and  C_6
REMARK    3  A    between atoms: C_10  and  C_11
REMARK    4  A    between atoms: N_12  and  C_13
REMARK    5  A    between atoms: C_13  and  C_14
REMARK                            x       y       z     vdW  Elec       q    Type
REMARK                         _______ _______ _______ _____ _____    ______ ____
ROOT
ATOM      1  C   UNL     1       7.280   5.811  18.907  0.00  0.00    +0.000 A 
ATOM      2  N   UNL     1       7.789   6.880  18.218  0.00  0.00    +0.000 N 
ATOM      3  N   UNL     1       7.314   7.000  16.974  0.00  0.00    +0.000 NA
ATOM      4  C   UNL     1       6.451   5.968  16.842  0.00  0.00    +0.000 A 
ATOM      5  C   UNL     1       6.393   5.194  18.046  0.00  0.00    +0.000 A 
ATOM      6  H   UNL     1       8.463   7.570  18.531  0.00  0.00    +0.000 HD
ENDROOT
BRANCH   4   7
ATOM      7  C   UNL     1       5.684   5.721  15.565  0.00  0.00    +0.000 C 
ATOM      8  F   UNL     1       4.794   4.693  15.688  0.00  0.00    +0.000 F 
ATOM      9  F   UNL     1       4.951   6.798  15.179  0.00  0.00    +0.000 F 
ATOM     10  F   UNL     1       6.496   5.379  14.529  0.00  0.00    +0.000 F 
ENDBRANCH   4   7
BRANCH   1  11
ATOM     11  O   UNL     1       7.638   5.515  20.152  0.00  0.00    +0.000 OA
ATOM     12  H   UNL     1       7.996   4.610  20.199  0.00  0.00    +0.000 HD
ENDBRANCH   1  11
BRANCH   5  13
ATOM     13  C   UNL     1       5.605   4.018  18.341  0.00  0.00    +0.000 C 
ATOM     14  N   UNL     1       5.298   3.792  19.567  0.00  0.00    +0.000 NA
BRANCH  14  15
ATOM     15  C   UNL     1       4.493   2.582  19.793  0.00  0.00    +0.000 C 
BRANCH  15  16
ATOM     16  C   UNL     1       3.033   2.948  19.866  0.00  0.00    +0.000 A 
ATOM     17  C   UNL     1       1.942   2.268  19.359  0.00  0.00    +0.000 A 
ATOM     18  C   UNL     1       0.707   2.931  19.615  0.00  0.00    +0.000 A 
ATOM     19  C   UNL     1       0.891   4.109  20.303  0.00  0.00    +0.000 A 
ATOM     20  S   UNL     1       2.544   4.407  20.632  0.00  0.00    +0.000 S 
ENDBRANCH  15  16
ENDBRANCH  14  15
ENDBRANCH   5  13
TORSDOF 5
ENDMDL
MODEL 3
REMARK VINA RESULT:      -7.1      1.845      2.119
REMARK  Name = 
REMARK  5 active torsions:
REMARK  status: ('A' for Active; 'I' for Inactive)
REMARK    1  A    between atoms: O_1  and  C_2
REMARK    2  A    between atoms: C_5  and  C_6
REMARK    3  A    between atoms: C_10  and  C_11
REMARK    4  A    between atoms: N_12  and  C_13
REMARK    5  A    between atoms: C_13  and  C_14
REMARK                            x       y       z     vdW  Elec       q    Type
REMARK                         _______ _______ _______ _____ _____    ______ ____
ROOT
ATOM      1  C   UNL     1       7.409   5.825  19.233  0.00  0.00    +0.000 A 
ATOM      2  N   UNL     1       7.865   6.666  18.253  0.00  0.00    +0.000 N 
ATOM      3  N   UNL     1       7.018   6.817  17.229  0.00  0.00    +0.000 NA
ATOM      4  C   UNL     1       5.956   6.045  17.555  0.00  0.00    +0.000 A 
ATOM      5  C   UNL     1       6.159   5.406  18.820  0.00  0.00    +0.000 A 
ATOM      6  H   UNL     1       8.743   7.173  18.213  0.00  0.00    +0.000 HD
ENDROOT
BRANCH   4   7
ATOM      7  C   UNL     1       4.750   5.918  16.655  0.00  0.00    +0.000 C 
ATOM      8  F   UNL     1       4.568   4.639  16.213  0.00  0.00    +0.000 F 
ATOM      9  F   UNL     1       3.593   6.260  17.281  0.00  0.00    +0.000 F 
ATOM     10  F   UNL     1       4.856   6.680  15.533  0.00  0.00    +0.000 F 
ENDBRANCH   4   7
BRANCH   1  11
ATOM     11  O   UNL     1       8.111   5.537  20.325  0.00  0.00    +0.000 OA
ATOM     12  H   UNL     1       8.689   4.770  20.166  0.00  0.00    +0.000 HD
ENDBRANCH   1  11
BRANCH   5  13
ATOM     13  C   UNL     1       5.287   4.506  19.542  0.00  0.00    +0.000 C 
ATOM     14  N   UNL     1       5.366   3.252  19.282  0.00  0.00    +0.000 NA
BRANCH  14  15
ATOM     15  C   UNL     1       4.454   2.397  20.056  0.00  0.00    +0.000 C 
BRANCH  15  16
ATOM     16  C   UNL     1       3.027   2.739  19.719  0.00  0.00    +0.000 A 
ATOM     17  C   UNL     1       2.037   3.242  20.544  0.00  0.00    +0.000 A 
ATOM     18  C   UNL     1       0.797   3.431  19.870  0.00  0.00    +0.000 A 
ATOM     19  C   UNL     1       0.869   3.056  18.548  0.00  0.00    +0.000 A 
ATOM     20  S   UNL     1       2.426   2.479  18.130  0.00  0.00    +0.000 S 
ENDBRANCH  15  16
ENDBRANCH  14  15
ENDBRANCH   5  13
TORSDOF 5
ENDMDL
MODEL 4
REMARK VINA RESULT:      -7.1      1.643      1.938
REMARK  Name = 
REMARK  5 active torsions:
REMARK  status: ('A' for Active; 'I' for Inactive)
REMARK    1  A    between atoms: O_1  and  C_2
REMARK    2  A    between atoms: C_5  and  C_6
REMARK    3  A    between atoms: C_10  and  C_11
REMARK    4  A    between atoms: N_12  and  C_13
REMARK    5  A    between atoms: C_13  and  C_14
REMARK                            x       y       z     vdW  Elec       q    Type
REMARK                         _______ _______ _______ _____ _____    ______ ____
ROOT
ATOM      1  C   UNL     1       7.425   5.911  18.874  0.00  0.00    +0.000 A 
ATOM      2  N   UNL     1       7.799   7.046  18.203  0.00  0.00    +0.000 N 
ATOM      3  N   UNL     1       7.222   7.182  17.004  0.00  0.00    +0.000 NA
ATOM      4  C   UNL     1       6.430   6.093  16.886  0.00  0.00    +0.000 A 
ATOM      5  C   UNL     1       6.522   5.266  18.051  0.00  0.00    +0.000 A 
ATOM      6  H   UNL     1       8.442   7.771  18.499  0.00  0.00    +0.000 HD
ENDROOT
BRANCH   4   7
ATOM      7  C   UNL     1       5.588   5.843  15.658  0.00  0.00    +0.000 C 
ATOM      8  F   UNL     1       4.940   6.969  15.237  0.00  0.00    +0.000 F 
ATOM      9  F   UNL     1       6.324   5.423  14.595  0.00  0.00    +0.000 F 
ATOM     10  F   UNL     1       4.612   4.921  15.876  0.00  0.00    +0.000 F 
ENDBRANCH   4   7
BRANCH   1  11
ATOM     11  O   UNL     1       7.898   5.590  20.074  0.00  0.00    +0.000 OA
ATOM     12  H   UNL     1       8.385   4.748  20.035  0.00  0.00    +0.000 HD
ENDBRANCH   1  11
BRANCH   5  13
ATOM     13  C   UNL     1       5.849   4.020  18.345  0.00  0.00    +0.000 C 
ATOM     14  N   UNL     1       5.307   3.887  19.501  0.00  0.00    +0.000 NA
BRANCH  14  15
ATOM     15  C   UNL     1       4.636   2.599  19.729  0.00  0.00    +0.000 C 
BRANCH  15  16
ATOM     16  C   UNL     1       3.160   2.821  19.931  0.00  0.00    +0.000 A 
ATOM     17  C   UNL     1       2.468   3.038  21.108  0.00  0.00    +0.000 A 
ATOM     18  C   UNL     1       1.067   3.197  20.906  0.00  0.00    +0.000 A 
ATOM     19  C   UNL     1       0.725   3.086  19.578  0.00  0.00    +0.000 A 
ATOM     20  S   UNL     1       2.089   2.790  18.588  0.00  0.00    +0.000 S 
ENDBRANCH  15  16
ENDBRANCH  14  15
ENDBRANCH   5  13
TORSDOF 5
ENDMDL
MODEL 5
REMARK VINA RESULT:      -7.1      1.110      1.550
REMARK  Name = 
REMARK  5 active torsions:
REMARK  status: ('A' for Active; 'I' for Inactive)
REMARK    1  A    between atoms: O_1  and  C_2
REMARK    2  A    between atoms: C_5  and  C_6
REMARK    3  A    between atoms: C_10  and  C_11
REMARK    4  A    between atoms: N_12  and  C_13
REMARK    5  A    between atoms: C_13  and  C_14
REMARK                            x       y       z     vdW  Elec       q    Type
REMARK                         _______ _______ _______ _____ _____    ______ ____
ROOT
ATOM      1  C   UNL     1       7.419   5.108  19.108  0.00  0.00    +0.000 A 
ATOM      2  N   UNL     1       8.371   4.733  18.197  0.00  0.00    +0.000 N 
ATOM      3  N   UNL     1       7.871   4.331  17.023  0.00  0.00    +0.000 NA
ATOM      4  C   UNL     1       6.532   4.454  17.169  0.00  0.00    +0.000 A 
ATOM      5  C   UNL     1       6.203   4.950  18.471  0.00  0.00    +0.000 A 
ATOM      6  H   UNL     1       9.379   4.725  18.304  0.00  0.00    +0.000 HD
ENDROOT
BRANCH   4   7
ATOM      7  C   UNL     1       5.568   4.095  16.063  0.00  0.00    +0.000 C 
ATOM      8  F   UNL     1       5.071   5.198  15.432  0.00  0.00    +0.000 F 
ATOM      9  F   UNL     1       6.146   3.342  15.090  0.00  0.00    +0.000 F 
ATOM     10  F   UNL     1       4.482   3.416  16.522  0.00  0.00    +0.000 F 
ENDBRANCH   4   7
BRANCH   1  11
ATOM     11  O   UNL     1       7.715   5.525  20.335  0.00  0.00    +0.000 OA
ATOM     12  H   UNL     1       8.182   6.379  20.302  0.00  0.00    +0.000 HD
ENDBRANCH   1  11
BRANCH   5  13
ATOM     13  C   UNL     1       4.905   5.231  19.044  0.00  0.00    +0.000 C 
ATOM     14  N   UNL     1       4.138   6.053  18.423  0.00  0.00    +0.000 NA
BRANCH  14  15
ATOM     15  C   UNL     1       2.833   6.287  19.059  0.00  0.00    +0.000 C 
BRANCH  15  16
ATOM     16  C   UNL     1       2.082   4.987  19.172  0.00  0.00    +0.000 A 
ATOM     17  C   UNL     1       1.622   4.160  18.163  0.00  0.00    +0.000 A 
ATOM     18  C   UNL     1       0.938   3.012  18.657  0.00  0.00    +0.000 A 
ATOM     19  C   UNL     1       0.884   2.998  20.032  0.00  0.00    +0.000 A 
ATOM     20  S   UNL     1       1.653   4.366  20.716  0.00  0.00    +0.000 S 
ENDBRANCH  15  16
ENDBRANCH  14  15
ENDBRANCH   5  13
TORSDOF 5
ENDMDL
MODEL 6
REMARK VINA RESULT:      -7.1      0.942      1.509
REMARK  Name = 
REMARK  5 active torsions:
REMARK  status: ('A' for Active; 'I' for Inactive)
REMARK    1  A    between atoms: O_1  and  C_2
REMARK    2  A    between atoms: C_5  and  C_6
REMARK    3  A    between atoms: C_10  and  C_11
REMARK    4  A    between atoms: N_12  and  C_13
REMARK    5  A    between atoms: C_13  and  C_14
REMARK                            x       y       z     vdW  Elec       q    Type
REMARK                         _______ _______ _______ _____ _____    ______ ____
ROOT
ATOM      1  C   UNL     1       6.682   4.699  18.468  0.00  0.00    +0.000 A 
ATOM      2  N   UNL     1       7.925   4.569  17.907  0.00  0.00    +0.000 N 
ATOM      3  N   UNL     1       7.919   4.561  16.570  0.00  0.00    +0.000 NA
ATOM      4  C   UNL     1       6.615   4.699  16.239  0.00  0.00    +0.000 A 
ATOM      5  C   UNL     1       5.798   4.798  17.411  0.00  0.00    +0.000 A 
ATOM      6  H   UNL     1       8.821   4.480  18.373  0.00  0.00    +0.000 HD
ENDROOT
BRANCH   4   7
ATOM      7  C   UNL     1       6.151   4.733  14.802  0.00  0.00    +0.000 C 
ATOM      8  F   UNL     1       5.280   5.757  14.565  0.00  0.00    +0.000 F 
ATOM      9  F   UNL     1       7.175   4.909  13.926  0.00  0.00    +0.000 F 
ATOM     10  F   UNL     1       5.489   3.600  14.443  0.00  0.00    +0.000 F 
ENDBRANCH   4   7
BRANCH   1  11
ATOM     11  O   UNL     1       6.478   4.715  19.782  0.00  0.00    +0.000 OA
ATOM     12  H   UNL     1       7.221   5.148  20.238  0.00  0.00    +0.000 HD
ENDBRANCH   1  11
BRANCH   5  13
ATOM     13  C   UNL     1       4.365   4.956  17.518  0.00  0.00    +0.000 C 
ATOM     14  N   UNL     1       3.917   5.862  18.310  0.00  0.00    +0.000 NA
BRANCH  14  15
ATOM     15  C   UNL     1       2.451   5.971  18.365  0.00  0.00    +0.000 C 
BRANCH  15  16
ATOM     16  C   UNL     1       1.875   4.749  19.031  0.00  0.00    +0.000 A 
ATOM     17  C   UNL     1       1.215   3.678  18.458  0.00  0.00    +0.000 A 
ATOM     18  C   UNL     1       0.800   2.707  19.414  0.00  0.00    +0.000 A 
ATOM     19  C   UNL     1       1.146   3.068  20.696  0.00  0.00    +0.000 A 
ATOM     20  S   UNL     1       1.963   4.572  20.739  0.00  0.00    +0.000 S 
ENDBRANCH  15  16
ENDBRANCH  14  15
ENDBRANCH   5  13
TORSDOF 5
ENDMDL
MODEL 7
REMARK VINA RESULT:      -7.0      1.954      2.462
REMARK  Name = 
REMARK  5 active torsions:
REMARK  status: ('A' for Active; 'I' for Inactive)
REMARK    1  A    between atoms: O_1  and  C_2
REMARK    2  A    between atoms: C_5  and  C_6
REMARK    3  A    between atoms: C_10  and  C_11
REMARK    4  A    between atoms: N_12  and  C_13
REMARK    5  A    between atoms: C_13  and  C_14
REMARK                            x       y       z     vdW  Elec       q    Type
REMARK                         _______ _______ _______ _____ _____    ______ ____
ROOT
ATOM      1  C   UNL     1       7.446   5.871  19.234  0.00  0.00    +0.000 A 
ATOM      2  N   UNL     1       7.924   6.733  18.284  0.00  0.00    +0.000 N 
ATOM      3  N   UNL     1       7.092   6.922  17.254  0.00  0.00    +0.000 NA
ATOM      4  C   UNL     1       6.018   6.156  17.545  0.00  0.00    +0.000 A 
ATOM      5  C   UNL     1       6.196   5.479  18.794  0.00  0.00    +0.000 A 
ATOM      6  H   UNL     1       8.808   7.229  18.270  0.00  0.00    +0.000 HD
ENDROOT
BRANCH   4   7
ATOM      7  C   UNL     1       4.821   6.068  16.627  0.00  0.00    +0.000 C 
ATOM      8  F   UNL     1       3.671   6.481  17.236  0.00  0.00    +0.000 F 
ATOM      9  F   UNL     1       4.953   6.847  15.521  0.00  0.00    +0.000 F 
ATOM     10  F   UNL     1       4.578   4.796  16.212  0.00  0.00    +0.000 F 
ENDBRANCH   4   7
BRANCH   1  11
ATOM     11  O   UNL     1       8.130   5.544  20.326  0.00  0.00    +0.000 OA
ATOM     12  H   UNL     1       8.633   6.309  20.656  0.00  0.00    +0.000 HD
ENDBRANCH   1  11
BRANCH   5  13
ATOM     13  C   UNL     1       5.304   4.571  19.480  0.00  0.00    +0.000 C 
ATOM     14  N   UNL     1       5.407   3.317  19.223  0.00  0.00    +0.000 NA
BRANCH  14  15
ATOM     15  C   UNL     1       4.472   2.453  19.960  0.00  0.00    +0.000 C 
BRANCH  15  16
ATOM     16  C   UNL     1       3.057   2.909  19.716  0.00  0.00    +0.000 A 
ATOM     17  C   UNL     1       2.373   3.014  18.519  0.00  0.00    +0.000 A 
ATOM     18  C   UNL     1       1.043   3.497  18.681  0.00  0.00    +0.000 A 
ATOM     19  C   UNL     1       0.750   3.759  20.000  0.00  0.00    +0.000 A 
ATOM     20  S   UNL     1       2.076   3.425  21.030  0.00  0.00    +0.000 S 
ENDBRANCH  15  16
ENDBRANCH  14  15
ENDBRANCH   5  13
TORSDOF 5
ENDMDL
MODEL 8
REMARK VINA RESULT:      -7.0      0.886      1.288
REMARK  Name = 
REMARK  5 active torsions:
REMARK  status: ('A' for Active; 'I' for Inactive)
REMARK    1  A    between atoms: O_1  and  C_2
REMARK    2  A    between atoms: C_5  and  C_6
REMARK    3  A    between atoms: C_10  and  C_11
REMARK    4  A    between atoms: N_12  and  C_13
REMARK    5  A    between atoms: C_13  and  C_14
REMARK                            x       y       z     vdW  Elec       q    Type
REMARK                         _______ _______ _______ _____ _____    ______ ____
ROOT
ATOM      1  C   UNL     1       7.398   5.148  19.203  0.00  0.00    +0.000 A 
ATOM      2  N   UNL     1       8.327   4.787  18.263  0.00  0.00    +0.000 N 
ATOM      3  N   UNL     1       7.799   4.396  17.099  0.00  0.00    +0.000 NA
ATOM      4  C   UNL     1       6.464   4.511  17.280  0.00  0.00    +0.000 A 
ATOM      5  C   UNL     1       6.166   4.992  18.595  0.00  0.00    +0.000 A 
ATOM      6  H   UNL     1       9.338   4.782  18.345  0.00  0.00    +0.000 HD
ENDROOT
BRANCH   4   7
ATOM      7  C   UNL     1       5.473   4.159  16.195  0.00  0.00    +0.000 C 
ATOM      8  F   UNL     1       4.448   3.389  16.662  0.00  0.00    +0.000 F 
ATOM      9  F   UNL     1       4.889   5.256  15.645  0.00  0.00    +0.000 F 
ATOM     10  F   UNL     1       6.040   3.442  15.188  0.00  0.00    +0.000 F 
ENDBRANCH   4   7
BRANCH   1  11
ATOM     11  O   UNL     1       7.723   5.552  20.426  0.00  0.00    +0.000 OA
ATOM     12  H   UNL     1       7.045   6.157  20.777  0.00  0.00    +0.000 HD
ENDBRANCH   1  11
BRANCH   5  13
ATOM     13  C   UNL     1       4.882   5.261  19.204  0.00  0.00    +0.000 C 
ATOM     14  N   UNL     1       4.069   6.031  18.576  0.00  0.00    +0.000 NA
BRANCH  14  15
ATOM     15  C   UNL     1       2.781   6.256  19.250  0.00  0.00    +0.000 C 
BRANCH  15  16
ATOM     16  C   UNL     1       2.084   4.939  19.468  0.00  0.00    +0.000 A 
ATOM     17  C   UNL     1       1.782   4.304  20.659  0.00  0.00    +0.000 A 
ATOM     18  C   UNL     1       1.121   3.056  20.469  0.00  0.00    +0.000 A 
ATOM     19  C   UNL     1       0.946   2.766  19.136  0.00  0.00    +0.000 A 
ATOM     20  S   UNL     1       1.578   3.994  18.125  0.00  0.00    +0.000 S 
ENDBRANCH  15  16
ENDBRANCH  14  15
ENDBRANCH   5  13
TORSDOF 5
ENDMDL
MODEL 9
REMARK VINA RESULT:      -6.9      2.695      3.268
REMARK  Name = 
REMARK  5 active torsions:
REMARK  status: ('A' for Active; 'I' for Inactive)
REMARK    1  A    between atoms: O_1  and  C_2
REMARK    2  A    between atoms: C_5  and  C_6
REMARK    3  A    between atoms: C_10  and  C_11
REMARK    4  A    between atoms: N_12  and  C_13
REMARK    5  A    between atoms: C_13  and  C_14
REMARK                            x       y       z     vdW  Elec       q    Type
REMARK                         _______ _______ _______ _____ _____    ______ ____
ROOT
ATOM      1  C   UNL     1       6.546   4.262  14.737  0.00  0.00    +0.000 A 
ATOM      2  N   UNL     1       7.507   5.235  14.653  0.00  0.00    +0.000 N 
ATOM      3  N   UNL     1       7.606   5.996  15.748  0.00  0.00    +0.000 NA
ATOM      4  C   UNL     1       6.674   5.496  16.590  0.00  0.00    +0.000 A 
ATOM      5  C   UNL     1       5.986   4.391  15.993  0.00  0.00    +0.000 A 
ATOM      6  H   UNL     1       8.132   5.440  13.881  0.00  0.00    +0.000 HD
ENDROOT
BRANCH   4   7
ATOM      7  C   UNL     1       6.440   6.076  17.965  0.00  0.00    +0.000 C 
ATOM      8  F   UNL     1       5.334   6.875  18.007  0.00  0.00    +0.000 F 
ATOM      9  F   UNL     1       6.240   5.120  18.909  0.00  0.00    +0.000 F 
ATOM     10  F   UNL     1       7.472   6.860  18.380  0.00  0.00    +0.000 F 
ENDBRANCH   4   7
BRANCH   1  11
ATOM     11  O   UNL     1       6.286   3.412  13.748  0.00  0.00    +0.000 OA
ATOM     12  H   UNL     1       7.050   3.343  13.148  0.00  0.00    +0.000 HD
ENDBRANCH   1  11
BRANCH   5  13
ATOM     13  C   UNL     1       4.927   3.569  16.537  0.00  0.00    +0.000 C 
ATOM     14  N   UNL     1       3.809   4.134  16.815  0.00  0.00    +0.000 NA
BRANCH  14  15
ATOM     15  C   UNL     1       2.777   3.238  17.359  0.00  0.00    +0.000 C 
BRANCH  15  16
ATOM     16  C   UNL     1       2.278   3.776  18.674  0.00  0.00    +0.000 A 
ATOM     17  C   UNL     1       1.518   3.140  19.639  0.00  0.00    +0.000 A 
ATOM     18  C   UNL     1       1.226   3.977  20.754  0.00  0.00    +0.000 A 
ATOM     19  C   UNL     1       1.762   5.235  20.605  0.00  0.00    +0.000 A 
ATOM     20  S   UNL     1       2.609   5.400  19.127  0.00  0.00    +0.000 S 
ENDBRANCH  15  16
ENDBRANCH  14  15
ENDBRANCH   5  13
TORSDOF 5
ENDMDL
