MODEL 1
REMARK VINA RESULT:      -8.5      0.000      0.000
REMARK  Name = 
REMARK  4 active torsions:
REMARK  status: ('A' for Active; 'I' for Inactive)
REMARK    1  A    between atoms: C_2  and  C_3
REMARK    2  A    between atoms: C_3  and  N_4
REMARK    3  A    between atoms: N_17  and  C_18
REMARK    4  A    between atoms: C_18  and  C_19
REMARK                            x       y       z     vdW  Elec       q    Type
REMARK                         _______ _______ _______ _____ _____    ______ ____
ROOT
ATOM      1  N   UNL     1       5.144   4.970  17.651  0.00  0.00    +0.000 N 
ATOM      2  C   UNL     1       6.105   4.441  18.440  0.00  0.00    +0.000 C 
ATOM      3  O   UNL     1       7.311   4.595  18.340  0.00  0.00    +0.000 OA
ATOM      4  N   UNL     1       5.491   3.645  19.381  0.00  0.00    +0.000 N 
ATOM      5  C   UNL     1       4.042   3.605  19.210  0.00  0.00    +0.000 C 
ATOM      6  C   UNL     1       3.361   4.605  20.171  0.00  0.00    +0.000 C 
ATOM      7  C   UNL     1       1.888   4.892  19.860  0.00  0.00    +0.000 C 
ATOM      8  C   UNL     1       0.957   3.678  19.869  0.00  0.00    +0.000 C 
ATOM      9  C   UNL     1       1.101   2.751  18.666  0.00  0.00    +0.000 C 
ATOM     10  C   UNL     1       2.265   1.766  18.708  0.00  0.00    +0.000 C 
ATOM     11  C   UNL     1       3.533   2.185  19.436  0.00  0.00    +0.000 C 
ATOM     12  C   UNL     1       4.007   4.227  17.790  0.00  0.00    +0.000 C 
ATOM     13  O   UNL     1       3.106   4.179  16.974  0.00  0.00    +0.000 OA
ATOM     14  H   UNL     1       6.024   3.239  20.139  0.00  0.00    +0.000 HD
ENDROOT
BRANCH   1  15
ATOM     15  C   UNL     1       5.303   6.046  16.709  0.00  0.00    +0.000 C 
BRANCH  15  17
ATOM     16  O   UNL     1       7.497   6.038  15.638  0.00  0.00    +0.000 OA
ATOM     17  C   UNL     1       6.352   5.609  15.663  0.00  0.00    +0.000 C 
ATOM     18  N   UNL     1       5.975   4.641  14.776  0.00  0.00    +0.000 N 
ATOM     19  H   UNL     1       5.113   4.142  15.002  0.00  0.00    +0.000 HD
BRANCH  18  20
ATOM     20  C   UNL     1       6.805   4.083  13.736  0.00  0.00    +0.000 C 
BRANCH  20  21
ATOM     21  C   UNL     1       5.911   3.462  12.724  0.00  0.00    +0.000 A 
ATOM     22  C   UNL     1       4.666   3.790  12.227  0.00  0.00    +0.000 A 
ATOM     23  C   UNL     1       4.371   2.835  11.225  0.00  0.00    +0.000 A 
ATOM     24  C   UNL     1       5.440   1.971  11.192  0.00  0.00    +0.000 A 
ATOM     25  O   UNL     1       6.376   2.338  12.104  0.00  0.00    +0.000 OA
ENDBRANCH  20  21
ENDBRANCH  18  20
ENDBRANCH  15  17
ENDBRANCH   1  15
TORSDOF 4
ENDMDL
MODEL 2
REMARK VINA RESULT:      -8.4      2.911      5.025
REMARK  Name = 
REMARK  4 active torsions:
REMARK  status: ('A' for Active; 'I' for Inactive)
REMARK    1  A    between atoms: C_2  and  C_3
REMARK    2  A    between atoms: C_3  and  N_4
REMARK    3  A    between atoms: N_17  and  C_18
REMARK    4  A    between atoms: C_18  and  C_19
REMARK                            x       y       z     vdW  Elec       q    Type
REMARK                         _______ _______ _______ _____ _____    ______ ____
ROOT
ATOM      1  N   UNL     1       4.480   4.770  17.468  0.00  0.00    +0.000 N 
ATOM      2  C   UNL     1       4.029   6.025  17.253  0.00  0.00    +0.000 C 
ATOM      3  O   UNL     1       4.553   6.892  16.574  0.00  0.00    +0.000 OA
ATOM      4  N   UNL     1       2.869   6.189  17.975  0.00  0.00    +0.000 N 
ATOM      5  C   UNL     1       2.523   4.996  18.744  0.00  0.00    +0.000 C 
ATOM      6  C   UNL     1       1.477   4.153  17.983  0.00  0.00    +0.000 C 
ATOM      7  C   UNL     1       1.283   2.731  18.523  0.00  0.00    +0.000 C 
ATOM      8  C   UNL     1       0.846   2.629  19.986  0.00  0.00    +0.000 C 
ATOM      9  C   UNL     1       1.940   2.940  21.003  0.00  0.00    +0.000 C 
ATOM     10  C   UNL     1       2.218   4.417  21.267  0.00  0.00    +0.000 C 
ATOM     11  C   UNL     1       2.013   5.400  20.123  0.00  0.00    +0.000 C 
ATOM     12  C   UNL     1       3.892   4.283  18.599  0.00  0.00    +0.000 C 
ATOM     13  O   UNL     1       4.339   3.376  19.278  0.00  0.00    +0.000 OA
ATOM     14  H   UNL     1       2.309   7.025  17.870  0.00  0.00    +0.000 HD
ENDROOT
BRANCH   1  15
ATOM     15  C   UNL     1       5.509   4.088  16.727  0.00  0.00    +0.000 C 
BRANCH  15  17
ATOM     16  O   UNL     1       7.932   4.381  16.660  0.00  0.00    +0.000 OA
ATOM     17  C   UNL     1       6.875   4.599  17.235  0.00  0.00    +0.000 C 
ATOM     18  N   UNL     1       6.864   5.391  18.348  0.00  0.00    +0.000 N 
ATOM     19  H   UNL     1       5.949   5.749  18.631  0.00  0.00    +0.000 HD
BRANCH  18  20
ATOM     20  C   UNL     1       8.023   5.982  18.972  0.00  0.00    +0.000 C 
BRANCH  20  21
ATOM     21  C   UNL     1       8.124   7.389  18.503  0.00  0.00    +0.000 A 
ATOM     22  C   UNL     1       7.580   8.077  17.438  0.00  0.00    +0.000 A 
ATOM     23  C   UNL     1       8.004   9.421  17.571  0.00  0.00    +0.000 A 
ATOM     24  C   UNL     1       8.800   9.463  18.692  0.00  0.00    +0.000 A 
ATOM     25  O   UNL     1       8.886   8.233  19.260  0.00  0.00    +0.000 OA
ENDBRANCH  20  21
ENDBRANCH  18  20
ENDBRANCH  15  17
ENDBRANCH   1  15
TORSDOF 4
ENDMDL
MODEL 3
REMARK VINA RESULT:      -8.2      1.092      1.301
REMARK  Name = 
REMARK  4 active torsions:
REMARK  status: ('A' for Active; 'I' for Inactive)
REMARK    1  A    between atoms: C_2  and  C_3
REMARK    2  A    between atoms: C_3  and  N_4
REMARK    3  A    between atoms: N_17  and  C_18
REMARK    4  A    between atoms: C_18  and  C_19
REMARK                            x       y       z     vdW  Elec       q    Type
REMARK                         _______ _______ _______ _____ _____    ______ ____
ROOT
ATOM      1  N   UNL     1       4.651   5.353  18.362  0.00  0.00    +0.000 N 
ATOM      2  C   UNL     1       5.638   4.789  19.093  0.00  0.00    +0.000 C 
ATOM      3  O   UNL     1       6.823   5.079  19.084  0.00  0.00    +0.000 OA
ATOM      4  N   UNL     1       5.084   3.776  19.843  0.00  0.00    +0.000 N 
ATOM      5  C   UNL     1       3.653   3.622  19.592  0.00  0.00    +0.000 C 
ATOM      6  C   UNL     1       2.837   4.355  20.680  0.00  0.00    +0.000 C 
ATOM      7  C   UNL     1       1.352   4.544  20.349  0.00  0.00    +0.000 C 
ATOM      8  C   UNL     1       0.559   3.261  20.093  0.00  0.00    +0.000 C 
ATOM      9  C   UNL     1       0.843   2.590  18.752  0.00  0.00    +0.000 C 
ATOM     10  C   UNL     1       2.105   1.736  18.678  0.00  0.00    +0.000 C 
ATOM     11  C   UNL     1       3.295   2.141  19.534  0.00  0.00    +0.000 C 
ATOM     12  C   UNL     1       3.599   4.487  18.307  0.00  0.00    +0.000 C 
ATOM     13  O   UNL     1       2.735   4.499  17.449  0.00  0.00    +0.000 OA
ATOM     14  H   UNL     1       5.632   3.294  20.543  0.00  0.00    +0.000 HD
ENDROOT
BRANCH   1  15
ATOM     15  C   UNL     1       4.724   6.595  17.636  0.00  0.00    +0.000 C 
BRANCH  15  17
ATOM     16  O   UNL     1       6.815   7.420  16.685  0.00  0.00    +0.000 OA
ATOM     17  C   UNL     1       5.969   6.539  16.724  0.00  0.00    +0.000 C 
ATOM     18  N   UNL     1       6.143   5.403  15.985  0.00  0.00    +0.000 N 
ATOM     19  H   UNL     1       5.558   4.607  16.248  0.00  0.00    +0.000 HD
BRANCH  18  20
ATOM     20  C   UNL     1       7.243   5.143  15.088  0.00  0.00    +0.000 C 
BRANCH  20  21
ATOM     21  C   UNL     1       6.702   4.429  13.901  0.00  0.00    +0.000 A 
ATOM     22  C   UNL     1       5.550   3.705  13.671  0.00  0.00    +0.000 A 
ATOM     23  C   UNL     1       5.579   3.330  12.306  0.00  0.00    +0.000 A 
ATOM     24  C   UNL     1       6.757   3.826  11.797  0.00  0.00    +0.000 A 
ATOM     25  O   UNL     1       7.449   4.488  12.759  0.00  0.00    +0.000 OA
ENDBRANCH  20  21
ENDBRANCH  18  20
ENDBRANCH  15  17
ENDBRANCH   1  15
TORSDOF 4
ENDMDL
MODEL 4
REMARK VINA RESULT:      -8.1      3.079      6.830
REMARK  Name = 
REMARK  4 active torsions:
REMARK  status: ('A' for Active; 'I' for Inactive)
REMARK    1  A    between atoms: C_2  and  C_3
REMARK    2  A    between atoms: C_3  and  N_4
REMARK    3  A    between atoms: N_17  and  C_18
REMARK    4  A    between atoms: C_18  and  C_19
REMARK                            x       y       z     vdW  Elec       q    Type
REMARK                         _______ _______ _______ _____ _____    ______ ____
ROOT
ATOM      1  N   UNL     1       3.457   3.756  18.951  0.00  0.00    +0.000 N 
ATOM      2  C   UNL     1       2.770   3.329  17.868  0.00  0.00    +0.000 C 
ATOM      3  O   UNL     1       1.765   2.638  17.856  0.00  0.00    +0.000 OA
ATOM      4  N   UNL     1       3.427   3.779  16.745  0.00  0.00    +0.000 N 
ATOM      5  C   UNL     1       4.638   4.526  17.075  0.00  0.00    +0.000 C 
ATOM      6  C   UNL     1       4.354   6.044  17.049  0.00  0.00    +0.000 C 
ATOM      7  C   UNL     1       5.442   6.912  17.691  0.00  0.00    +0.000 C 
ATOM      8  C   UNL     1       6.839   6.786  17.082  0.00  0.00    +0.000 C 
ATOM      9  C   UNL     1       7.573   5.492  17.424  0.00  0.00    +0.000 C 
ATOM     10  C   UNL     1       7.188   4.262  16.608  0.00  0.00    +0.000 C 
ATOM     11  C   UNL     1       5.755   4.154  16.107  0.00  0.00    +0.000 C 
ATOM     12  C   UNL     1       4.720   4.094  18.562  0.00  0.00    +0.000 C 
ATOM     13  O   UNL     1       5.685   4.143  19.303  0.00  0.00    +0.000 OA
ATOM     14  H   UNL     1       3.019   3.660  15.827  0.00  0.00    +0.000 HD
ENDROOT
BRANCH   1  15
ATOM     15  C   UNL     1       3.003   3.736  20.318  0.00  0.00    +0.000 C 
BRANCH  15  17
ATOM     16  O   UNL     1       0.716   4.584  20.398  0.00  0.00    +0.000 OA
ATOM     17  C   UNL     1       1.913   4.819  20.471  0.00  0.00    +0.000 C 
ATOM     18  N   UNL     1       2.335   6.084  20.771  0.00  0.00    +0.000 N 
ATOM     19  H   UNL     1       3.309   6.168  21.072  0.00  0.00    +0.000 HD
BRANCH  18  20
ATOM     20  C   UNL     1       1.483   7.230  20.971  0.00  0.00    +0.000 C 
BRANCH  20  21
ATOM     21  C   UNL     1       1.622   8.113  19.783  0.00  0.00    +0.000 A 
ATOM     22  C   UNL     1       2.232   7.963  18.553  0.00  0.00    +0.000 A 
ATOM     23  C   UNL     1       1.956   9.145  17.824  0.00  0.00    +0.000 A 
ATOM     24  C   UNL     1       1.219   9.950  18.661  0.00  0.00    +0.000 A 
ATOM     25  O   UNL     1       1.018   9.336  19.855  0.00  0.00    +0.000 OA
ENDBRANCH  20  21
ENDBRANCH  18  20
ENDBRANCH  15  17
ENDBRANCH   1  15
TORSDOF 4
ENDMDL
MODEL 5
REMARK VINA RESULT:      -8.1      3.914      6.230
REMARK  Name = 
REMARK  4 active torsions:
REMARK  status: ('A' for Active; 'I' for Inactive)
REMARK    1  A    between atoms: C_2  and  C_3
REMARK    2  A    between atoms: C_3  and  N_4
REMARK    3  A    between atoms: N_17  and  C_18
REMARK    4  A    between atoms: C_18  and  C_19
REMARK                            x       y       z     vdW  Elec       q    Type
REMARK                         _______ _______ _______ _____ _____    ______ ____
ROOT
ATOM      1  N   UNL     1       6.345   5.172  17.915  0.00  0.00    +0.000 N 
ATOM      2  C   UNL     1       6.556   4.370  16.848  0.00  0.00    +0.000 C 
ATOM      3  O   UNL     1       7.507   4.390  16.085  0.00  0.00    +0.000 OA
ATOM      4  N   UNL     1       5.474   3.527  16.731  0.00  0.00    +0.000 N 
ATOM      5  C   UNL     1       4.461   3.782  17.751  0.00  0.00    +0.000 C 
ATOM      6  C   UNL     1       4.621   2.791  18.925  0.00  0.00    +0.000 C 
ATOM      7  C   UNL     1       3.839   3.163  20.190  0.00  0.00    +0.000 C 
ATOM      8  C   UNL     1       2.324   3.296  20.022  0.00  0.00    +0.000 C 
ATOM      9  C   UNL     1       1.870   4.554  19.288  0.00  0.00    +0.000 C 
ATOM     10  C   UNL     1       1.961   4.518  17.765  0.00  0.00    +0.000 C 
ATOM     11  C   UNL     1       3.070   3.690  17.133  0.00  0.00    +0.000 C 
ATOM     12  C   UNL     1       5.015   5.152  18.220  0.00  0.00    +0.000 C 
ATOM     13  O   UNL     1       4.434   6.020  18.845  0.00  0.00    +0.000 OA
ATOM     14  H   UNL     1       5.479   2.771  16.058  0.00  0.00    +0.000 HD
ENDROOT
BRANCH   1  15
ATOM     15  C   UNL     1       7.315   6.022  18.554  0.00  0.00    +0.000 C 
BRANCH  15  17
ATOM     16  O   UNL     1       6.771   7.534  16.717  0.00  0.00    +0.000 OA
ATOM     17  C   UNL     1       7.396   7.337  17.748  0.00  0.00    +0.000 C 
ATOM     18  N   UNL     1       8.161   8.339  18.276  0.00  0.00    +0.000 N 
ATOM     19  H   UNL     1       8.445   8.216  19.250  0.00  0.00    +0.000 HD
BRANCH  18  20
ATOM     20  C   UNL     1       8.355   9.645  17.693  0.00  0.00    +0.000 C 
BRANCH  20  21
ATOM     21  C   UNL     1       9.234  10.423  18.605  0.00  0.00    +0.000 A 
ATOM     22  C   UNL     1       9.330  10.522  19.978  0.00  0.00    +0.000 A 
ATOM     23  C   UNL     1      10.420  11.387  20.242  0.00  0.00    +0.000 A 
ATOM     24  C   UNL     1      10.901  11.781  19.015  0.00  0.00    +0.000 A 
ATOM     25  O   UNL     1      10.184  11.209  18.016  0.00  0.00    +0.000 OA
ENDBRANCH  20  21
ENDBRANCH  18  20
ENDBRANCH  15  17
ENDBRANCH   1  15
TORSDOF 4
ENDMDL
MODEL 6
REMARK VINA RESULT:      -7.9      4.024      6.136
REMARK  Name = 
REMARK  4 active torsions:
REMARK  status: ('A' for Active; 'I' for Inactive)
REMARK    1  A    between atoms: C_2  and  C_3
REMARK    2  A    between atoms: C_3  and  N_4
REMARK    3  A    between atoms: N_17  and  C_18
REMARK    4  A    between atoms: C_18  and  C_19
REMARK                            x       y       z     vdW  Elec       q    Type
REMARK                         _______ _______ _______ _____ _____    ______ ____
ROOT
ATOM      1  N   UNL     1       6.470   5.736  17.139  0.00  0.00    +0.000 N 
ATOM      2  C   UNL     1       7.091   4.561  17.381  0.00  0.00    +0.000 C 
ATOM      3  O   UNL     1       8.237   4.258  17.092  0.00  0.00    +0.000 OA
ATOM      4  N   UNL     1       6.187   3.720  17.988  0.00  0.00    +0.000 N 
ATOM      5  C   UNL     1       4.874   4.340  18.144  0.00  0.00    +0.000 C 
ATOM      6  C   UNL     1       4.718   4.912  19.571  0.00  0.00    +0.000 C 
ATOM      7  C   UNL     1       3.532   5.865  19.754  0.00  0.00    +0.000 C 
ATOM      8  C   UNL     1       2.153   5.281  19.437  0.00  0.00    +0.000 C 
ATOM      9  C   UNL     1       1.863   5.095  17.951  0.00  0.00    +0.000 C 
ATOM     10  C   UNL     1       2.459   3.851  17.297  0.00  0.00    +0.000 C 
ATOM     11  C   UNL     1       3.781   3.324  17.833  0.00  0.00    +0.000 C 
ATOM     12  C   UNL     1       5.121   5.535  17.188  0.00  0.00    +0.000 C 
ATOM     13  O   UNL     1       4.293   6.252  16.656  0.00  0.00    +0.000 OA
ATOM     14  H   UNL     1       6.480   2.823  18.352  0.00  0.00    +0.000 HD
ENDROOT
BRANCH   1  15
ATOM     15  C   UNL     1       7.095   6.975  16.754  0.00  0.00    +0.000 C 
BRANCH  15  17
ATOM     16  O   UNL     1       8.147   6.852  18.954  0.00  0.00    +0.000 OA
ATOM     17  C   UNL     1       7.836   7.534  17.988  0.00  0.00    +0.000 C 
ATOM     18  N   UNL     1       8.213   8.847  17.940  0.00  0.00    +0.000 N 
ATOM     19  H   UNL     1       8.161   9.291  17.021  0.00  0.00    +0.000 HD
BRANCH  18  20
ATOM     20  C   UNL     1       8.926   9.556  18.975  0.00  0.00    +0.000 C 
BRANCH  20  21
ATOM     21  C   UNL     1       9.365  10.860  18.413  0.00  0.00    +0.000 A 
ATOM     22  C   UNL     1      10.597  11.461  18.255  0.00  0.00    +0.000 A 
ATOM     23  C   UNL     1      10.362  12.688  17.588  0.00  0.00    +0.000 A 
ATOM     24  C   UNL     1       9.001  12.769  17.405  0.00  0.00    +0.000 A 
ATOM     25  O   UNL     1       8.386  11.669  17.909  0.00  0.00    +0.000 OA
ENDBRANCH  20  21
ENDBRANCH  18  20
ENDBRANCH  15  17
ENDBRANCH   1  15
TORSDOF 4
ENDMDL
MODEL 7
REMARK VINA RESULT:      -7.8      1.294      2.082
REMARK  Name = 
REMARK  4 active torsions:
REMARK  status: ('A' for Active; 'I' for Inactive)
REMARK    1  A    between atoms: C_2  and  C_3
REMARK    2  A    between atoms: C_3  and  N_4
REMARK    3  A    between atoms: N_17  and  C_18
REMARK    4  A    between atoms: C_18  and  C_19
REMARK                            x       y       z     vdW  Elec       q    Type
REMARK                         _______ _______ _______ _____ _____    ______ ____
ROOT
ATOM      1  N   UNL     1       5.307   4.844  17.780  0.00  0.00    +0.000 N 
ATOM      2  C   UNL     1       4.727   5.990  17.362  0.00  0.00    +0.000 C 
ATOM      3  O   UNL     1       5.268   6.936  16.814  0.00  0.00    +0.000 OA
ATOM      4  N   UNL     1       3.393   5.937  17.698  0.00  0.00    +0.000 N 
ATOM      5  C   UNL     1       3.050   4.706  18.405  0.00  0.00    +0.000 C 
ATOM      6  C   UNL     1       2.450   3.674  17.425  0.00  0.00    +0.000 C 
ATOM      7  C   UNL     1       2.358   2.246  17.973  0.00  0.00    +0.000 C 
ATOM      8  C   UNL     1       1.526   2.074  19.245  0.00  0.00    +0.000 C 
ATOM      9  C   UNL     1       2.188   2.593  20.518  0.00  0.00    +0.000 C 
ATOM     10  C   UNL     1       2.106   4.098  20.757  0.00  0.00    +0.000 C 
ATOM     11  C   UNL     1       2.084   5.015  19.544  0.00  0.00    +0.000 C 
ATOM     12  C   UNL     1       4.503   4.263  18.716  0.00  0.00    +0.000 C 
ATOM     13  O   UNL     1       4.878   3.462  19.553  0.00  0.00    +0.000 OA
ATOM     14  H   UNL     1       2.752   6.651  17.379  0.00  0.00    +0.000 HD
ENDROOT
BRANCH   1  15
ATOM     15  C   UNL     1       6.617   4.364  17.421  0.00  0.00    +0.000 C 
BRANCH  15  17
ATOM     16  O   UNL     1       7.700   5.939  15.903  0.00  0.00    +0.000 OA
ATOM     17  C   UNL     1       6.978   4.963  16.044  0.00  0.00    +0.000 C 
ATOM     18  N   UNL     1       6.510   4.306  14.941  0.00  0.00    +0.000 N 
ATOM     19  H   UNL     1       6.139   3.368  15.107  0.00  0.00    +0.000 HD
BRANCH  18  20
ATOM     20  C   UNL     1       6.747   4.687  13.570  0.00  0.00    +0.000 C 
BRANCH  20  21
ATOM     21  C   UNL     1       6.002   3.740  12.700  0.00  0.00    +0.000 A 
ATOM     22  C   UNL     1       4.690   3.668  12.276  0.00  0.00    +0.000 A 
ATOM     23  C   UNL     1       4.612   2.560  11.399  0.00  0.00    +0.000 A 
ATOM     24  C   UNL     1       5.873   2.011  11.363  0.00  0.00    +0.000 A 
ATOM     25  O   UNL     1       6.721   2.714  12.155  0.00  0.00    +0.000 OA
ENDBRANCH  20  21
ENDBRANCH  18  20
ENDBRANCH  15  17
ENDBRANCH   1  15
TORSDOF 4
ENDMDL
MODEL 8
REMARK VINA RESULT:      -7.8      4.228      6.783
REMARK  Name = 
REMARK  4 active torsions:
REMARK  status: ('A' for Active; 'I' for Inactive)
REMARK    1  A    between atoms: C_2  and  C_3
REMARK    2  A    between atoms: C_3  and  N_4
REMARK    3  A    between atoms: N_17  and  C_18
REMARK    4  A    between atoms: C_18  and  C_19
REMARK                            x       y       z     vdW  Elec       q    Type
REMARK                         _______ _______ _______ _____ _____    ______ ____
ROOT
ATOM      1  N   UNL     1       3.458   6.301  17.931  0.00  0.00    +0.000 N 
ATOM      2  C   UNL     1       4.750   5.983  18.163  0.00  0.00    +0.000 C 
ATOM      3  O   UNL     1       5.738   6.617  17.830  0.00  0.00    +0.000 OA
ATOM      4  N   UNL     1       4.778   4.775  18.821  0.00  0.00    +0.000 N 
ATOM      5  C   UNL     1       3.441   4.225  19.025  0.00  0.00    +0.000 C 
ATOM      6  C   UNL     1       2.938   4.554  20.448  0.00  0.00    +0.000 C 
ATOM      7  C   UNL     1       1.439   4.322  20.669  0.00  0.00    +0.000 C 
ATOM      8  C   UNL     1       0.942   2.896  20.421  0.00  0.00    +0.000 C 
ATOM      9  C   UNL     1       0.859   2.494  18.952  0.00  0.00    +0.000 C 
ATOM     10  C   UNL     1       2.168   2.073  18.291  0.00  0.00    +0.000 C 
ATOM     11  C   UNL     1       3.456   2.721  18.776  0.00  0.00    +0.000 C 
ATOM     12  C   UNL     1       2.703   5.170  18.041  0.00  0.00    +0.000 C 
ATOM     13  O   UNL     1       1.607   5.015  17.535  0.00  0.00    +0.000 OA
ATOM     14  H   UNL     1       5.647   4.406  19.186  0.00  0.00    +0.000 HD
ENDROOT
BRANCH   1  15
ATOM     15  C   UNL     1       2.951   7.579  17.501  0.00  0.00    +0.000 C 
BRANCH  15  17
ATOM     16  O   UNL     1       2.183   7.754  19.811  0.00  0.00    +0.000 OA
ATOM     17  C   UNL     1       2.141   8.184  18.668  0.00  0.00    +0.000 C 
ATOM     18  N   UNL     1       1.400   9.299  18.393  0.00  0.00    +0.000 N 
ATOM     19  H   UNL     1       1.603   9.759  17.503  0.00  0.00    +0.000 HD
BRANCH  18  20
ATOM     20  C   UNL     1       0.589  10.025  19.340  0.00  0.00    +0.000 C 
BRANCH  20  21
ATOM     21  C   UNL     1      -0.679  10.398  18.661  0.00  0.00    +0.000 A 
ATOM     22  C   UNL     1      -1.318   9.945  17.524  0.00  0.00    +0.000 A 
ATOM     23  C   UNL     1      -2.537  10.660  17.438  0.00  0.00    +0.000 A 
ATOM     24  C   UNL     1      -2.553  11.521  18.510  0.00  0.00    +0.000 A 
ATOM     25  O   UNL     1      -1.427  11.376  19.254  0.00  0.00    +0.000 OA
ENDBRANCH  20  21
ENDBRANCH  18  20
ENDBRANCH  15  17
ENDBRANCH   1  15
TORSDOF 4
ENDMDL
MODEL 9
REMARK VINA RESULT:      -7.8      1.090      1.311
REMARK  Name = 
REMARK  4 active torsions:
REMARK  status: ('A' for Active; 'I' for Inactive)
REMARK    1  A    between atoms: C_2  and  C_3
REMARK    2  A    between atoms: C_3  and  N_4
REMARK    3  A    between atoms: N_17  and  C_18
REMARK    4  A    between atoms: C_18  and  C_19
REMARK                            x       y       z     vdW  Elec       q    Type
REMARK                         _______ _______ _______ _____ _____    ______ ____
ROOT
ATOM      1  N   UNL     1       5.572   4.930  16.905  0.00  0.00    +0.000 N 
ATOM      2  C   UNL     1       6.594   4.611  17.729  0.00  0.00    +0.000 C 
ATOM      3  O   UNL     1       7.783   4.814  17.544  0.00  0.00    +0.000 OA
ATOM      4  N   UNL     1       6.071   3.966  18.825  0.00  0.00    +0.000 N 
ATOM      5  C   UNL     1       4.621   3.810  18.735  0.00  0.00    +0.000 C 
ATOM      6  C   UNL     1       3.913   4.927  19.533  0.00  0.00    +0.000 C 
ATOM      7  C   UNL     1       2.413   5.067  19.248  0.00  0.00    +0.000 C 
ATOM      8  C   UNL     1       1.565   3.822  19.520  0.00  0.00    +0.000 C 
ATOM      9  C   UNL     1       1.725   2.702  18.497  0.00  0.00    +0.000 C 
ATOM     10  C   UNL     1       2.953   1.810  18.658  0.00  0.00    +0.000 C 
ATOM     11  C   UNL     1       4.217   2.429  19.237  0.00  0.00    +0.000 C 
ATOM     12  C   UNL     1       4.493   4.161  17.231  0.00  0.00    +0.000 C 
ATOM     13  O   UNL     1       3.567   3.912  16.481  0.00  0.00    +0.000 OA
ATOM     14  H   UNL     1       6.657   3.736  19.618  0.00  0.00    +0.000 HD
ENDROOT
BRANCH   1  15
ATOM     15  C   UNL     1       5.624   5.824  15.778  0.00  0.00    +0.000 C 
BRANCH  15  17
ATOM     16  O   UNL     1       7.559   5.260  14.401  0.00  0.00    +0.000 OA
ATOM     17  C   UNL     1       6.370   5.102  14.635  0.00  0.00    +0.000 C 
ATOM     18  N   UNL     1       5.654   4.194  13.906  0.00  0.00    +0.000 N 
ATOM     19  H   UNL     1       4.755   3.915  14.304  0.00  0.00    +0.000 HD
BRANCH  18  20
ATOM     20  C   UNL     1       6.164   3.403  12.812  0.00  0.00    +0.000 C 
BRANCH  20  21
ATOM     21  C   UNL     1       5.074   3.255  11.813  0.00  0.00    +0.000 A 
ATOM     22  C   UNL     1       4.500   2.167  11.186  0.00  0.00    +0.000 A 
ATOM     23  C   UNL     1       3.452   2.675  10.381  0.00  0.00    +0.000 A 
ATOM     24  C   UNL     1       3.470   4.041  10.547  0.00  0.00    +0.000 A 
ATOM     25  O   UNL     1       4.455   4.403  11.407  0.00  0.00    +0.000 OA
ENDBRANCH  20  21
ENDBRANCH  18  20
ENDBRANCH  15  17
ENDBRANCH   1  15
TORSDOF 4
ENDMDL
