MODEL 1
REMARK VINA RESULT:      -9.5      0.000      0.000
REMARK  Name = 
REMARK  1 active torsions:
REMARK  status: ('A' for Active; 'I' for Inactive)
REMARK    1  A    between atoms: C_5  and  C_6
REMARK                            x       y       z     vdW  Elec       q    Type
REMARK                         _______ _______ _______ _____ _____    ______ ____
ROOT
ATOM      1  C   UNL     1       2.539   6.514  19.545  0.00  0.00    +0.000 A 
ATOM      2  N   UNL     1       3.682   6.132  18.949  0.00  0.00    +0.000 NA
ATOM      3  C   UNL     1       4.170   4.880  19.114  0.00  0.00    +0.000 A 
ATOM      4  N   UNL     1       5.359   4.487  18.454  0.00  0.00    +0.000 N 
ATOM      5  C   UNL     1       6.245   5.633  18.111  0.00  0.00    +0.000 C 
ATOM      6  C   UNL     1       6.159   6.049  16.620  0.00  0.00    +0.000 C 
ATOM      7  C   UNL     1       7.055   5.184  15.720  0.00  0.00    +0.000 C 
ATOM      8  C   UNL     1       6.080   4.219  15.063  0.00  0.00    +0.000 C 
ATOM      9  C   UNL     1       4.855   4.346  15.954  0.00  0.00    +0.000 C 
ATOM     10  C   UNL     1       5.048   3.596  17.308  0.00  0.00    +0.000 C 
ATOM     11  O   UNL     1       4.826   5.777  16.139  0.00  0.00    +0.000 OA
ATOM     12  C   UNL     1       3.449   4.038  19.982  0.00  0.00    +0.000 A 
ATOM     13  S   UNL     1       3.761   2.419  20.497  0.00  0.00    +0.000 S 
ATOM     14  C   UNL     1       2.368   2.376  21.486  0.00  0.00    +0.000 A 
ATOM     15  C   UNL     1       1.673   3.560  21.443  0.00  0.00    +0.000 A 
ATOM     16  C   UNL     1       2.289   4.517  20.584  0.00  0.00    +0.000 A 
ATOM     17  N   UNL     1       1.804   5.760  20.369  0.00  0.00    +0.000 NA
ENDROOT
BRANCH   1  22
ATOM     18  C   UNL     1      -0.079  11.963  19.870  0.00  0.00    +0.000 A 
ATOM     19  C   UNL     1       0.058  10.846  20.658  0.00  0.00    +0.000 A 
ATOM     20  C   UNL     1       0.824   9.894  19.928  0.00  0.00    +0.000 A 
ATOM     21  C   UNL     1       1.284   8.591  20.203  0.00  0.00    +0.000 A 
ATOM     22  C   UNL     1       2.045   7.876  19.253  0.00  0.00    +0.000 A 
ATOM     23  C   UNL     1       2.328   8.511  18.028  0.00  0.00    +0.000 A 
ATOM     24  C   UNL     1       1.884   9.806  17.727  0.00  0.00    +0.000 A 
ATOM     25  C   UNL     1       1.134  10.470  18.699  0.00  0.00    +0.000 A 
ATOM     26  N   UNL     1       0.576  11.727  18.689  0.00  0.00    +0.000 N 
ATOM     27  H   UNL     1       0.644  12.377  17.919  0.00  0.00    +0.000 HD
ENDBRANCH   1  22
TORSDOF 1
ENDMDL
MODEL 2
REMARK VINA RESULT:      -8.9      1.989      4.359
REMARK  Name = 
REMARK  1 active torsions:
REMARK  status: ('A' for Active; 'I' for Inactive)
REMARK    1  A    between atoms: C_5  and  C_6
REMARK                            x       y       z     vdW  Elec       q    Type
REMARK                         _______ _______ _______ _____ _____    ______ ____
ROOT
ATOM      1  C   UNL     1       2.772   7.375  18.152  0.00  0.00    +0.000 A 
ATOM      2  N   UNL     1       2.376   6.149  18.537  0.00  0.00    +0.000 NA
ATOM      3  C   UNL     1       3.031   5.041  18.118  0.00  0.00    +0.000 A 
ATOM      4  N   UNL     1       2.619   3.761  18.559  0.00  0.00    +0.000 N 
ATOM      5  C   UNL     1       1.188   3.715  18.969  0.00  0.00    +0.000 C 
ATOM      6  C   UNL     1       0.990   3.747  20.506  0.00  0.00    +0.000 C 
ATOM      7  C   UNL     1       1.140   2.356  21.143  0.00  0.00    +0.000 C 
ATOM      8  C   UNL     1       2.533   2.387  21.752  0.00  0.00    +0.000 C 
ATOM      9  C   UNL     1       3.164   3.578  21.047  0.00  0.00    +0.000 C 
ATOM     10  C   UNL     1       3.559   3.233  19.578  0.00  0.00    +0.000 C 
ATOM     11  O   UNL     1       2.064   4.511  21.096  0.00  0.00    +0.000 OA
ATOM     12  C   UNL     1       4.097   5.248  17.221  0.00  0.00    +0.000 A 
ATOM     13  S   UNL     1       5.131   4.118  16.423  0.00  0.00    +0.000 S 
ATOM     14  C   UNL     1       5.995   5.352  15.615  0.00  0.00    +0.000 A 
ATOM     15  C   UNL     1       5.517   6.601  15.929  0.00  0.00    +0.000 A 
ATOM     16  C   UNL     1       4.428   6.547  16.848  0.00  0.00    +0.000 A 
ATOM     17  N   UNL     1       3.780   7.637  17.314  0.00  0.00    +0.000 NA
ENDROOT
BRANCH   1  22
ATOM     18  C   UNL     1      -0.317  11.126  21.763  0.00  0.00    +0.000 A 
ATOM     19  C   UNL     1       0.194   9.852  21.810  0.00  0.00    +0.000 A 
ATOM     20  C   UNL     1       0.824   9.593  20.560  0.00  0.00    +0.000 A 
ATOM     21  C   UNL     1       1.511   8.487  20.022  0.00  0.00    +0.000 A 
ATOM     22  C   UNL     1       2.040   8.530  18.714  0.00  0.00    +0.000 A 
ATOM     23  C   UNL     1       1.857   9.713  17.972  0.00  0.00    +0.000 A 
ATOM     24  C   UNL     1       1.178  10.829  18.481  0.00  0.00    +0.000 A 
ATOM     25  C   UNL     1       0.674  10.735  19.780  0.00  0.00    +0.000 A 
ATOM     26  N   UNL     1      -0.021  11.652  20.533  0.00  0.00    +0.000 N 
ATOM     27  H   UNL     1      -0.272  12.579  20.218  0.00  0.00    +0.000 HD
ENDBRANCH   1  22
TORSDOF 1
ENDMDL
MODEL 3
REMARK VINA RESULT:      -8.3      1.987      4.460
REMARK  Name = 
REMARK  1 active torsions:
REMARK  status: ('A' for Active; 'I' for Inactive)
REMARK    1  A    between atoms: C_5  and  C_6
REMARK                            x       y       z     vdW  Elec       q    Type
REMARK                         _______ _______ _______ _____ _____    ______ ____
ROOT
ATOM      1  C   UNL     1       2.771   7.436  18.179  0.00  0.00    +0.000 A 
ATOM      2  N   UNL     1       2.369   6.211  18.563  0.00  0.00    +0.000 NA
ATOM      3  C   UNL     1       3.000   5.100  18.118  0.00  0.00    +0.000 A 
ATOM      4  N   UNL     1       2.583   3.821  18.557  0.00  0.00    +0.000 N 
ATOM      5  C   UNL     1       1.162   3.789  19.002  0.00  0.00    +0.000 C 
ATOM      6  C   UNL     1       1.002   3.809  20.543  0.00  0.00    +0.000 C 
ATOM      7  C   UNL     1       1.149   2.411  21.164  0.00  0.00    +0.000 C 
ATOM      8  C   UNL     1       2.557   2.419  21.739  0.00  0.00    +0.000 C 
ATOM      9  C   UNL     1       3.185   3.608  21.030  0.00  0.00    +0.000 C 
ATOM     10  C   UNL     1       3.541   3.272  19.549  0.00  0.00    +0.000 C 
ATOM     11  O   UNL     1       2.099   4.554  21.113  0.00  0.00    +0.000 OA
ATOM     12  C   UNL     1       4.047   5.302  17.197  0.00  0.00    +0.000 A 
ATOM     13  S   UNL     1       5.047   4.167  16.364  0.00  0.00    +0.000 S 
ATOM     14  C   UNL     1       5.906   5.397  15.547  0.00  0.00    +0.000 A 
ATOM     15  C   UNL     1       5.451   6.649  15.883  0.00  0.00    +0.000 A 
ATOM     16  C   UNL     1       4.384   6.600  16.828  0.00  0.00    +0.000 A 
ATOM     17  N   UNL     1       3.761   7.694  17.319  0.00  0.00    +0.000 NA
ENDROOT
BRANCH   1  22
ATOM     18  C   UNL     1       0.416  12.915  19.224  0.00  0.00    +0.000 A 
ATOM     19  C   UNL     1       1.181  12.298  18.266  0.00  0.00    +0.000 A 
ATOM     20  C   UNL     1       1.374  10.946  18.671  0.00  0.00    +0.000 A 
ATOM     21  C   UNL     1       2.055   9.846  18.114  0.00  0.00    +0.000 A 
ATOM     22  C   UNL     1       2.067   8.595  18.768  0.00  0.00    +0.000 A 
ATOM     23  C   UNL     1       1.376   8.489  19.991  0.00  0.00    +0.000 A 
ATOM     24  C   UNL     1       0.691   9.566  20.569  0.00  0.00    +0.000 A 
ATOM     25  C   UNL     1       0.709  10.781  19.882  0.00  0.00    +0.000 A 
ATOM     26  N   UNL     1       0.135  11.991  20.197  0.00  0.00    +0.000 N 
ATOM     27  H   UNL     1      -0.416  12.164  21.026  0.00  0.00    +0.000 HD
ENDBRANCH   1  22
TORSDOF 1
ENDMDL
MODEL 4
REMARK VINA RESULT:      -8.3      0.839      1.433
REMARK  Name = 
REMARK  1 active torsions:
REMARK  status: ('A' for Active; 'I' for Inactive)
REMARK    1  A    between atoms: C_5  and  C_6
REMARK                            x       y       z     vdW  Elec       q    Type
REMARK                         _______ _______ _______ _____ _____    ______ ____
ROOT
ATOM      1  C   UNL     1       2.266   6.398  20.123  0.00  0.00    +0.000 A 
ATOM      2  N   UNL     1       3.441   6.166  19.512  0.00  0.00    +0.000 NA
ATOM      3  C   UNL     1       3.933   4.911  19.400  0.00  0.00    +0.000 A 
ATOM      4  N   UNL     1       5.157   4.684  18.726  0.00  0.00    +0.000 N 
ATOM      5  C   UNL     1       6.047   5.876  18.710  0.00  0.00    +0.000 C 
ATOM      6  C   UNL     1       6.030   6.635  17.358  0.00  0.00    +0.000 C 
ATOM      7  C   UNL     1       6.979   6.006  16.325  0.00  0.00    +0.000 C 
ATOM      8  C   UNL     1       6.047   5.226  15.409  0.00  0.00    +0.000 C 
ATOM      9  C   UNL     1       4.778   5.141  16.242  0.00  0.00    +0.000 C 
ATOM     10  C   UNL     1       4.912   4.090  17.388  0.00  0.00    +0.000 C 
ATOM     11  O   UNL     1       4.725   6.487  16.759  0.00  0.00    +0.000 OA
ATOM     12  C   UNL     1       3.178   3.888  20.006  0.00  0.00    +0.000 A 
ATOM     13  S   UNL     1       3.482   2.193  20.138  0.00  0.00    +0.000 S 
ATOM     14  C   UNL     1       2.042   1.918  21.017  0.00  0.00    +0.000 A 
ATOM     15  C   UNL     1       1.338   3.079  21.221  0.00  0.00    +0.000 A 
ATOM     16  C   UNL     1       1.986   4.212  20.645  0.00  0.00    +0.000 A 
ATOM     17  N   UNL     1       1.499   5.471  20.707  0.00  0.00    +0.000 NA
ENDROOT
BRANCH   1  22
ATOM     18  C   UNL     1       0.868  12.106  18.666  0.00  0.00    +0.000 A 
ATOM     19  C   UNL     1       1.506  11.032  18.095  0.00  0.00    +0.000 A 
ATOM     20  C   UNL     1       1.478   9.963  19.035  0.00  0.00    +0.000 A 
ATOM     21  C   UNL     1       1.958   8.638  19.023  0.00  0.00    +0.000 A 
ATOM     22  C   UNL     1       1.773   7.792  20.138  0.00  0.00    +0.000 A 
ATOM     23  C   UNL     1       1.093   8.317  21.254  0.00  0.00    +0.000 A 
ATOM     24  C   UNL     1       0.605   9.630  21.293  0.00  0.00    +0.000 A 
ATOM     25  C   UNL     1       0.814  10.427  20.166  0.00  0.00    +0.000 A 
ATOM     26  N   UNL     1       0.453  11.730  19.917  0.00  0.00    +0.000 N 
ATOM     27  H   UNL     1      -0.048  12.319  20.568  0.00  0.00    +0.000 HD
ENDBRANCH   1  22
TORSDOF 1
ENDMDL
MODEL 5
REMARK VINA RESULT:      -7.5      2.097      4.446
REMARK  Name = 
REMARK  1 active torsions:
REMARK  status: ('A' for Active; 'I' for Inactive)
REMARK    1  A    between atoms: C_5  and  C_6
REMARK                            x       y       z     vdW  Elec       q    Type
REMARK                         _______ _______ _______ _____ _____    ______ ____
ROOT
ATOM      1  C   UNL     1       3.022   7.615  17.768  0.00  0.00    +0.000 A 
ATOM      2  N   UNL     1       2.590   6.407  18.174  0.00  0.00    +0.000 NA
ATOM      3  C   UNL     1       3.393   5.320  18.104  0.00  0.00    +0.000 A 
ATOM      4  N   UNL     1       2.932   4.064  18.565  0.00  0.00    +0.000 N 
ATOM      5  C   UNL     1       1.448   3.943  18.549  0.00  0.00    +0.000 C 
ATOM      6  C   UNL     1       0.804   4.121  19.948  0.00  0.00    +0.000 C 
ATOM      7  C   UNL     1       0.826   2.823  20.770  0.00  0.00    +0.000 C 
ATOM      8  C   UNL     1       1.974   3.034  21.745  0.00  0.00    +0.000 C 
ATOM      9  C   UNL     1       2.726   4.192  21.107  0.00  0.00    +0.000 C 
ATOM     10  C   UNL     1       3.554   3.727  19.870  0.00  0.00    +0.000 C 
ATOM     11  O   UNL     1       1.617   5.030  20.720  0.00  0.00    +0.000 OA
ATOM     12  C   UNL     1       4.665   5.519  17.533  0.00  0.00    +0.000 A 
ATOM     13  S   UNL     1       5.942   4.401  17.214  0.00  0.00    +0.000 S 
ATOM     14  C   UNL     1       6.945   5.610  16.540  0.00  0.00    +0.000 A 
ATOM     15  C   UNL     1       6.335   6.840  16.544  0.00  0.00    +0.000 A 
ATOM     16  C   UNL     1       5.027   6.794  17.110  0.00  0.00    +0.000 A 
ATOM     17  N   UNL     1       4.218   7.870  17.229  0.00  0.00    +0.000 NA
ENDROOT
BRANCH   1  22
ATOM     18  C   UNL     1       0.661  13.127  18.602  0.00  0.00    +0.000 A 
ATOM     19  C   UNL     1       1.904  12.548  18.530  0.00  0.00    +0.000 A 
ATOM     20  C   UNL     1       1.719  11.153  18.312  0.00  0.00    +0.000 A 
ATOM     21  C   UNL     1       2.598  10.063  18.154  0.00  0.00    +0.000 A 
ATOM     22  C   UNL     1       2.101   8.758  17.946  0.00  0.00    +0.000 A 
ATOM     23  C   UNL     1       0.704   8.588  17.900  0.00  0.00    +0.000 A 
ATOM     24  C   UNL     1      -0.194   9.653  18.053  0.00  0.00    +0.000 A 
ATOM     25  C   UNL     1       0.348  10.924  18.258  0.00  0.00    +0.000 A 
ATOM     26  N   UNL     1      -0.273  12.138  18.435  0.00  0.00    +0.000 N 
ATOM     27  H   UNL     1      -1.274  12.274  18.440  0.00  0.00    +0.000 HD
ENDBRANCH   1  22
TORSDOF 1
ENDMDL
MODEL 6
REMARK VINA RESULT:      -7.4      2.010      4.386
REMARK  Name = 
REMARK  1 active torsions:
REMARK  status: ('A' for Active; 'I' for Inactive)
REMARK    1  A    between atoms: C_5  and  C_6
REMARK                            x       y       z     vdW  Elec       q    Type
REMARK                         _______ _______ _______ _____ _____    ______ ____
ROOT
ATOM      1  C   UNL     1       2.974   7.526  17.670  0.00  0.00    +0.000 A 
ATOM      2  N   UNL     1       2.518   6.353  18.148  0.00  0.00    +0.000 NA
ATOM      3  C   UNL     1       3.196   5.202  17.931  0.00  0.00    +0.000 A 
ATOM      4  N   UNL     1       2.717   3.983  18.468  0.00  0.00    +0.000 N 
ATOM      5  C   UNL     1       1.251   3.991  18.723  0.00  0.00    +0.000 C 
ATOM      6  C   UNL     1       0.889   4.201  20.215  0.00  0.00    +0.000 C 
ATOM      7  C   UNL     1       0.946   2.892  21.019  0.00  0.00    +0.000 C 
ATOM      8  C   UNL     1       2.267   2.986  21.768  0.00  0.00    +0.000 C 
ATOM      9  C   UNL     1       2.989   4.086  21.005  0.00  0.00    +0.000 C 
ATOM     10  C   UNL     1       3.534   3.572  19.636  0.00  0.00    +0.000 C 
ATOM     11  O   UNL     1       1.906   5.022  20.827  0.00  0.00    +0.000 OA
ATOM     12  C   UNL     1       4.355   5.300  17.137  0.00  0.00    +0.000 A 
ATOM     13  S   UNL     1       5.449   4.081  16.590  0.00  0.00    +0.000 S 
ATOM     14  C   UNL     1       6.416   5.210  15.745  0.00  0.00    +0.000 A 
ATOM     15  C   UNL     1       5.928   6.488  15.861  0.00  0.00    +0.000 A 
ATOM     16  C   UNL     1       4.746   6.546  16.657  0.00  0.00    +0.000 A 
ATOM     17  N   UNL     1       4.070   7.685  16.922  0.00  0.00    +0.000 NA
ENDROOT
BRANCH   1  22
ATOM     18  C   UNL     1      -1.325  11.399  19.452  0.00  0.00    +0.000 A 
ATOM     19  C   UNL     1      -1.170  10.043  19.301  0.00  0.00    +0.000 A 
ATOM     20  C   UNL     1       0.148   9.810  18.817  0.00  0.00    +0.000 A 
ATOM     21  C   UNL     1       0.875   8.651  18.479  0.00  0.00    +0.000 A 
ATOM     22  C   UNL     1       2.205   8.741  18.014  0.00  0.00    +0.000 A 
ATOM     23  C   UNL     1       2.775  10.024  17.903  0.00  0.00    +0.000 A 
ATOM     24  C   UNL     1       2.076  11.194  18.231  0.00  0.00    +0.000 A 
ATOM     25  C   UNL     1       0.764  11.051  18.686  0.00  0.00    +0.000 A 
ATOM     26  N   UNL     1      -0.151  11.999  19.079  0.00  0.00    +0.000 N 
ATOM     27  H   UNL     1       0.025  12.995  19.089  0.00  0.00    +0.000 HD
ENDBRANCH   1  22
TORSDOF 1
ENDMDL
MODEL 7
REMARK VINA RESULT:      -7.3      3.823      8.144
REMARK  Name = 
REMARK  1 active torsions:
REMARK  status: ('A' for Active; 'I' for Inactive)
REMARK    1  A    between atoms: C_5  and  C_6
REMARK                            x       y       z     vdW  Elec       q    Type
REMARK                         _______ _______ _______ _____ _____    ______ ____
ROOT
ATOM      1  C   UNL     1       0.697  10.312  20.342  0.00  0.00    +0.000 A 
ATOM      2  N   UNL     1       0.909  11.538  19.831  0.00  0.00    +0.000 NA
ATOM      3  C   UNL     1       0.383  12.638  20.417  0.00  0.00    +0.000 A 
ATOM      4  N   UNL     1       0.643  13.922  19.882  0.00  0.00    +0.000 N 
ATOM      5  C   UNL     1       0.985  13.895  18.433  0.00  0.00    +0.000 C 
ATOM      6  C   UNL     1       2.504  14.033  18.159  0.00  0.00    +0.000 C 
ATOM      7  C   UNL     1       2.968  15.498  18.165  0.00  0.00    +0.000 C 
ATOM      8  C   UNL     1       3.633  15.660  19.523  0.00  0.00    +0.000 C 
ATOM      9  C   UNL     1       3.109  14.451  20.281  0.00  0.00    +0.000 C 
ATOM     10  C   UNL     1       1.626  14.648  20.724  0.00  0.00    +0.000 C 
ATOM     11  O   UNL     1       3.228  13.441  19.258  0.00  0.00    +0.000 OA
ATOM     12  C   UNL     1      -0.436  12.415  21.541  0.00  0.00    +0.000 A 
ATOM     13  S   UNL     1      -1.326  13.524  22.521  0.00  0.00    +0.000 S 
ATOM     14  C   UNL     1      -1.936  12.280  23.522  0.00  0.00    +0.000 A 
ATOM     15  C   UNL     1      -1.489  11.042  23.128  0.00  0.00    +0.000 A 
ATOM     16  C   UNL     1      -0.630  11.114  21.992  0.00  0.00    +0.000 A 
ATOM     17  N   UNL     1      -0.059  10.037  21.409  0.00  0.00    +0.000 NA
ENDROOT
BRANCH   1  22
ATOM     18  C   UNL     1       3.210   4.951  19.076  0.00  0.00    +0.000 A 
ATOM     19  C   UNL     1       2.626   5.578  20.149  0.00  0.00    +0.000 A 
ATOM     20  C   UNL     1       2.247   6.885  19.732  0.00  0.00    +0.000 A 
ATOM     21  C   UNL     1       1.618   7.972  20.372  0.00  0.00    +0.000 A 
ATOM     22  C   UNL     1       1.368   9.175  19.676  0.00  0.00    +0.000 A 
ATOM     23  C   UNL     1       1.767   9.247  18.328  0.00  0.00    +0.000 A 
ATOM     24  C   UNL     1       2.394   8.183  17.666  0.00  0.00    +0.000 A 
ATOM     25  C   UNL     1       2.619   7.015  18.398  0.00  0.00    +0.000 A 
ATOM     26  N   UNL     1       3.201   5.827  18.022  0.00  0.00    +0.000 N 
ATOM     27  H   UNL     1       3.566   5.635  17.100  0.00  0.00    +0.000 HD
ENDBRANCH   1  22
TORSDOF 1
ENDMDL
MODEL 8
REMARK VINA RESULT:      -7.3      2.103      4.398
REMARK  Name = 
REMARK  1 active torsions:
REMARK  status: ('A' for Active; 'I' for Inactive)
REMARK    1  A    between atoms: C_5  and  C_6
REMARK                            x       y       z     vdW  Elec       q    Type
REMARK                         _______ _______ _______ _____ _____    ______ ____
ROOT
ATOM      1  C   UNL     1       2.732   7.403  18.301  0.00  0.00    +0.000 A 
ATOM      2  N   UNL     1       2.384   6.112  18.449  0.00  0.00    +0.000 NA
ATOM      3  C   UNL     1       3.207   5.118  18.043  0.00  0.00    +0.000 A 
ATOM      4  N   UNL     1       2.836   3.765  18.235  0.00  0.00    +0.000 N 
ATOM      5  C   UNL     1       1.364   3.570  18.338  0.00  0.00    +0.000 C 
ATOM      6  C   UNL     1       0.871   3.381  19.795  0.00  0.00    +0.000 C 
ATOM      7  C   UNL     1       1.022   1.930  20.279  0.00  0.00    +0.000 C 
ATOM      8  C   UNL     1       2.263   1.970  21.158  0.00  0.00    +0.000 C 
ATOM      9  C   UNL     1       2.906   3.285  20.742  0.00  0.00    +0.000 C 
ATOM     10  C   UNL     1       3.608   3.168  19.354  0.00  0.00    +0.000 C 
ATOM     11  O   UNL     1       1.736   4.127  20.677  0.00  0.00    +0.000 OA
ATOM     12  C   UNL     1       4.402   5.514  17.412  0.00  0.00    +0.000 A 
ATOM     13  S   UNL     1       5.670   4.573  16.712  0.00  0.00    +0.000 S 
ATOM     14  C   UNL     1       6.556   5.960  16.249  0.00  0.00    +0.000 A 
ATOM     15  C   UNL     1       5.914   7.120  16.605  0.00  0.00    +0.000 A 
ATOM     16  C   UNL     1       4.677   6.871  17.271  0.00  0.00    +0.000 A 
ATOM     17  N   UNL     1       3.854   7.842  17.722  0.00  0.00    +0.000 NA
ENDROOT
BRANCH   1  22
ATOM     18  C   UNL     1      -1.529  11.660  18.918  0.00  0.00    +0.000 A 
ATOM     19  C   UNL     1      -0.960  10.922  17.909  0.00  0.00    +0.000 A 
ATOM     20  C   UNL     1       0.026  10.078  18.494  0.00  0.00    +0.000 A 
ATOM     21  C   UNL     1       0.919   9.117  17.981  0.00  0.00    +0.000 A 
ATOM     22  C   UNL     1       1.802   8.421  18.835  0.00  0.00    +0.000 A 
ATOM     23  C   UNL     1       1.756   8.721  20.210  0.00  0.00    +0.000 A 
ATOM     24  C   UNL     1       0.878   9.672  20.748  0.00  0.00    +0.000 A 
ATOM     25  C   UNL     1       0.026  10.332  19.862  0.00  0.00    +0.000 A 
ATOM     26  N   UNL     1      -0.927  11.296  20.094  0.00  0.00    +0.000 N 
ATOM     27  H   UNL     1      -1.148  11.675  21.005  0.00  0.00    +0.000 HD
ENDBRANCH   1  22
TORSDOF 1
ENDMDL
MODEL 9
REMARK VINA RESULT:      -6.8      4.023      8.474
REMARK  Name = 
REMARK  1 active torsions:
REMARK  status: ('A' for Active; 'I' for Inactive)
REMARK    1  A    between atoms: C_5  and  C_6
REMARK                            x       y       z     vdW  Elec       q    Type
REMARK                         _______ _______ _______ _____ _____    ______ ____
ROOT
ATOM      1  C   UNL     1       0.192  10.608  20.848  0.00  0.00    +0.000 A 
ATOM      2  N   UNL     1       0.494  11.738  20.184  0.00  0.00    +0.000 NA
ATOM      3  C   UNL     1      -0.054  12.923  20.540  0.00  0.00    +0.000 A 
ATOM      4  N   UNL     1       0.298  14.107  19.849  0.00  0.00    +0.000 N 
ATOM      5  C   UNL     1       0.784  13.854  18.464  0.00  0.00    +0.000 C 
ATOM      6  C   UNL     1       2.326  13.924  18.333  0.00  0.00    +0.000 C 
ATOM      7  C   UNL     1       2.833  15.366  18.167  0.00  0.00    +0.000 C 
ATOM      8  C   UNL     1       3.363  15.723  19.548  0.00  0.00    +0.000 C 
ATOM      9  C   UNL     1       2.727  14.651  20.421  0.00  0.00    +0.000 C 
ATOM     10  C   UNL     1       1.214  14.937  20.671  0.00  0.00    +0.000 C 
ATOM     11  O   UNL     1       2.917  13.495  19.578  0.00  0.00    +0.000 OA
ATOM     12  C   UNL     1      -0.990  12.888  21.593  0.00  0.00    +0.000 A 
ATOM     13  S   UNL     1      -1.939  14.147  22.297  0.00  0.00    +0.000 S 
ATOM     14  C   UNL     1      -2.686  13.079  23.403  0.00  0.00    +0.000 A 
ATOM     15  C   UNL     1      -2.241  11.789  23.249  0.00  0.00    +0.000 A 
ATOM     16  C   UNL     1      -1.269  11.673  22.211  0.00  0.00    +0.000 A 
ATOM     17  N   UNL     1      -0.676  10.511  21.860  0.00  0.00    +0.000 NA
ENDROOT
BRANCH   1  22
ATOM     18  C   UNL     1       3.388   6.449  17.825  0.00  0.00    +0.000 A 
ATOM     19  C   UNL     1       2.950   7.737  17.636  0.00  0.00    +0.000 A 
ATOM     20  C   UNL     1       2.218   8.118  18.796  0.00  0.00    +0.000 A 
ATOM     21  C   UNL     1       1.543   9.292  19.184  0.00  0.00    +0.000 A 
ATOM     22  C   UNL     1       0.891   9.373  20.434  0.00  0.00    +0.000 A 
ATOM     23  C   UNL     1       0.941   8.243  21.274  0.00  0.00    +0.000 A 
ATOM     24  C   UNL     1       1.605   7.062  20.914  0.00  0.00    +0.000 A 
ATOM     25  C   UNL     1       2.234   7.033  19.668  0.00  0.00    +0.000 A 
ATOM     26  N   UNL     1       2.951   6.033  19.056  0.00  0.00    +0.000 N 
ATOM     27  H   UNL     1       3.128   5.124  19.462  0.00  0.00    +0.000 HD
ENDBRANCH   1  22
TORSDOF 1
ENDMDL
