MODEL 1
REMARK VINA RESULT:      -8.7      0.000      0.000
REMARK  Name = 
REMARK  7 active torsions:
REMARK  status: ('A' for Active; 'I' for Inactive)
REMARK    1  A    between atoms: N_4  and  C_5
REMARK    2  A    between atoms: C_8  and  C_9
REMARK    3  A    between atoms: C_9  and  O_11
REMARK    4  A    between atoms: O_11  and  C_12
REMARK    5  A    between atoms: C_15  and  C_16
REMARK    6  A    between atoms: C_16  and  C_17
REMARK    7  A    between atoms: C_17  and  O_19
REMARK                            x       y       z     vdW  Elec       q    Type
REMARK                         _______ _______ _______ _____ _____    ______ ____
ROOT
ATOM      1  C   UNL     1       1.160  10.049  18.644  0.00  0.00    +0.000 A 
ATOM      2  C   UNL     1       1.753   9.158  17.734  0.00  0.00    +0.000 A 
ATOM      3  C   UNL     1       2.182   7.874  18.103  0.00  0.00    +0.000 A 
ATOM      4  C   UNL     1       2.042   7.409  19.423  0.00  0.00    +0.000 A 
ATOM      5  C   UNL     1       1.458   8.284  20.371  0.00  0.00    +0.000 A 
ATOM      6  C   UNL     1       1.127   8.232  21.758  0.00  0.00    +0.000 A 
ATOM      7  C   UNL     1       0.571   9.442  22.087  0.00  0.00    +0.000 A 
ATOM      8  O   UNL     1       0.527  10.252  21.001  0.00  0.00    +0.000 OA
ATOM      9  C   UNL     1       1.057   9.555  19.952  0.00  0.00    +0.000 A 
ENDROOT
BRANCH   1  13
ATOM     10  N   UNL     1      -1.611  11.107  18.633  0.00  0.00    +0.000 NA
ATOM     11  C   UNL     1      -0.565  11.782  18.317  0.00  0.00    +0.000 C 
ATOM     12  N   UNL     1      -0.661  13.083  17.949  0.00  0.00    +0.000 N 
ATOM     13  N   UNL     1       0.724  11.341  18.311  0.00  0.00    +0.000 N 
ATOM     14  H   UNL     1      -2.439  11.700  18.594  0.00  0.00    +0.000 HD
ATOM     15  H   UNL     1      -1.599  13.386  17.720  0.00  0.00    +0.000 HD
ATOM     16  H   UNL     1      -0.013  13.346  17.215  0.00  0.00    +0.000 HD
ATOM     17  H   UNL     1       1.414  12.045  18.551  0.00  0.00    +0.000 HD
ENDBRANCH   1  13
BRANCH   4  18
ATOM     18  C   UNL     1       2.477   6.051  19.849  0.00  0.00    +0.000 C 
ATOM     19  O   UNL     1       1.685   5.160  20.131  0.00  0.00    +0.000 OA
BRANCH  18  20
ATOM     20  O   UNL     1       3.844   5.950  19.882  0.00  0.00    +0.000 OA
BRANCH  20  21
ATOM     21  C   UNL     1       4.410   5.395  18.723  0.00  0.00    +0.000 A 
ATOM     22  C   UNL     1       3.708   5.011  17.634  0.00  0.00    +0.000 A 
ATOM     23  C   UNL     1       4.353   4.380  16.493  0.00  0.00    +0.000 A 
ATOM     24  C   UNL     1       5.693   4.230  16.487  0.00  0.00    +0.000 A 
ATOM     25  N   UNL     1       6.422   4.722  17.580  0.00  0.00    +0.000 N 
ATOM     26  N   UNL     1       7.778   4.754  17.721  0.00  0.00    +0.000 NA
ATOM     27  C   UNL     1       7.916   5.250  18.954  0.00  0.00    +0.000 A 
ATOM     28  N   UNL     1       6.764   5.608  19.587  0.00  0.00    +0.000 NA
ATOM     29  C   UNL     1       5.832   5.292  18.713  0.00  0.00    +0.000 A 
BRANCH  24  30
ATOM     30  C   UNL     1       6.441   3.496  15.406  0.00  0.00    +0.000 C 
BRANCH  30  31
ATOM     31  C   UNL     1       6.681   4.351  14.180  0.00  0.00    +0.000 C 
ATOM     32  O   UNL     1       7.456   5.298  14.162  0.00  0.00    +0.000 OA
BRANCH  31  33
ATOM     33  O   UNL     1       5.948   3.993  13.104  0.00  0.00    +0.000 OA
ATOM     34  H   UNL     1       6.417   3.405  12.470  0.00  0.00    +0.000 HD
ENDBRANCH  31  33
ENDBRANCH  30  31
ENDBRANCH  24  30
ENDBRANCH  20  21
ENDBRANCH  18  20
ENDBRANCH   4  18
TORSDOF 7
ENDMDL
MODEL 2
REMARK VINA RESULT:      -8.4      0.692      1.105
REMARK  Name = 
REMARK  7 active torsions:
REMARK  status: ('A' for Active; 'I' for Inactive)
REMARK    1  A    between atoms: N_4  and  C_5
REMARK    2  A    between atoms: C_8  and  C_9
REMARK    3  A    between atoms: C_9  and  O_11
REMARK    4  A    between atoms: O_11  and  C_12
REMARK    5  A    between atoms: C_15  and  C_16
REMARK    6  A    between atoms: C_16  and  C_17
REMARK    7  A    between atoms: C_17  and  O_19
REMARK                            x       y       z     vdW  Elec       q    Type
REMARK                         _______ _______ _______ _____ _____    ______ ____
ROOT
ATOM      1  C   UNL     1       1.261  10.140  18.643  0.00  0.00    +0.000 A 
ATOM      2  C   UNL     1       1.922   9.282  17.748  0.00  0.00    +0.000 A 
ATOM      3  C   UNL     1       2.312   7.980  18.096  0.00  0.00    +0.000 A 
ATOM      4  C   UNL     1       2.062   7.462  19.380  0.00  0.00    +0.000 A 
ATOM      5  C   UNL     1       1.407   8.302  20.313  0.00  0.00    +0.000 A 
ATOM      6  C   UNL     1       0.962   8.196  21.665  0.00  0.00    +0.000 A 
ATOM      7  C   UNL     1       0.388   9.396  21.998  0.00  0.00    +0.000 A 
ATOM      8  O   UNL     1       0.438  10.251  20.947  0.00  0.00    +0.000 OA
ATOM      9  C   UNL     1       1.049   9.593  19.917  0.00  0.00    +0.000 A 
ENDROOT
BRANCH   1  13
ATOM     10  N   UNL     1       2.087  12.675  19.943  0.00  0.00    +0.000 NA
ATOM     11  C   UNL     1       1.266  12.586  18.959  0.00  0.00    +0.000 C 
ATOM     12  N   UNL     1       0.702  13.695  18.420  0.00  0.00    +0.000 N 
ATOM     13  N   UNL     1       0.861  11.448  18.330  0.00  0.00    +0.000 N 
ATOM     14  H   UNL     1       2.245  13.653  20.183  0.00  0.00    +0.000 HD
ATOM     15  H   UNL     1       0.791  14.529  18.989  0.00  0.00    +0.000 HD
ATOM     16  H   UNL     1      -0.260  13.562  18.132  0.00  0.00    +0.000 HD
ATOM     17  H   UNL     1       0.670  11.556  17.339  0.00  0.00    +0.000 HD
ENDBRANCH   1  13
BRANCH   4  18
ATOM     18  C   UNL     1       2.453   6.083  19.783  0.00  0.00    +0.000 C 
ATOM     19  O   UNL     1       1.632   5.209  20.034  0.00  0.00    +0.000 OA
BRANCH  18  20
ATOM     20  O   UNL     1       3.815   5.945  19.834  0.00  0.00    +0.000 OA
BRANCH  20  21
ATOM     21  C   UNL     1       4.383   5.394  18.673  0.00  0.00    +0.000 A 
ATOM     22  C   UNL     1       3.685   5.031  17.575  0.00  0.00    +0.000 A 
ATOM     23  C   UNL     1       4.331   4.404  16.432  0.00  0.00    +0.000 A 
ATOM     24  C   UNL     1       5.669   4.236  16.434  0.00  0.00    +0.000 A 
ATOM     25  N   UNL     1       6.396   4.706  17.539  0.00  0.00    +0.000 N 
ATOM     26  N   UNL     1       7.750   4.719  17.691  0.00  0.00    +0.000 NA
ATOM     27  C   UNL     1       7.885   5.200  18.930  0.00  0.00    +0.000 A 
ATOM     28  N   UNL     1       6.733   5.567  19.557  0.00  0.00    +0.000 NA
ATOM     29  C   UNL     1       5.804   5.272  18.673  0.00  0.00    +0.000 A 
BRANCH  24  30
ATOM     30  C   UNL     1       6.416   3.505  15.351  0.00  0.00    +0.000 C 
BRANCH  30  31
ATOM     31  C   UNL     1       6.789   4.403  14.192  0.00  0.00    +0.000 C 
ATOM     32  O   UNL     1       6.345   4.259  13.061  0.00  0.00    +0.000 OA
BRANCH  31  33
ATOM     33  O   UNL     1       7.673   5.373  14.506  0.00  0.00    +0.000 OA
ATOM     34  H   UNL     1       7.368   5.989  15.210  0.00  0.00    +0.000 HD
ENDBRANCH  31  33
ENDBRANCH  30  31
ENDBRANCH  24  30
ENDBRANCH  20  21
ENDBRANCH  18  20
ENDBRANCH   4  18
TORSDOF 7
ENDMDL
MODEL 3
REMARK VINA RESULT:      -8.1      2.778      4.064
REMARK  Name = 
REMARK  7 active torsions:
REMARK  status: ('A' for Active; 'I' for Inactive)
REMARK    1  A    between atoms: N_4  and  C_5
REMARK    2  A    between atoms: C_8  and  C_9
REMARK    3  A    between atoms: C_9  and  O_11
REMARK    4  A    between atoms: O_11  and  C_12
REMARK    5  A    between atoms: C_15  and  C_16
REMARK    6  A    between atoms: C_16  and  C_17
REMARK    7  A    between atoms: C_17  and  O_19
REMARK                            x       y       z     vdW  Elec       q    Type
REMARK                         _______ _______ _______ _____ _____    ______ ____
ROOT
ATOM      1  C   UNL     1       1.796   7.000  20.687  0.00  0.00    +0.000 A 
ATOM      2  C   UNL     1       1.617   5.637  20.980  0.00  0.00    +0.000 A 
ATOM      3  C   UNL     1       1.879   4.622  20.047  0.00  0.00    +0.000 A 
ATOM      4  C   UNL     1       2.336   4.922  18.751  0.00  0.00    +0.000 A 
ATOM      5  C   UNL     1       2.517   6.286  18.416  0.00  0.00    +0.000 A 
ATOM      6  C   UNL     1       2.953   7.019  17.272  0.00  0.00    +0.000 A 
ATOM      7  C   UNL     1       2.898   8.350  17.600  0.00  0.00    +0.000 A 
ATOM      8  O   UNL     1       2.460   8.506  18.873  0.00  0.00    +0.000 OA
ATOM      9  C   UNL     1       2.233   7.256  19.380  0.00  0.00    +0.000 A 
ENDROOT
BRANCH   1  13
ATOM     10  N   UNL     1      -0.824   8.136  21.488  0.00  0.00    +0.000 NA
ATOM     11  C   UNL     1       0.315   8.533  21.929  0.00  0.00    +0.000 C 
ATOM     12  N   UNL     1       0.400   9.537  22.835  0.00  0.00    +0.000 N 
ATOM     13  N   UNL     1       1.540   8.040  21.593  0.00  0.00    +0.000 N 
ATOM     14  H   UNL     1      -1.577   8.650  21.944  0.00  0.00    +0.000 HD
ATOM     15  H   UNL     1      -0.449  10.080  22.941  0.00  0.00    +0.000 HD
ATOM     16  H   UNL     1       1.197  10.147  22.692  0.00  0.00    +0.000 HD
ATOM     17  H   UNL     1       2.227   8.067  22.340  0.00  0.00    +0.000 HD
ENDBRANCH   1  13
BRANCH   4  18
ATOM     18  C   UNL     1       2.632   3.872  17.739  0.00  0.00    +0.000 C 
ATOM     19  O   UNL     1       1.895   3.642  16.789  0.00  0.00    +0.000 OA
BRANCH  18  20
ATOM     20  O   UNL     1       3.806   3.223  18.020  0.00  0.00    +0.000 OA
BRANCH  20  21
ATOM     21  C   UNL     1       4.918   4.071  18.150  0.00  0.00    +0.000 A 
ATOM     22  C   UNL     1       5.377   4.562  19.322  0.00  0.00    +0.000 A 
ATOM     23  C   UNL     1       6.495   5.491  19.376  0.00  0.00    +0.000 A 
ATOM     24  C   UNL     1       7.136   5.826  18.238  0.00  0.00    +0.000 A 
ATOM     25  N   UNL     1       6.712   5.235  17.037  0.00  0.00    +0.000 N 
ATOM     26  N   UNL     1       7.282   5.366  15.806  0.00  0.00    +0.000 NA
ATOM     27  C   UNL     1       6.448   4.659  15.038  0.00  0.00    +0.000 A 
ATOM     28  N   UNL     1       5.432   4.024  15.687  0.00  0.00    +0.000 NA
ATOM     29  C   UNL     1       5.614   4.373  16.942  0.00  0.00    +0.000 A 
BRANCH  24  30
ATOM     30  C   UNL     1       8.231   6.857  18.174  0.00  0.00    +0.000 C 
BRANCH  30  31
ATOM     31  C   UNL     1       7.720   8.225  17.776  0.00  0.00    +0.000 C 
ATOM     32  O   UNL     1       6.730   8.396  17.077  0.00  0.00    +0.000 OA
BRANCH  31  33
ATOM     33  O   UNL     1       8.464   9.250  18.243  0.00  0.00    +0.000 OA
ATOM     34  H   UNL     1       8.234  10.127  17.861  0.00  0.00    +0.000 HD
ENDBRANCH  31  33
ENDBRANCH  30  31
ENDBRANCH  24  30
ENDBRANCH  20  21
ENDBRANCH  18  20
ENDBRANCH   4  18
TORSDOF 7
ENDMDL
MODEL 4
REMARK VINA RESULT:      -8.0      3.248      9.597
REMARK  Name = 
REMARK  7 active torsions:
REMARK  status: ('A' for Active; 'I' for Inactive)
REMARK    1  A    between atoms: N_4  and  C_5
REMARK    2  A    between atoms: C_8  and  C_9
REMARK    3  A    between atoms: C_9  and  O_11
REMARK    4  A    between atoms: O_11  and  C_12
REMARK    5  A    between atoms: C_15  and  C_16
REMARK    6  A    between atoms: C_16  and  C_17
REMARK    7  A    between atoms: C_17  and  O_19
REMARK                            x       y       z     vdW  Elec       q    Type
REMARK                         _______ _______ _______ _____ _____    ______ ____
ROOT
ATOM      1  C   UNL     1       2.126   6.218  20.547  0.00  0.00    +0.000 A 
ATOM      2  C   UNL     1       1.239   7.196  21.028  0.00  0.00    +0.000 A 
ATOM      3  C   UNL     1       0.970   8.383  20.330  0.00  0.00    +0.000 A 
ATOM      4  C   UNL     1       1.589   8.660  19.098  0.00  0.00    +0.000 A 
ATOM      5  C   UNL     1       2.499   7.703  18.587  0.00  0.00    +0.000 A 
ATOM      6  C   UNL     1       3.313   7.570  17.422  0.00  0.00    +0.000 A 
ATOM      7  C   UNL     1       3.981   6.377  17.529  0.00  0.00    +0.000 A 
ATOM      8  O   UNL     1       3.642   5.747  18.681  0.00  0.00    +0.000 OA
ATOM      9  C   UNL     1       2.736   6.542  19.327  0.00  0.00    +0.000 A 
ENDROOT
BRANCH   1  13
ATOM     10  N   UNL     1       0.665   3.639  20.436  0.00  0.00    +0.000 NA
ATOM     11  C   UNL     1       1.716   3.859  21.140  0.00  0.00    +0.000 C 
ATOM     12  N   UNL     1       2.257   2.882  21.909  0.00  0.00    +0.000 N 
ATOM     13  N   UNL     1       2.421   5.023  21.220  0.00  0.00    +0.000 N 
ATOM     14  H   UNL     1       0.375   2.667  20.531  0.00  0.00    +0.000 HD
ATOM     15  H   UNL     1       1.652   2.084  22.060  0.00  0.00    +0.000 HD
ATOM     16  H   UNL     1       2.630   3.217  22.789  0.00  0.00    +0.000 HD
ATOM     17  H   UNL     1       3.419   4.905  21.360  0.00  0.00    +0.000 HD
ENDBRANCH   1  13
BRANCH   4  18
ATOM     18  C   UNL     1       1.323   9.904  18.325  0.00  0.00    +0.000 C 
ATOM     19  O   UNL     1       2.184  10.748  18.111  0.00  0.00    +0.000 OA
BRANCH  18  20
ATOM     20  O   UNL     1       0.018   9.965  17.909  0.00  0.00    +0.000 OA
BRANCH  20  21
ATOM     21  C   UNL     1      -0.772  10.882  18.622  0.00  0.00    +0.000 A 
ATOM     22  C   UNL     1      -0.303  11.735  19.559  0.00  0.00    +0.000 A 
ATOM     23  C   UNL     1      -1.190  12.611  20.307  0.00  0.00    +0.000 A 
ATOM     24  C   UNL     1      -2.507  12.625  20.020  0.00  0.00    +0.000 A 
ATOM     25  N   UNL     1      -2.970  11.806  18.978  0.00  0.00    +0.000 N 
ATOM     26  N   UNL     1      -4.235  11.747  18.474  0.00  0.00    +0.000 NA
ATOM     27  C   UNL     1      -4.125  10.772  17.567  0.00  0.00    +0.000 A 
ATOM     28  N   UNL     1      -2.878  10.254  17.394  0.00  0.00    +0.000 NA
ATOM     29  C   UNL     1      -2.154  10.919  18.269  0.00  0.00    +0.000 A 
BRANCH  24  30
ATOM     30  C   UNL     1      -3.520  13.415  20.806  0.00  0.00    +0.000 C 
BRANCH  30  31
ATOM     31  C   UNL     1      -4.267  12.566  21.812  0.00  0.00    +0.000 C 
ATOM     32  O   UNL     1      -3.812  12.268  22.908  0.00  0.00    +0.000 OA
BRANCH  31  33
ATOM     33  O   UNL     1      -5.478  12.145  21.390  0.00  0.00    +0.000 OA
ATOM     34  H   UNL     1      -5.447  11.482  20.663  0.00  0.00    +0.000 HD
ENDBRANCH  31  33
ENDBRANCH  30  31
ENDBRANCH  24  30
ENDBRANCH  20  21
ENDBRANCH  18  20
ENDBRANCH   4  18
TORSDOF 7
ENDMDL
MODEL 5
REMARK VINA RESULT:      -8.0      2.692      4.286
REMARK  Name = 
REMARK  7 active torsions:
REMARK  status: ('A' for Active; 'I' for Inactive)
REMARK    1  A    between atoms: N_4  and  C_5
REMARK    2  A    between atoms: C_8  and  C_9
REMARK    3  A    between atoms: C_9  and  O_11
REMARK    4  A    between atoms: O_11  and  C_12
REMARK    5  A    between atoms: C_15  and  C_16
REMARK    6  A    between atoms: C_16  and  C_17
REMARK    7  A    between atoms: C_17  and  O_19
REMARK                            x       y       z     vdW  Elec       q    Type
REMARK                         _______ _______ _______ _____ _____    ______ ____
ROOT
ATOM      1  C   UNL     1       1.972   6.402  20.312  0.00  0.00    +0.000 A 
ATOM      2  C   UNL     1       2.284   6.778  18.995  0.00  0.00    +0.000 A 
ATOM      3  C   UNL     1       2.608   5.845  17.998  0.00  0.00    +0.000 A 
ATOM      4  C   UNL     1       2.642   4.466  18.273  0.00  0.00    +0.000 A 
ATOM      5  C   UNL     1       2.343   4.050  19.593  0.00  0.00    +0.000 A 
ATOM      6  C   UNL     1       2.252   2.807  20.289  0.00  0.00    +0.000 A 
ATOM      7  C   UNL     1       1.915   3.094  21.587  0.00  0.00    +0.000 A 
ATOM      8  O   UNL     1       1.785   4.432  21.757  0.00  0.00    +0.000 OA
ATOM      9  C   UNL     1       2.036   5.021  20.549  0.00  0.00    +0.000 A 
ENDROOT
BRANCH   1  13
ATOM     10  N   UNL     1       0.970   9.182  20.054  0.00  0.00    +0.000 NA
ATOM     11  C   UNL     1       1.192   8.580  21.167  0.00  0.00    +0.000 C 
ATOM     12  N   UNL     1       0.967   9.201  22.352  0.00  0.00    +0.000 N 
ATOM     13  N   UNL     1       1.648   7.307  21.334  0.00  0.00    +0.000 N 
ATOM     14  H   UNL     1       0.588  10.111  20.226  0.00  0.00    +0.000 HD
ATOM     15  H   UNL     1       0.850  10.204  22.283  0.00  0.00    +0.000 HD
ATOM     16  H   UNL     1       1.647   8.969  23.066  0.00  0.00    +0.000 HD
ATOM     17  H   UNL     1       1.291   6.834  22.158  0.00  0.00    +0.000 HD
ENDBRANCH   1  13
BRANCH   4  18
ATOM     18  C   UNL     1       2.972   3.447  17.240  0.00  0.00    +0.000 C 
ATOM     19  O   UNL     1       2.200   3.143  16.339  0.00  0.00    +0.000 OA
BRANCH  18  20
ATOM     20  O   UNL     1       4.219   2.915  17.442  0.00  0.00    +0.000 OA
BRANCH  20  21
ATOM     21  C   UNL     1       5.214   3.867  17.717  0.00  0.00    +0.000 A 
ATOM     22  C   UNL     1       5.532   4.311  18.952  0.00  0.00    +0.000 A 
ATOM     23  C   UNL     1       6.530   5.350  19.157  0.00  0.00    +0.000 A 
ATOM     24  C   UNL     1       7.205   5.842  18.099  0.00  0.00    +0.000 A 
ATOM     25  N   UNL     1       6.936   5.303  16.831  0.00  0.00    +0.000 N 
ATOM     26  N   UNL     1       7.571   5.592  15.660  0.00  0.00    +0.000 NA
ATOM     27  C   UNL     1       6.878   4.861  14.782  0.00  0.00    +0.000 A 
ATOM     28  N   UNL     1       5.900   4.070  15.303  0.00  0.00    +0.000 NA
ATOM     29  C   UNL     1       5.954   4.337  16.590  0.00  0.00    +0.000 A 
BRANCH  24  30
ATOM     30  C   UNL     1       8.176   6.988  18.192  0.00  0.00    +0.000 C 
BRANCH  30  31
ATOM     31  C   UNL     1       7.595   8.288  17.677  0.00  0.00    +0.000 C 
ATOM     32  O   UNL     1       8.053   9.386  17.959  0.00  0.00    +0.000 OA
BRANCH  31  33
ATOM     33  O   UNL     1       6.508   8.134  16.891  0.00  0.00    +0.000 OA
ATOM     34  H   UNL     1       5.783   8.775  17.070  0.00  0.00    +0.000 HD
ENDBRANCH  31  33
ENDBRANCH  30  31
ENDBRANCH  24  30
ENDBRANCH  20  21
ENDBRANCH  18  20
ENDBRANCH   4  18
TORSDOF 7
ENDMDL
MODEL 6
REMARK VINA RESULT:      -8.0      2.993      8.884
REMARK  Name = 
REMARK  7 active torsions:
REMARK  status: ('A' for Active; 'I' for Inactive)
REMARK    1  A    between atoms: N_4  and  C_5
REMARK    2  A    between atoms: C_8  and  C_9
REMARK    3  A    between atoms: C_9  and  O_11
REMARK    4  A    between atoms: O_11  and  C_12
REMARK    5  A    between atoms: C_15  and  C_16
REMARK    6  A    between atoms: C_16  and  C_17
REMARK    7  A    between atoms: C_17  and  O_19
REMARK                            x       y       z     vdW  Elec       q    Type
REMARK                         _______ _______ _______ _____ _____    ______ ____
ROOT
ATOM      1  C   UNL     1       3.498   4.352  18.687  0.00  0.00    +0.000 A 
ATOM      2  C   UNL     1       2.463   4.925  19.444  0.00  0.00    +0.000 A 
ATOM      3  C   UNL     1       2.067   6.263  19.295  0.00  0.00    +0.000 A 
ATOM      4  C   UNL     1       2.699   7.111  18.368  0.00  0.00    +0.000 A 
ATOM      5  C   UNL     1       3.755   6.572  17.594  0.00  0.00    +0.000 A 
ATOM      6  C   UNL     1       4.634   7.044  16.573  0.00  0.00    +0.000 A 
ATOM      7  C   UNL     1       5.453   5.999  16.230  0.00  0.00    +0.000 A 
ATOM      8  O   UNL     1       5.150   4.900  16.963  0.00  0.00    +0.000 OA
ATOM      9  C   UNL     1       4.114   5.236  17.790  0.00  0.00    +0.000 A 
ENDROOT
BRANCH   1  13
ATOM     10  N   UNL     1       2.260   1.913  17.538  0.00  0.00    +0.000 NA
ATOM     11  C   UNL     1       3.317   1.928  18.268  0.00  0.00    +0.000 C 
ATOM     12  N   UNL     1       3.971   0.779  18.569  0.00  0.00    +0.000 N 
ATOM     13  N   UNL     1       3.922   3.020  18.813  0.00  0.00    +0.000 N 
ATOM     14  H   UNL     1       2.058   0.963  17.229  0.00  0.00    +0.000 HD
ATOM     15  H   UNL     1       3.443  -0.065  18.384  0.00  0.00    +0.000 HD
ATOM     16  H   UNL     1       4.351   0.763  19.509  0.00  0.00    +0.000 HD
ATOM     17  H   UNL     1       4.931   2.952  18.889  0.00  0.00    +0.000 HD
ENDBRANCH   1  13
BRANCH   4  18
ATOM     18  C   UNL     1       2.301   8.533  18.176  0.00  0.00    +0.000 C 
ATOM     19  O   UNL     1       2.426   9.116  17.107  0.00  0.00    +0.000 OA
BRANCH  18  20
ATOM     20  O   UNL     1       1.798   9.073  19.331  0.00  0.00    +0.000 OA
BRANCH  20  21
ATOM     21  C   UNL     1       0.555   9.708  19.177  0.00  0.00    +0.000 A 
ATOM     22  C   UNL     1      -0.271   9.535  18.123  0.00  0.00    +0.000 A 
ATOM     23  C   UNL     1      -1.515  10.277  17.996  0.00  0.00    +0.000 A 
ATOM     24  C   UNL     1      -1.892  11.115  18.983  0.00  0.00    +0.000 A 
ATOM     25  N   UNL     1      -1.074  11.213  20.120  0.00  0.00    +0.000 N 
ATOM     26  N   UNL     1      -1.324  11.922  21.257  0.00  0.00    +0.000 NA
ATOM     27  C   UNL     1      -0.206  11.719  21.961  0.00  0.00    +0.000 A 
ATOM     28  N   UNL     1       0.708  10.878  21.401  0.00  0.00    +0.000 NA
ATOM     29  C   UNL     1       0.149  10.549  20.256  0.00  0.00    +0.000 A 
BRANCH  24  30
ATOM     30  C   UNL     1      -3.103  12.005  18.900  0.00  0.00    +0.000 C 
BRANCH  30  31
ATOM     31  C   UNL     1      -4.119  11.515  17.891  0.00  0.00    +0.000 C 
ATOM     32  O   UNL     1      -5.031  10.751  18.174  0.00  0.00    +0.000 OA
BRANCH  31  33
ATOM     33  O   UNL     1      -3.921  11.978  16.638  0.00  0.00    +0.000 OA
ATOM     34  H   UNL     1      -4.084  12.943  16.531  0.00  0.00    +0.000 HD
ENDBRANCH  31  33
ENDBRANCH  30  31
ENDBRANCH  24  30
ENDBRANCH  20  21
ENDBRANCH  18  20
ENDBRANCH   4  18
TORSDOF 7
ENDMDL
MODEL 7
REMARK VINA RESULT:      -7.9      2.647      7.793
REMARK  Name = 
REMARK  7 active torsions:
REMARK  status: ('A' for Active; 'I' for Inactive)
REMARK    1  A    between atoms: N_4  and  C_5
REMARK    2  A    between atoms: C_8  and  C_9
REMARK    3  A    between atoms: C_9  and  O_11
REMARK    4  A    between atoms: O_11  and  C_12
REMARK    5  A    between atoms: C_15  and  C_16
REMARK    6  A    between atoms: C_16  and  C_17
REMARK    7  A    between atoms: C_17  and  O_19
REMARK                            x       y       z     vdW  Elec       q    Type
REMARK                         _______ _______ _______ _____ _____    ______ ____
ROOT
ATOM      1  C   UNL     1       6.598   4.999  15.737  0.00  0.00    +0.000 A 
ATOM      2  C   UNL     1       5.479   4.174  15.536  0.00  0.00    +0.000 A 
ATOM      3  C   UNL     1       4.664   3.734  16.589  0.00  0.00    +0.000 A 
ATOM      4  C   UNL     1       4.933   4.099  17.921  0.00  0.00    +0.000 A 
ATOM      5  C   UNL     1       6.060   4.922  18.164  0.00  0.00    +0.000 A 
ATOM      6  C   UNL     1       6.677   5.517  19.305  0.00  0.00    +0.000 A 
ATOM      7  C   UNL     1       7.770   6.214  18.855  0.00  0.00    +0.000 A 
ATOM      8  O   UNL     1       7.882   6.100  17.509  0.00  0.00    +0.000 OA
ATOM      9  C   UNL     1       6.842   5.323  17.079  0.00  0.00    +0.000 A 
ENDROOT
BRANCH   1  13
ATOM     10  N   UNL     1       6.633   4.163  12.891  0.00  0.00    +0.000 NA
ATOM     11  C   UNL     1       7.419   5.037  13.411  0.00  0.00    +0.000 C 
ATOM     12  N   UNL     1       8.354   5.668  12.659  0.00  0.00    +0.000 N 
ATOM     13  N   UNL     1       7.437   5.453  14.708  0.00  0.00    +0.000 N 
ATOM     14  H   UNL     1       6.810   4.082  11.891  0.00  0.00    +0.000 HD
ATOM     15  H   UNL     1       8.530   5.237  11.760  0.00  0.00    +0.000 HD
ATOM     16  H   UNL     1       9.224   5.837  13.150  0.00  0.00    +0.000 HD
ATOM     17  H   UNL     1       7.700   6.425  14.838  0.00  0.00    +0.000 HD
ENDBRANCH   1  13
BRANCH   4  18
ATOM     18  C   UNL     1       4.085   3.660  19.063  0.00  0.00    +0.000 C 
ATOM     19  O   UNL     1       4.541   3.083  20.043  0.00  0.00    +0.000 OA
BRANCH  18  20
ATOM     20  O   UNL     1       2.768   3.979  18.861  0.00  0.00    +0.000 OA
BRANCH  20  21
ATOM     21  C   UNL     1       2.362   5.173  19.479  0.00  0.00    +0.000 A 
ATOM     22  C   UNL     1       1.863   5.258  20.732  0.00  0.00    +0.000 A 
ATOM     23  C   UNL     1       1.400   6.521  21.285  0.00  0.00    +0.000 A 
ATOM     24  C   UNL     1       1.528   7.651  20.561  0.00  0.00    +0.000 A 
ATOM     25  N   UNL     1       2.138   7.566  19.300  0.00  0.00    +0.000 N 
ATOM     26  N   UNL     1       2.445   8.596  18.460  0.00  0.00    +0.000 NA
ATOM     27  C   UNL     1       2.936   7.950  17.398  0.00  0.00    +0.000 A 
ATOM     28  N   UNL     1       3.037   6.597  17.516  0.00  0.00    +0.000 NA
ATOM     29  C   UNL     1       2.554   6.364  18.718  0.00  0.00    +0.000 A 
BRANCH  24  30
ATOM     30  C   UNL     1       0.985   8.985  20.999  0.00  0.00    +0.000 C 
BRANCH  30  31
ATOM     31  C   UNL     1       1.113   9.204  22.491  0.00  0.00    +0.000 C 
ATOM     32  O   UNL     1       0.152   9.262  23.246  0.00  0.00    +0.000 OA
BRANCH  31  33
ATOM     33  O   UNL     1       2.384   9.353  22.921  0.00  0.00    +0.000 OA
ATOM     34  H   UNL     1       2.842   8.508  23.134  0.00  0.00    +0.000 HD
ENDBRANCH  31  33
ENDBRANCH  30  31
ENDBRANCH  24  30
ENDBRANCH  20  21
ENDBRANCH  18  20
ENDBRANCH   4  18
TORSDOF 7
ENDMDL
MODEL 8
REMARK VINA RESULT:      -7.8      2.908      8.419
REMARK  Name = 
REMARK  7 active torsions:
REMARK  status: ('A' for Active; 'I' for Inactive)
REMARK    1  A    between atoms: N_4  and  C_5
REMARK    2  A    between atoms: C_8  and  C_9
REMARK    3  A    between atoms: C_9  and  O_11
REMARK    4  A    between atoms: O_11  and  C_12
REMARK    5  A    between atoms: C_15  and  C_16
REMARK    6  A    between atoms: C_16  and  C_17
REMARK    7  A    between atoms: C_17  and  O_19
REMARK                            x       y       z     vdW  Elec       q    Type
REMARK                         _______ _______ _______ _____ _____    ______ ____
ROOT
ATOM      1  C   UNL     1       3.226   4.140  19.369  0.00  0.00    +0.000 A 
ATOM      2  C   UNL     1       2.330   4.415  20.416  0.00  0.00    +0.000 A 
ATOM      3  C   UNL     1       1.804   5.696  20.646  0.00  0.00    +0.000 A 
ATOM      4  C   UNL     1       2.157   6.786  19.830  0.00  0.00    +0.000 A 
ATOM      5  C   UNL     1       3.067   6.549  18.771  0.00  0.00    +0.000 A 
ATOM      6  C   UNL     1       3.670   7.324  17.735  0.00  0.00    +0.000 A 
ATOM      7  C   UNL     1       4.482   6.480  17.020  0.00  0.00    +0.000 A 
ATOM      8  O   UNL     1       4.429   5.227  17.533  0.00  0.00    +0.000 OA
ATOM      9  C   UNL     1       3.567   5.257  18.593  0.00  0.00    +0.000 A 
ENDROOT
BRANCH   1  13
ATOM     10  N   UNL     1       2.131   1.975  17.663  0.00  0.00    +0.000 NA
ATOM     11  C   UNL     1       3.231   1.907  18.322  0.00  0.00    +0.000 C 
ATOM     12  N   UNL     1       4.004   0.794  18.274  0.00  0.00    +0.000 N 
ATOM     13  N   UNL     1       3.774   2.874  19.113  0.00  0.00    +0.000 N 
ATOM     14  H   UNL     1       1.993   1.125  17.119  0.00  0.00    +0.000 HD
ATOM     15  H   UNL     1       3.541  -0.021  17.892  0.00  0.00    +0.000 HD
ATOM     16  H   UNL     1       4.448   0.570  19.156  0.00  0.00    +0.000 HD
ATOM     17  H   UNL     1       4.789   2.893  19.124  0.00  0.00    +0.000 HD
ENDBRANCH   1  13
BRANCH   4  18
ATOM     18  C   UNL     1       1.614   8.156  20.038  0.00  0.00    +0.000 C 
ATOM     19  O   UNL     1       1.669   8.734  21.116  0.00  0.00    +0.000 OA
BRANCH  18  20
ATOM     20  O   UNL     1       1.058   8.653  18.888  0.00  0.00    +0.000 OA
BRANCH  20  21
ATOM     21  C   UNL     1       1.252  10.032  18.703  0.00  0.00    +0.000 A 
ATOM     22  C   UNL     1       2.342  10.583  18.124  0.00  0.00    +0.000 A 
ATOM     23  C   UNL     1       2.507  12.025  18.026  0.00  0.00    +0.000 A 
ATOM     24  C   UNL     1       1.524  12.838  18.463  0.00  0.00    +0.000 A 
ATOM     25  N   UNL     1       0.355  12.253  18.972  0.00  0.00    +0.000 N 
ATOM     26  N   UNL     1      -0.782  12.892  19.372  0.00  0.00    +0.000 NA
ATOM     27  C   UNL     1      -1.526  11.876  19.820  0.00  0.00    +0.000 A 
ATOM     28  N   UNL     1      -0.991  10.633  19.673  0.00  0.00    +0.000 NA
ATOM     29  C   UNL     1       0.180  10.874  19.123  0.00  0.00    +0.000 A 
BRANCH  24  30
ATOM     30  C   UNL     1       1.644  14.338  18.503  0.00  0.00    +0.000 C 
BRANCH  30  31
ATOM     31  C   UNL     1       3.076  14.812  18.381  0.00  0.00    +0.000 C 
ATOM     32  O   UNL     1       3.831  14.920  19.337  0.00  0.00    +0.000 OA
BRANCH  31  33
ATOM     33  O   UNL     1       3.448  15.129  17.122  0.00  0.00    +0.000 OA
ATOM     34  H   UNL     1       3.391  16.088  16.910  0.00  0.00    +0.000 HD
ENDBRANCH  31  33
ENDBRANCH  30  31
ENDBRANCH  24  30
ENDBRANCH  20  21
ENDBRANCH  18  20
ENDBRANCH   4  18
TORSDOF 7
ENDMDL
MODEL 9
REMARK VINA RESULT:      -7.7      2.652      3.886
REMARK  Name = 
REMARK  7 active torsions:
REMARK  status: ('A' for Active; 'I' for Inactive)
REMARK    1  A    between atoms: N_4  and  C_5
REMARK    2  A    between atoms: C_8  and  C_9
REMARK    3  A    between atoms: C_9  and  O_11
REMARK    4  A    between atoms: O_11  and  C_12
REMARK    5  A    between atoms: C_15  and  C_16
REMARK    6  A    between atoms: C_16  and  C_17
REMARK    7  A    between atoms: C_17  and  O_19
REMARK                            x       y       z     vdW  Elec       q    Type
REMARK                         _______ _______ _______ _____ _____    ______ ____
ROOT
ATOM      1  C   UNL     1      -1.368  11.827  20.463  0.00  0.00    +0.000 A 
ATOM      2  C   UNL     1      -0.089  11.596  20.995  0.00  0.00    +0.000 A 
ATOM      3  C   UNL     1       0.861  10.784  20.358  0.00  0.00    +0.000 A 
ATOM      4  C   UNL     1       0.574  10.147  19.137  0.00  0.00    +0.000 A 
ATOM      5  C   UNL     1      -0.710  10.348  18.575  0.00  0.00    +0.000 A 
ATOM      6  C   UNL     1      -1.402   9.925  17.400  0.00  0.00    +0.000 A 
ATOM      7  C   UNL     1      -2.654  10.481  17.446  0.00  0.00    +0.000 A 
ATOM      8  O   UNL     1      -2.799  11.228  18.567  0.00  0.00    +0.000 OA
ATOM      9  C   UNL     1      -1.621  11.159  19.256  0.00  0.00    +0.000 A 
ENDROOT
BRANCH   1  13
ATOM     10  N   UNL     1      -1.895  14.717  20.050  0.00  0.00    +0.000 NA
ATOM     11  C   UNL     1      -2.547  13.958  20.855  0.00  0.00    +0.000 C 
ATOM     12  N   UNL     1      -3.570  14.448  21.599  0.00  0.00    +0.000 N 
ATOM     13  N   UNL     1      -2.343  12.629  21.075  0.00  0.00    +0.000 N 
ATOM     14  H   UNL     1      -2.291  15.656  20.052  0.00  0.00    +0.000 HD
ATOM     15  H   UNL     1      -3.610  15.458  21.643  0.00  0.00    +0.000 HD
ATOM     16  H   UNL     1      -3.622  14.049  22.529  0.00  0.00    +0.000 HD
ATOM     17  H   UNL     1      -3.183  12.102  21.292  0.00  0.00    +0.000 HD
ENDBRANCH   1  13
BRANCH   4  18
ATOM     18  C   UNL     1       1.559   9.286  18.427  0.00  0.00    +0.000 C 
ATOM     19  O   UNL     1       2.049   9.592  17.348  0.00  0.00    +0.000 OA
BRANCH  18  20
ATOM     20  O   UNL     1       1.821   8.140  19.132  0.00  0.00    +0.000 OA
BRANCH  20  21
ATOM     21  C   UNL     1       2.771   7.298  18.530  0.00  0.00    +0.000 A 
ATOM     22  C   UNL     1       3.572   7.655  17.503  0.00  0.00    +0.000 A 
ATOM     23  C   UNL     1       4.489   6.709  16.884  0.00  0.00    +0.000 A 
ATOM     24  C   UNL     1       4.594   5.462  17.385  0.00  0.00    +0.000 A 
ATOM     25  N   UNL     1       3.829   5.132  18.514  0.00  0.00    +0.000 N 
ATOM     26  N   UNL     1       3.862   3.967  19.222  0.00  0.00    +0.000 NA
ATOM     27  C   UNL     1       2.901   4.168  20.130  0.00  0.00    +0.000 A 
ATOM     28  N   UNL     1       2.307   5.394  20.109  0.00  0.00    +0.000 NA
ATOM     29  C   UNL     1       2.906   6.000  19.106  0.00  0.00    +0.000 A 
BRANCH  24  30
ATOM     30  C   UNL     1       5.430   4.381  16.753  0.00  0.00    +0.000 C 
BRANCH  30  31
ATOM     31  C   UNL     1       6.867   4.404  17.227  0.00  0.00    +0.000 C 
ATOM     32  O   UNL     1       7.820   4.563  16.476  0.00  0.00    +0.000 OA
BRANCH  31  33
ATOM     33  O   UNL     1       7.014   4.215  18.556  0.00  0.00    +0.000 OA
ATOM     34  H   UNL     1       7.378   3.335  18.803  0.00  0.00    +0.000 HD
ENDBRANCH  31  33
ENDBRANCH  30  31
ENDBRANCH  24  30
ENDBRANCH  20  21
ENDBRANCH  18  20
ENDBRANCH   4  18
TORSDOF 7
ENDMDL
