MODEL 1
REMARK VINA RESULT:      -8.3      0.000      0.000
REMARK  Name = 
REMARK  6 active torsions:
REMARK  status: ('A' for Active; 'I' for Inactive)
REMARK    1  A    between atoms: N_1  and  C_2
REMARK    2  A    between atoms: C_7  and  C_9
REMARK    3  A    between atoms: C_12  and  C_13
REMARK    4  A    between atoms: C_13  and  O_14
REMARK    5  A    between atoms: O_14  and  C_15
REMARK    6  A    between atoms: C_22  and  O_23
REMARK                            x       y       z     vdW  Elec       q    Type
REMARK                         _______ _______ _______ _____ _____    ______ ____
ROOT
ATOM      1  C   UNL     1       6.760   5.999  18.097  0.00  0.00    +0.000 A 
ATOM      2  C   UNL     1       6.432   6.956  17.164  0.00  0.00    +0.000 A 
ATOM      3  N   UNL     1       6.982   8.188  17.100  0.00  0.00    +0.000 NA
ATOM      4  C   UNL     1       7.965   8.452  17.979  0.00  0.00    +0.000 A 
ATOM      5  N   UNL     1       8.451   7.548  18.857  0.00  0.00    +0.000 NA
ATOM      6  C   UNL     1       7.836   6.352  18.883  0.00  0.00    +0.000 A 
ENDROOT
BRANCH   1  12
ATOM      7  C   UNL     1       2.884   3.364  17.572  0.00  0.00    +0.000 C 
ATOM      8  C   UNL     1       1.965   4.532  17.985  0.00  0.00    +0.000 C 
ATOM      9  C   UNL     1       2.755   5.830  18.168  0.00  0.00    +0.000 C 
ATOM     10  C   UNL     1       3.909   5.614  19.149  0.00  0.00    +0.000 C 
ATOM     11  N   UNL     1       4.781   4.559  18.631  0.00  0.00    +0.000 N 
ATOM     12  C   UNL     1       6.092   4.682  18.146  0.00  0.00    +0.000 C 
ATOM     13  O   UNL     1       6.718   3.716  17.713  0.00  0.00    +0.000 OA
ATOM     14  C   UNL     1       4.106   3.259  18.516  0.00  0.00    +0.000 C 
BRANCH   7  15
ATOM     15  N   UNL     1       2.110   2.120  17.536  0.00  0.00    +0.000 NA
ATOM     16  H   UNL     1       2.647   1.368  17.967  0.00  0.00    +0.000 HD
ATOM     17  H   UNL     1       1.947   1.834  16.570  0.00  0.00    +0.000 HD
ENDBRANCH   7  15
ENDBRANCH   1  12
BRANCH   6  18
ATOM     18  O   UNL     1       8.406   5.509  19.778  0.00  0.00    +0.000 OA
ATOM     19  H   UNL     1       8.462   6.079  20.567  0.00  0.00    +0.000 HD
ENDBRANCH   6  18
BRANCH   4  20
ATOM     20  C   UNL     1       8.573   9.836  17.960  0.00  0.00    +0.000 C 
BRANCH  20  21
ATOM     21  O   UNL     1       9.322  10.060  19.158  0.00  0.00    +0.000 OA
BRANCH  21  22
ATOM     22  C   UNL     1      10.218  11.094  19.107  0.00  0.00    +0.000 A 
ATOM     23  C   UNL     1      10.649  11.461  17.831  0.00  0.00    +0.000 A 
ATOM     24  C   UNL     1      11.554  12.510  17.662  0.00  0.00    +0.000 A 
ATOM     25  C   UNL     1      12.025  13.210  18.773  0.00  0.00    +0.000 A 
ATOM     26  C   UNL     1      11.585  12.862  20.048  0.00  0.00    +0.000 A 
ATOM     27  C   UNL     1      10.680  11.808  20.215  0.00  0.00    +0.000 A 
ENDBRANCH  21  22
ENDBRANCH  20  21
ENDBRANCH   4  20
TORSDOF 6
ENDMDL
MODEL 2
REMARK VINA RESULT:      -8.1      1.017      1.471
REMARK  Name = 
REMARK  6 active torsions:
REMARK  status: ('A' for Active; 'I' for Inactive)
REMARK    1  A    between atoms: N_1  and  C_2
REMARK    2  A    between atoms: C_7  and  C_9
REMARK    3  A    between atoms: C_12  and  C_13
REMARK    4  A    between atoms: C_13  and  O_14
REMARK    5  A    between atoms: O_14  and  C_15
REMARK    6  A    between atoms: C_22  and  O_23
REMARK                            x       y       z     vdW  Elec       q    Type
REMARK                         _______ _______ _______ _____ _____    ______ ____
ROOT
ATOM      1  C   UNL     1       6.143   5.614  17.596  0.00  0.00    +0.000 A 
ATOM      2  C   UNL     1       5.806   6.728  16.862  0.00  0.00    +0.000 A 
ATOM      3  N   UNL     1       6.452   7.913  16.923  0.00  0.00    +0.000 NA
ATOM      4  C   UNL     1       7.537   7.965  17.715  0.00  0.00    +0.000 A 
ATOM      5  N   UNL     1       8.029   6.901  18.386  0.00  0.00    +0.000 NA
ATOM      6  C   UNL     1       7.318   5.762  18.301  0.00  0.00    +0.000 A 
ENDROOT
BRANCH   1  12
ATOM      7  C   UNL     1       2.104   3.257  18.204  0.00  0.00    +0.000 C 
ATOM      8  C   UNL     1       1.688   4.158  19.384  0.00  0.00    +0.000 C 
ATOM      9  C   UNL     1       2.670   5.316  19.578  0.00  0.00    +0.000 C 
ATOM     10  C   UNL     1       4.098   4.783  19.719  0.00  0.00    +0.000 C 
ATOM     11  N   UNL     1       4.441   4.023  18.517  0.00  0.00    +0.000 N 
ATOM     12  C   UNL     1       5.372   4.355  17.521  0.00  0.00    +0.000 C 
ATOM     13  O   UNL     1       5.557   3.640  16.538  0.00  0.00    +0.000 OA
ATOM     14  C   UNL     1       3.590   2.841  18.319  0.00  0.00    +0.000 C 
BRANCH   7  15
ATOM     15  N   UNL     1       1.213   2.094  18.138  0.00  0.00    +0.000 NA
ATOM     16  H   UNL     1       0.308   2.331  18.544  0.00  0.00    +0.000 HD
ATOM     17  H   UNL     1       1.586   1.331  18.702  0.00  0.00    +0.000 HD
ENDBRANCH   7  15
ENDBRANCH   1  12
BRANCH   6  18
ATOM     18  O   UNL     1       7.902   4.748  18.988  0.00  0.00    +0.000 OA
ATOM     19  H   UNL     1       7.166   4.111  19.045  0.00  0.00    +0.000 HD
ENDBRANCH   6  18
BRANCH   4  20
ATOM     20  C   UNL     1       8.257   9.288  17.837  0.00  0.00    +0.000 C 
BRANCH  20  21
ATOM     21  O   UNL     1       8.935   9.365  19.095  0.00  0.00    +0.000 OA
BRANCH  21  22
ATOM     22  C   UNL     1       9.565  10.553  19.352  0.00  0.00    +0.000 A 
ATOM     23  C   UNL     1       9.476  11.016  20.665  0.00  0.00    +0.000 A 
ATOM     24  C   UNL     1      10.090  12.211  21.040  0.00  0.00    +0.000 A 
ATOM     25  C   UNL     1      10.812  12.948  20.102  0.00  0.00    +0.000 A 
ATOM     26  C   UNL     1      10.921  12.483  18.793  0.00  0.00    +0.000 A 
ATOM     27  C   UNL     1      10.301  11.286  18.419  0.00  0.00    +0.000 A 
ENDBRANCH  21  22
ENDBRANCH  20  21
ENDBRANCH   4  20
TORSDOF 6
ENDMDL
MODEL 3
REMARK VINA RESULT:      -7.8      5.718      8.323
REMARK  Name = 
REMARK  6 active torsions:
REMARK  status: ('A' for Active; 'I' for Inactive)
REMARK    1  A    between atoms: N_1  and  C_2
REMARK    2  A    between atoms: C_7  and  C_9
REMARK    3  A    between atoms: C_12  and  C_13
REMARK    4  A    between atoms: C_13  and  O_14
REMARK    5  A    between atoms: O_14  and  C_15
REMARK    6  A    between atoms: C_22  and  O_23
REMARK                            x       y       z     vdW  Elec       q    Type
REMARK                         _______ _______ _______ _____ _____    ______ ____
ROOT
ATOM      1  C   UNL     1       2.923   6.842  19.052  0.00  0.00    +0.000 A 
ATOM      2  C   UNL     1       3.087   7.532  17.873  0.00  0.00    +0.000 A 
ATOM      3  N   UNL     1       2.413   8.653  17.538  0.00  0.00    +0.000 NA
ATOM      4  C   UNL     1       1.574   9.149  18.465  0.00  0.00    +0.000 A 
ATOM      5  N   UNL     1       1.425   8.624  19.700  0.00  0.00    +0.000 NA
ATOM      6  C   UNL     1       2.108   7.492  19.953  0.00  0.00    +0.000 A 
ENDROOT
BRANCH   1  12
ATOM      7  C   UNL     1       3.561   2.220  18.367  0.00  0.00    +0.000 C 
ATOM      8  C   UNL     1       2.060   1.995  18.092  0.00  0.00    +0.000 C 
ATOM      9  C   UNL     1       1.294   3.320  18.047  0.00  0.00    +0.000 C 
ATOM     10  C   UNL     1       1.544   4.121  19.326  0.00  0.00    +0.000 C 
ATOM     11  N   UNL     1       2.980   4.370  19.456  0.00  0.00    +0.000 N 
ATOM     12  C   UNL     1       3.658   5.595  19.346  0.00  0.00    +0.000 C 
ATOM     13  O   UNL     1       4.880   5.673  19.454  0.00  0.00    +0.000 OA
ATOM     14  C   UNL     1       3.769   3.138  19.594  0.00  0.00    +0.000 C 
BRANCH   7  15
ATOM     15  N   UNL     1       4.228   0.925  18.530  0.00  0.00    +0.000 NA
ATOM     16  H   UNL     1       5.239   1.053  18.500  0.00  0.00    +0.000 HD
ATOM     17  H   UNL     1       3.997   0.309  17.751  0.00  0.00    +0.000 HD
ENDBRANCH   7  15
ENDBRANCH   1  12
BRANCH   6  18
ATOM     18  O   UNL     1       1.911   7.055  21.222  0.00  0.00    +0.000 OA
ATOM     19  H   UNL     1       2.467   6.255  21.235  0.00  0.00    +0.000 HD
ENDBRANCH   6  18
BRANCH   4  20
ATOM     20  C   UNL     1       0.773  10.380  18.105  0.00  0.00    +0.000 C 
BRANCH  20  21
ATOM     21  O   UNL     1      -0.422  10.435  18.888  0.00  0.00    +0.000 OA
BRANCH  21  22
ATOM     22  C   UNL     1      -1.588  10.521  18.176  0.00  0.00    +0.000 A 
ATOM     23  C   UNL     1      -2.542  11.408  18.678  0.00  0.00    +0.000 A 
ATOM     24  C   UNL     1      -3.762  11.583  18.024  0.00  0.00    +0.000 A 
ATOM     25  C   UNL     1      -4.032  10.876  16.853  0.00  0.00    +0.000 A 
ATOM     26  C   UNL     1      -3.078  10.003  16.335  0.00  0.00    +0.000 A 
ATOM     27  C   UNL     1      -1.857   9.827  16.994  0.00  0.00    +0.000 A 
ENDBRANCH  21  22
ENDBRANCH  20  21
ENDBRANCH   4  20
TORSDOF 6
ENDMDL
MODEL 4
REMARK VINA RESULT:      -7.8      5.815      8.415
REMARK  Name = 
REMARK  6 active torsions:
REMARK  status: ('A' for Active; 'I' for Inactive)
REMARK    1  A    between atoms: N_1  and  C_2
REMARK    2  A    between atoms: C_7  and  C_9
REMARK    3  A    between atoms: C_12  and  C_13
REMARK    4  A    between atoms: C_13  and  O_14
REMARK    5  A    between atoms: O_14  and  C_15
REMARK    6  A    between atoms: C_22  and  O_23
REMARK                            x       y       z     vdW  Elec       q    Type
REMARK                         _______ _______ _______ _____ _____    ______ ____
ROOT
ATOM      1  C   UNL     1       2.776   6.983  19.098  0.00  0.00    +0.000 A 
ATOM      2  C   UNL     1       2.862   7.662  17.905  0.00  0.00    +0.000 A 
ATOM      3  N   UNL     1       2.144   8.763  17.593  0.00  0.00    +0.000 NA
ATOM      4  C   UNL     1       1.343   9.249  18.556  0.00  0.00    +0.000 A 
ATOM      5  N   UNL     1       1.270   8.736  19.803  0.00  0.00    +0.000 NA
ATOM      6  C   UNL     1       1.991   7.624  20.033  0.00  0.00    +0.000 A 
ENDROOT
BRANCH   1  12
ATOM      7  C   UNL     1       3.514   2.378  18.402  0.00  0.00    +0.000 C 
ATOM      8  C   UNL     1       2.011   2.111  18.185  0.00  0.00    +0.000 C 
ATOM      9  C   UNL     1       1.207   3.413  18.165  0.00  0.00    +0.000 C 
ATOM     10  C   UNL     1       1.483   4.226  19.432  0.00  0.00    +0.000 C 
ATOM     11  N   UNL     1       2.916   4.515  19.506  0.00  0.00    +0.000 N 
ATOM     12  C   UNL     1       3.556   5.757  19.368  0.00  0.00    +0.000 C 
ATOM     13  O   UNL     1       4.778   5.869  19.429  0.00  0.00    +0.000 OA
ATOM     14  C   UNL     1       3.743   3.306  19.619  0.00  0.00    +0.000 C 
BRANCH   7  15
ATOM     15  N   UNL     1       4.223   1.102  18.544  0.00  0.00    +0.000 NA
ATOM     16  H   UNL     1       4.710   1.077  19.439  0.00  0.00    +0.000 HD
ATOM     17  H   UNL     1       4.942   1.017  17.827  0.00  0.00    +0.000 HD
ENDBRANCH   7  15
ENDBRANCH   1  12
BRANCH   6  18
ATOM     18  O   UNL     1       1.870   7.198  21.315  0.00  0.00    +0.000 OA
ATOM     19  H   UNL     1       0.902   7.117  21.397  0.00  0.00    +0.000 HD
ENDBRANCH   6  18
BRANCH   4  20
ATOM     20  C   UNL     1       0.494  10.456  18.225  0.00  0.00    +0.000 C 
BRANCH  20  21
ATOM     21  O   UNL     1      -0.798  10.328  18.823  0.00  0.00    +0.000 OA
BRANCH  21  22
ATOM     22  C   UNL     1      -1.859  10.547  17.986  0.00  0.00    +0.000 A 
ATOM     23  C   UNL     1      -1.891   9.763  16.831  0.00  0.00    +0.000 A 
ATOM     24  C   UNL     1      -2.934   9.896  15.913  0.00  0.00    +0.000 A 
ATOM     25  C   UNL     1      -3.961  10.808  16.152  0.00  0.00    +0.000 A 
ATOM     26  C   UNL     1      -3.946  11.580  17.311  0.00  0.00    +0.000 A 
ATOM     27  C   UNL     1      -2.898  11.447  18.228  0.00  0.00    +0.000 A 
ENDBRANCH  21  22
ENDBRANCH  20  21
ENDBRANCH   4  20
TORSDOF 6
ENDMDL
MODEL 5
REMARK VINA RESULT:      -7.8      1.108      1.878
REMARK  Name = 
REMARK  6 active torsions:
REMARK  status: ('A' for Active; 'I' for Inactive)
REMARK    1  A    between atoms: N_1  and  C_2
REMARK    2  A    between atoms: C_7  and  C_9
REMARK    3  A    between atoms: C_12  and  C_13
REMARK    4  A    between atoms: C_13  and  O_14
REMARK    5  A    between atoms: O_14  and  C_15
REMARK    6  A    between atoms: C_22  and  O_23
REMARK                            x       y       z     vdW  Elec       q    Type
REMARK                         _______ _______ _______ _____ _____    ______ ____
ROOT
ATOM      1  C   UNL     1       6.500   5.773  17.615  0.00  0.00    +0.000 A 
ATOM      2  C   UNL     1       7.533   6.007  18.493  0.00  0.00    +0.000 A 
ATOM      3  N   UNL     1       8.195   7.179  18.605  0.00  0.00    +0.000 NA
ATOM      4  C   UNL     1       7.752   8.194  17.842  0.00  0.00    +0.000 A 
ATOM      5  N   UNL     1       6.672   8.112  17.036  0.00  0.00    +0.000 NA
ATOM      6  C   UNL     1       6.080   6.906  16.953  0.00  0.00    +0.000 A 
ENDROOT
BRANCH   1  12
ATOM      7  C   UNL     1       2.588   3.141  17.737  0.00  0.00    +0.000 C 
ATOM      8  C   UNL     1       1.925   4.073  18.772  0.00  0.00    +0.000 C 
ATOM      9  C   UNL     1       2.780   5.314  19.038  0.00  0.00    +0.000 C 
ATOM     10  C   UNL     1       4.199   4.905  19.440  0.00  0.00    +0.000 C 
ATOM     11  N   UNL     1       4.784   4.107  18.362  0.00  0.00    +0.000 N 
ATOM     12  C   UNL     1       5.841   4.455  17.505  0.00  0.00    +0.000 C 
ATOM     13  O   UNL     1       6.232   3.701  16.616  0.00  0.00    +0.000 OA
ATOM     14  C   UNL     1       4.060   2.852  18.115  0.00  0.00    +0.000 C 
BRANCH   7  15
ATOM     15  N   UNL     1       1.802   1.910  17.611  0.00  0.00    +0.000 NA
ATOM     16  H   UNL     1       2.308   1.134  18.036  0.00  0.00    +0.000 HD
ATOM     17  H   UNL     1       1.682   1.668  16.628  0.00  0.00    +0.000 HD
ENDBRANCH   7  15
ENDBRANCH   1  12
BRANCH   6  18
ATOM     18  O   UNL     1       4.996   6.929  16.139  0.00  0.00    +0.000 OA
ATOM     19  H   UNL     1       5.185   7.716  15.595  0.00  0.00    +0.000 HD
ENDBRANCH   6  18
BRANCH   4  20
ATOM     20  C   UNL     1       8.498   9.507  17.914  0.00  0.00    +0.000 C 
BRANCH  20  21
ATOM     21  O   UNL     1       9.111   9.655  19.198  0.00  0.00    +0.000 OA
BRANCH  21  22
ATOM     22  C   UNL     1       9.802  10.821  19.388  0.00  0.00    +0.000 A 
ATOM     23  C   UNL     1       9.697  11.388  20.660  0.00  0.00    +0.000 A 
ATOM     24  C   UNL     1      10.370  12.571  20.967  0.00  0.00    +0.000 A 
ATOM     25  C   UNL     1      11.166  13.190  20.004  0.00  0.00    +0.000 A 
ATOM     26  C   UNL     1      11.291  12.621  18.738  0.00  0.00    +0.000 A 
ATOM     27  C   UNL     1      10.613  11.436  18.432  0.00  0.00    +0.000 A 
ENDBRANCH  21  22
ENDBRANCH  20  21
ENDBRANCH   4  20
TORSDOF 6
ENDMDL
MODEL 6
REMARK VINA RESULT:      -7.8      1.142      1.608
REMARK  Name = 
REMARK  6 active torsions:
REMARK  status: ('A' for Active; 'I' for Inactive)
REMARK    1  A    between atoms: N_1  and  C_2
REMARK    2  A    between atoms: C_7  and  C_9
REMARK    3  A    between atoms: C_12  and  C_13
REMARK    4  A    between atoms: C_13  and  O_14
REMARK    5  A    between atoms: O_14  and  C_15
REMARK    6  A    between atoms: C_22  and  O_23
REMARK                            x       y       z     vdW  Elec       q    Type
REMARK                         _______ _______ _______ _____ _____    ______ ____
ROOT
ATOM      1  C   UNL     1       6.331   5.681  17.653  0.00  0.00    +0.000 A 
ATOM      2  C   UNL     1       7.414   5.914  18.468  0.00  0.00    +0.000 A 
ATOM      3  N   UNL     1       8.119   7.066  18.500  0.00  0.00    +0.000 NA
ATOM      4  C   UNL     1       7.672   8.064  17.718  0.00  0.00    +0.000 A 
ATOM      5  N   UNL     1       6.550   7.988  16.970  0.00  0.00    +0.000 NA
ATOM      6  C   UNL     1       5.916   6.802  16.966  0.00  0.00    +0.000 A 
ENDROOT
BRANCH   1  12
ATOM      7  C   UNL     1       2.335   3.201  18.003  0.00  0.00    +0.000 C 
ATOM      8  C   UNL     1       1.729   4.211  18.999  0.00  0.00    +0.000 C 
ATOM      9  C   UNL     1       2.632   5.433  19.179  0.00  0.00    +0.000 C 
ATOM     10  C   UNL     1       4.045   4.995  19.571  0.00  0.00    +0.000 C 
ATOM     11  N   UNL     1       4.577   4.120  18.527  0.00  0.00    +0.000 N 
ATOM     12  C   UNL     1       5.625   4.383  17.630  0.00  0.00    +0.000 C 
ATOM     13  O   UNL     1       5.969   3.570  16.775  0.00  0.00    +0.000 OA
ATOM     14  C   UNL     1       3.805   2.881  18.364  0.00  0.00    +0.000 C 
BRANCH   7  15
ATOM     15  N   UNL     1       1.504   1.994  17.962  0.00  0.00    +0.000 NA
ATOM     16  H   UNL     1       0.830   2.067  17.201  0.00  0.00    +0.000 HD
ATOM     17  H   UNL     1       0.958   1.913  18.819  0.00  0.00    +0.000 HD
ENDBRANCH   7  15
ENDBRANCH   1  12
BRANCH   6  18
ATOM     18  O   UNL     1       4.793   6.830  16.206  0.00  0.00    +0.000 OA
ATOM     19  H   UNL     1       4.146   7.194  16.838  0.00  0.00    +0.000 HD
ENDBRANCH   6  18
BRANCH   4  20
ATOM     20  C   UNL     1       8.463   9.353  17.700  0.00  0.00    +0.000 C 
BRANCH  20  21
ATOM     21  O   UNL     1       8.674   9.820  19.035  0.00  0.00    +0.000 OA
BRANCH  21  22
ATOM     22  C   UNL     1       9.685  10.729  19.187  0.00  0.00    +0.000 A 
ATOM     23  C   UNL     1      10.270  11.191  18.007  0.00  0.00    +0.000 A 
ATOM     24  C   UNL     1      11.303  12.128  18.045  0.00  0.00    +0.000 A 
ATOM     25  C   UNL     1      11.750  12.622  19.270  0.00  0.00    +0.000 A 
ATOM     26  C   UNL     1      11.160  12.181  20.452  0.00  0.00    +0.000 A 
ATOM     27  C   UNL     1      10.127  11.238  20.411  0.00  0.00    +0.000 A 
ENDBRANCH  21  22
ENDBRANCH  20  21
ENDBRANCH   4  20
TORSDOF 6
ENDMDL
MODEL 7
REMARK VINA RESULT:      -7.7      5.146      7.470
REMARK  Name = 
REMARK  6 active torsions:
REMARK  status: ('A' for Active; 'I' for Inactive)
REMARK    1  A    between atoms: N_1  and  C_2
REMARK    2  A    between atoms: C_7  and  C_9
REMARK    3  A    between atoms: C_12  and  C_13
REMARK    4  A    between atoms: C_13  and  O_14
REMARK    5  A    between atoms: O_14  and  C_15
REMARK    6  A    between atoms: C_22  and  O_23
REMARK                            x       y       z     vdW  Elec       q    Type
REMARK                         _______ _______ _______ _____ _____    ______ ____
ROOT
ATOM      1  C   UNL     1       5.500   4.956  17.480  0.00  0.00    +0.000 A 
ATOM      2  C   UNL     1       4.889   5.163  16.265  0.00  0.00    +0.000 A 
ATOM      3  N   UNL     1       5.529   5.179  15.076  0.00  0.00    +0.000 NA
ATOM      4  C   UNL     1       6.845   4.907  15.099  0.00  0.00    +0.000 A 
ATOM      5  N   UNL     1       7.523   4.571  16.218  0.00  0.00    +0.000 NA
ATOM      6  C   UNL     1       6.828   4.603  17.369  0.00  0.00    +0.000 A 
ENDROOT
BRANCH   1  12
ATOM      7  C   UNL     1       2.611   2.887  20.581  0.00  0.00    +0.000 C 
ATOM      8  C   UNL     1       1.883   2.106  19.468  0.00  0.00    +0.000 C 
ATOM      9  C   UNL     1       2.556   2.308  18.108  0.00  0.00    +0.000 C 
ATOM     10  C   UNL     1       2.681   3.801  17.795  0.00  0.00    +0.000 C 
ATOM     11  N   UNL     1       3.466   4.442  18.850  0.00  0.00    +0.000 N 
ATOM     12  C   UNL     1       4.754   4.992  18.756  0.00  0.00    +0.000 C 
ATOM     13  O   UNL     1       5.322   5.488  19.727  0.00  0.00    +0.000 OA
ATOM     14  C   UNL     1       2.829   4.363  20.171  0.00  0.00    +0.000 C 
BRANCH   7  15
ATOM     15  N   UNL     1       1.860   2.770  21.834  0.00  0.00    +0.000 NA
ATOM     16  H   UNL     1       1.673   1.787  22.032  0.00  0.00    +0.000 HD
ATOM     17  H   UNL     1       0.948   3.219  21.742  0.00  0.00    +0.000 HD
ENDBRANCH   7  15
ENDBRANCH   1  12
BRANCH   6  18
ATOM     18  O   UNL     1       7.586   4.231  18.429  0.00  0.00    +0.000 OA
ATOM     19  H   UNL     1       6.996   4.457  19.172  0.00  0.00    +0.000 HD
ENDBRANCH   6  18
BRANCH   4  20
ATOM     20  C   UNL     1       7.599   4.959  13.789  0.00  0.00    +0.000 C 
BRANCH  20  21
ATOM     21  O   UNL     1       6.684   4.897  12.692  0.00  0.00    +0.000 OA
BRANCH  21  22
ATOM     22  C   UNL     1       6.535   3.663  12.119  0.00  0.00    +0.000 A 
ATOM     23  C   UNL     1       5.220   3.231  11.939  0.00  0.00    +0.000 A 
ATOM     24  C   UNL     1       4.953   1.993  11.353  0.00  0.00    +0.000 A 
ATOM     25  C   UNL     1       6.005   1.181  10.931  0.00  0.00    +0.000 A 
ATOM     26  C   UNL     1       7.320   1.612  11.091  0.00  0.00    +0.000 A 
ATOM     27  C   UNL     1       7.585   2.852  11.681  0.00  0.00    +0.000 A 
ENDBRANCH  21  22
ENDBRANCH  20  21
ENDBRANCH   4  20
TORSDOF 6
ENDMDL
MODEL 8
REMARK VINA RESULT:      -7.6      1.141      1.229
REMARK  Name = 
REMARK  6 active torsions:
REMARK  status: ('A' for Active; 'I' for Inactive)
REMARK    1  A    between atoms: N_1  and  C_2
REMARK    2  A    between atoms: C_7  and  C_9
REMARK    3  A    between atoms: C_12  and  C_13
REMARK    4  A    between atoms: C_13  and  O_14
REMARK    5  A    between atoms: O_14  and  C_15
REMARK    6  A    between atoms: C_22  and  O_23
REMARK                            x       y       z     vdW  Elec       q    Type
REMARK                         _______ _______ _______ _____ _____    ______ ____
ROOT
ATOM      1  C   UNL     1       6.156   5.513  18.633  0.00  0.00    +0.000 A 
ATOM      2  C   UNL     1       5.884   6.223  17.486  0.00  0.00    +0.000 A 
ATOM      3  N   UNL     1       6.584   7.298  17.063  0.00  0.00    +0.000 NA
ATOM      4  C   UNL     1       7.658   7.641  17.796  0.00  0.00    +0.000 A 
ATOM      5  N   UNL     1       8.088   6.944  18.870  0.00  0.00    +0.000 NA
ATOM      6  C   UNL     1       7.326   5.902  19.249  0.00  0.00    +0.000 A 
ENDROOT
BRANCH   1  12
ATOM      7  C   UNL     1       2.157   3.027  18.358  0.00  0.00    +0.000 C 
ATOM      8  C   UNL     1       1.332   4.284  18.014  0.00  0.00    +0.000 C 
ATOM      9  C   UNL     1       2.230   5.508  17.818  0.00  0.00    +0.000 C 
ATOM     10  C   UNL     1       3.127   5.710  19.041  0.00  0.00    +0.000 C 
ATOM     11  N   UNL     1       3.941   4.509  19.235  0.00  0.00    +0.000 N 
ATOM     12  C   UNL     1       5.328   4.369  19.069  0.00  0.00    +0.000 C 
ATOM     13  O   UNL     1       5.898   3.294  19.242  0.00  0.00    +0.000 OA
ATOM     14  C   UNL     1       3.141   3.310  19.519  0.00  0.00    +0.000 C 
BRANCH   7  15
ATOM     15  N   UNL     1       1.252   1.915  18.664  0.00  0.00    +0.000 NA
ATOM     16  H   UNL     1       0.317   2.275  18.853  0.00  0.00    +0.000 HD
ATOM     17  H   UNL     1       1.552   1.441  19.516  0.00  0.00    +0.000 HD
ENDBRANCH   7  15
ENDBRANCH   1  12
BRANCH   6  18
ATOM     18  O   UNL     1       7.850   5.254  20.319  0.00  0.00    +0.000 OA
ATOM     19  H   UNL     1       8.650   5.784  20.487  0.00  0.00    +0.000 HD
ENDBRANCH   6  18
BRANCH   4  20
ATOM     20  C   UNL     1       8.438   8.865  17.373  0.00  0.00    +0.000 C 
BRANCH  20  21
ATOM     21  O   UNL     1       7.995  10.009  18.107  0.00  0.00    +0.000 OA
BRANCH  21  22
ATOM     22  C   UNL     1       8.978  10.885  18.481  0.00  0.00    +0.000 A 
ATOM     23  C   UNL     1       9.013  12.093  17.783  0.00  0.00    +0.000 A 
ATOM     24  C   UNL     1       9.967  13.063  18.090  0.00  0.00    +0.000 A 
ATOM     25  C   UNL     1      10.889  12.835  19.111  0.00  0.00    +0.000 A 
ATOM     26  C   UNL     1      10.850  11.639  19.825  0.00  0.00    +0.000 A 
ATOM     27  C   UNL     1       9.894  10.667  19.513  0.00  0.00    +0.000 A 
ENDBRANCH  21  22
ENDBRANCH  20  21
ENDBRANCH   4  20
TORSDOF 6
ENDMDL
MODEL 9
REMARK VINA RESULT:      -7.6      1.141      1.365
REMARK  Name = 
REMARK  6 active torsions:
REMARK  status: ('A' for Active; 'I' for Inactive)
REMARK    1  A    between atoms: N_1  and  C_2
REMARK    2  A    between atoms: C_7  and  C_9
REMARK    3  A    between atoms: C_12  and  C_13
REMARK    4  A    between atoms: C_13  and  O_14
REMARK    5  A    between atoms: O_14  and  C_15
REMARK    6  A    between atoms: C_22  and  O_23
REMARK                            x       y       z     vdW  Elec       q    Type
REMARK                         _______ _______ _______ _____ _____    ______ ____
ROOT
ATOM      1  C   UNL     1       6.968   6.174  17.907  0.00  0.00    +0.000 A 
ATOM      2  C   UNL     1       6.874   7.295  17.115  0.00  0.00    +0.000 A 
ATOM      3  N   UNL     1       7.511   8.462  17.355  0.00  0.00    +0.000 NA
ATOM      4  C   UNL     1       8.342   8.485  18.412  0.00  0.00    +0.000 A 
ATOM      5  N   UNL     1       8.604   7.410  19.186  0.00  0.00    +0.000 NA
ATOM      6  C   UNL     1       7.912   6.291  18.905  0.00  0.00    +0.000 A 
ENDROOT
BRANCH   1  12
ATOM      7  C   UNL     1       2.854   3.909  17.482  0.00  0.00    +0.000 C 
ATOM      8  C   UNL     1       2.189   4.796  18.553  0.00  0.00    +0.000 C 
ATOM      9  C   UNL     1       3.120   5.924  19.004  0.00  0.00    +0.000 C 
ATOM     10  C   UNL     1       4.462   5.352  19.465  0.00  0.00    +0.000 C 
ATOM     11  N   UNL     1       5.065   4.608  18.358  0.00  0.00    +0.000 N 
ATOM     12  C   UNL     1       6.212   4.938  17.619  0.00  0.00    +0.000 C 
ATOM     13  O   UNL     1       6.610   4.238  16.690  0.00  0.00    +0.000 OA
ATOM     14  C   UNL     1       4.262   3.453  17.935  0.00  0.00    +0.000 C 
BRANCH   7  15
ATOM     15  N   UNL     1       1.981   2.771  17.177  0.00  0.00    +0.000 NA
ATOM     16  H   UNL     1       1.205   2.746  17.838  0.00  0.00    +0.000 HD
ATOM     17  H   UNL     1       2.488   1.895  17.301  0.00  0.00    +0.000 HD
ENDBRANCH   7  15
ENDBRANCH   1  12
BRANCH   6  18
ATOM     18  O   UNL     1       8.259   5.264  19.719  0.00  0.00    +0.000 OA
ATOM     19  H   UNL     1       8.004   4.496  19.175  0.00  0.00    +0.000 HD
ENDBRANCH   6  18
BRANCH   4  20
ATOM     20  C   UNL     1       9.039   9.789  18.731  0.00  0.00    +0.000 C 
BRANCH  20  21
ATOM     21  O   UNL     1       8.590  10.817  17.845  0.00  0.00    +0.000 OA
BRANCH  21  22
ATOM     22  C   UNL     1       9.365  11.944  17.811  0.00  0.00    +0.000 A 
ATOM     23  C   UNL     1       8.697  13.148  18.041  0.00  0.00    +0.000 A 
ATOM     24  C   UNL     1       9.393  14.357  18.040  0.00  0.00    +0.000 A 
ATOM     25  C   UNL     1      10.770  14.369  17.820  0.00  0.00    +0.000 A 
ATOM     26  C   UNL     1      11.447  13.170  17.608  0.00  0.00    +0.000 A 
ATOM     27  C   UNL     1      10.747  11.959  17.606  0.00  0.00    +0.000 A 
ENDBRANCH  21  22
ENDBRANCH  20  21
ENDBRANCH   4  20
TORSDOF 6
ENDMDL
