MODEL 1
REMARK VINA RESULT:      -8.1      0.000      0.000
REMARK  Name = 
REMARK  5 active torsions:
REMARK  status: ('A' for Active; 'I' for Inactive)
REMARK    1  A    between atoms: C_1  and  C_2
REMARK    2  A    between atoms: C_2  and  O_3
REMARK    3  A    between atoms: O_3  and  C_4
REMARK    4  A    between atoms: C_9  and  C_10
REMARK    5  A    between atoms: C_15  and  C_16
REMARK                            x       y       z     vdW  Elec       q    Type
REMARK                         _______ _______ _______ _____ _____    ______ ____
ROOT
ATOM      1  C   UNL     1       4.165   4.413  18.389  0.00  0.00    +0.000 C 
ATOM      2  C   UNL     1       3.379   5.445  18.718  0.00  0.00    +0.000 A 
ATOM      3  S   UNL     1       3.246   6.980  17.878  0.00  0.00    +0.000 S 
ATOM      4  C   UNL     1       2.273   7.582  19.154  0.00  0.00    +0.000 A 
ATOM      5  N   UNL     1       1.714   8.722  19.437  0.00  0.00    +0.000 NA
ATOM      6  C   UNL     1       1.145   8.454  20.674  0.00  0.00    +0.000 A 
ATOM      7  N   UNL     1       1.320   7.192  21.125  0.00  0.00    +0.000 NA
ATOM      8  N   UNL     1       2.038   6.668  20.116  0.00  0.00    +0.000 N 
ATOM      9  C   UNL     1       2.563   5.403  19.969  0.00  0.00    +0.000 A 
ATOM     10  O   UNL     1       2.379   4.490  20.753  0.00  0.00    +0.000 OA
ENDROOT
BRANCH   1  16
ATOM     11  C   UNL     1       6.503   4.618  17.509  0.00  0.00    +0.000 A 
ATOM     12  C   UNL     1       7.380   4.635  16.418  0.00  0.00    +0.000 A 
ATOM     13  C   UNL     1       6.901   4.476  15.117  0.00  0.00    +0.000 A 
ATOM     14  C   UNL     1       5.541   4.289  14.893  0.00  0.00    +0.000 A 
ATOM     15  C   UNL     1       4.656   4.258  15.968  0.00  0.00    +0.000 A 
ATOM     16  C   UNL     1       5.124   4.425  17.279  0.00  0.00    +0.000 A 
BRANCH  11  17
ATOM     17  O   UNL     1       6.898   4.787  18.820  0.00  0.00    +0.000 OA
BRANCH  17  19
ATOM     18  C   UNL     1       7.674   7.006  18.287  0.00  0.00    +0.000 C 
ATOM     19  C   UNL     1       7.955   5.722  19.044  0.00  0.00    +0.000 C 
ENDBRANCH  17  19
ENDBRANCH  11  17
ENDBRANCH   1  16
BRANCH   6  20
ATOM     20  C   UNL     1       0.401   9.493  21.446  0.00  0.00    +0.000 A 
ATOM     21  C   UNL     1      -0.158   9.332  22.701  0.00  0.00    +0.000 A 
ATOM     22  C   UNL     1      -0.773  10.562  23.039  0.00  0.00    +0.000 A 
ATOM     23  C   UNL     1      -0.558  11.400  21.971  0.00  0.00    +0.000 A 
ATOM     24  O   UNL     1       0.166  10.770  21.010  0.00  0.00    +0.000 OA
ENDBRANCH   6  20
TORSDOF 4
ENDMDL
MODEL 2
REMARK VINA RESULT:      -8.0      1.958      3.065
REMARK  Name = 
REMARK  5 active torsions:
REMARK  status: ('A' for Active; 'I' for Inactive)
REMARK    1  A    between atoms: C_1  and  C_2
REMARK    2  A    between atoms: C_2  and  O_3
REMARK    3  A    between atoms: O_3  and  C_4
REMARK    4  A    between atoms: C_9  and  C_10
REMARK    5  A    between atoms: C_15  and  C_16
REMARK                            x       y       z     vdW  Elec       q    Type
REMARK                         _______ _______ _______ _____ _____    ______ ____
ROOT
ATOM      1  C   UNL     1       2.878   6.077  17.936  0.00  0.00    +0.000 C 
ATOM      2  C   UNL     1       2.380   6.943  18.827  0.00  0.00    +0.000 A 
ATOM      3  S   UNL     1       1.889   6.595  20.476  0.00  0.00    +0.000 S 
ATOM      4  C   UNL     1       1.235   8.174  20.602  0.00  0.00    +0.000 A 
ATOM      5  N   UNL     1       0.580   8.837  21.510  0.00  0.00    +0.000 NA
ATOM      6  C   UNL     1       0.337  10.037  20.857  0.00  0.00    +0.000 A 
ATOM      7  N   UNL     1       0.844  10.123  19.607  0.00  0.00    +0.000 NA
ATOM      8  N   UNL     1       1.418   8.913  19.491  0.00  0.00    +0.000 N 
ATOM      9  C   UNL     1       2.096   8.354  18.430  0.00  0.00    +0.000 A 
ATOM     10  O   UNL     1       2.355   8.944  17.396  0.00  0.00    +0.000 OA
ENDROOT
BRANCH   1  16
ATOM     11  C   UNL     1       4.215   4.121  18.756  0.00  0.00    +0.000 A 
ATOM     12  C   UNL     1       4.326   2.741  18.957  0.00  0.00    +0.000 A 
ATOM     13  C   UNL     1       3.292   1.881  18.584  0.00  0.00    +0.000 A 
ATOM     14  C   UNL     1       2.132   2.393  18.013  0.00  0.00    +0.000 A 
ATOM     15  C   UNL     1       2.000   3.766  17.815  0.00  0.00    +0.000 A 
ATOM     16  C   UNL     1       3.034   4.639  18.179  0.00  0.00    +0.000 A 
BRANCH  11  17
ATOM     17  O   UNL     1       5.199   5.032  19.082  0.00  0.00    +0.000 OA
BRANCH  17  19
ATOM     18  C   UNL     1       7.460   5.856  18.946  0.00  0.00    +0.000 C 
ATOM     19  C   UNL     1       6.421   4.927  18.349  0.00  0.00    +0.000 C 
ENDBRANCH  17  19
ENDBRANCH  11  17
ENDBRANCH   1  16
BRANCH   6  20
ATOM     20  C   UNL     1      -0.436  11.144  21.495  0.00  0.00    +0.000 A 
ATOM     21  C   UNL     1      -1.375  11.947  20.871  0.00  0.00    +0.000 A 
ATOM     22  C   UNL     1      -1.842  12.865  21.844  0.00  0.00    +0.000 A 
ATOM     23  C   UNL     1      -1.160  12.572  23.001  0.00  0.00    +0.000 A 
ATOM     24  O   UNL     1      -0.321  11.522  22.805  0.00  0.00    +0.000 OA
ENDBRANCH   6  20
TORSDOF 4
ENDMDL
MODEL 3
REMARK VINA RESULT:      -7.8      1.894      3.214
REMARK  Name = 
REMARK  5 active torsions:
REMARK  status: ('A' for Active; 'I' for Inactive)
REMARK    1  A    between atoms: C_1  and  C_2
REMARK    2  A    between atoms: C_2  and  O_3
REMARK    3  A    between atoms: O_3  and  C_4
REMARK    4  A    between atoms: C_9  and  C_10
REMARK    5  A    between atoms: C_15  and  C_16
REMARK                            x       y       z     vdW  Elec       q    Type
REMARK                         _______ _______ _______ _____ _____    ______ ____
ROOT
ATOM      1  C   UNL     1       2.614   6.305  17.789  0.00  0.00    +0.000 C 
ATOM      2  C   UNL     1       2.229   7.141  18.761  0.00  0.00    +0.000 A 
ATOM      3  S   UNL     1       1.878   6.730  20.431  0.00  0.00    +0.000 S 
ATOM      4  C   UNL     1       1.293   8.320  20.687  0.00  0.00    +0.000 A 
ATOM      5  N   UNL     1       0.746   8.959  21.680  0.00  0.00    +0.000 NA
ATOM      6  C   UNL     1       0.486  10.196  21.107  0.00  0.00    +0.000 A 
ATOM      7  N   UNL     1       0.881  10.326  19.820  0.00  0.00    +0.000 NA
ATOM      8  N   UNL     1       1.400   9.106  19.598  0.00  0.00    +0.000 N 
ATOM      9  C   UNL     1       1.960   8.578  18.455  0.00  0.00    +0.000 A 
ATOM     10  O   UNL     1       2.143   9.208  17.429  0.00  0.00    +0.000 OA
ENDROOT
BRANCH   1  16
ATOM     11  C   UNL     1       4.010   4.232  17.991  0.00  0.00    +0.000 A 
ATOM     12  C   UNL     1       4.084   2.842  18.134  0.00  0.00    +0.000 A 
ATOM     13  C   UNL     1       2.924   2.073  18.227  0.00  0.00    +0.000 A 
ATOM     14  C   UNL     1       1.676   2.686  18.185  0.00  0.00    +0.000 A 
ATOM     15  C   UNL     1       1.584   4.069  18.054  0.00  0.00    +0.000 A 
ATOM     16  C   UNL     1       2.742   4.852  17.952  0.00  0.00    +0.000 A 
BRANCH  11  17
ATOM     17  O   UNL     1       5.110   5.057  17.875  0.00  0.00    +0.000 OA
BRANCH  17  19
ATOM     18  C   UNL     1       6.857   4.451  16.330  0.00  0.00    +0.000 C 
ATOM     19  C   UNL     1       5.600   5.270  16.550  0.00  0.00    +0.000 C 
ENDBRANCH  17  19
ENDBRANCH  11  17
ENDBRANCH   1  16
BRANCH   6  20
ATOM     20  C   UNL     1      -0.187  11.294  21.862  0.00  0.00    +0.000 A 
ATOM     21  C   UNL     1      -1.248  11.149  22.738  0.00  0.00    +0.000 A 
ATOM     22  C   UNL     1      -1.572  12.444  23.210  0.00  0.00    +0.000 A 
ATOM     23  C   UNL     1      -0.694  13.303  22.593  0.00  0.00    +0.000 A 
ATOM     24  O   UNL     1       0.158  12.616  21.789  0.00  0.00    +0.000 OA
ENDBRANCH   6  20
TORSDOF 4
ENDMDL
MODEL 4
REMARK VINA RESULT:      -7.5      1.193      1.393
REMARK  Name = 
REMARK  5 active torsions:
REMARK  status: ('A' for Active; 'I' for Inactive)
REMARK    1  A    between atoms: C_1  and  C_2
REMARK    2  A    between atoms: C_2  and  O_3
REMARK    3  A    between atoms: O_3  and  C_4
REMARK    4  A    between atoms: C_9  and  C_10
REMARK    5  A    between atoms: C_15  and  C_16
REMARK                            x       y       z     vdW  Elec       q    Type
REMARK                         _______ _______ _______ _____ _____    ______ ____
ROOT
ATOM      1  C   UNL     1       4.474   3.925  17.236  0.00  0.00    +0.000 C 
ATOM      2  C   UNL     1       3.727   4.871  17.818  0.00  0.00    +0.000 A 
ATOM      3  S   UNL     1       3.618   6.562  17.358  0.00  0.00    +0.000 S 
ATOM      4  C   UNL     1       2.696   6.874  18.769  0.00  0.00    +0.000 A 
ATOM      5  N   UNL     1       2.178   7.930  19.324  0.00  0.00    +0.000 NA
ATOM      6  C   UNL     1       1.632   7.397  20.482  0.00  0.00    +0.000 A 
ATOM      7  N   UNL     1       1.781   6.061  20.625  0.00  0.00    +0.000 NA
ATOM      8  N   UNL     1       2.458   5.768  19.501  0.00  0.00    +0.000 N 
ATOM      9  C   UNL     1       2.941   4.559  19.050  0.00  0.00    +0.000 A 
ATOM     10  O   UNL     1       2.750   3.494  19.608  0.00  0.00    +0.000 OA
ENDROOT
BRANCH   1  16
ATOM     11  C   UNL     1       6.745   4.545  16.373  0.00  0.00    +0.000 A 
ATOM     12  C   UNL     1       7.593   4.783  15.286  0.00  0.00    +0.000 A 
ATOM     13  C   UNL     1       7.125   4.664  13.977  0.00  0.00    +0.000 A 
ATOM     14  C   UNL     1       5.804   4.299  13.740  0.00  0.00    +0.000 A 
ATOM     15  C   UNL     1       4.948   4.048  14.810  0.00  0.00    +0.000 A 
ATOM     16  C   UNL     1       5.405   4.171  16.129  0.00  0.00    +0.000 A 
BRANCH  11  17
ATOM     17  O   UNL     1       7.129   4.659  17.693  0.00  0.00    +0.000 OA
BRANCH  17  19
ATOM     18  C   UNL     1       8.048   5.915  19.534  0.00  0.00    +0.000 C 
ATOM     19  C   UNL     1       7.432   5.978  18.149  0.00  0.00    +0.000 C 
ENDBRANCH  17  19
ENDBRANCH  11  17
ENDBRANCH   1  16
BRANCH   6  20
ATOM     20  C   UNL     1       0.938   8.247  21.496  0.00  0.00    +0.000 A 
ATOM     21  C   UNL     1      -0.428   8.437  21.602  0.00  0.00    +0.000 A 
ATOM     22  C   UNL     1      -0.637   9.323  22.687  0.00  0.00    +0.000 A 
ATOM     23  C   UNL     1       0.612   9.625  23.176  0.00  0.00    +0.000 A 
ATOM     24  O   UNL     1       1.569   8.966  22.474  0.00  0.00    +0.000 OA
ENDBRANCH   6  20
TORSDOF 4
ENDMDL
MODEL 5
REMARK VINA RESULT:      -7.3      2.164      3.267
REMARK  Name = 
REMARK  5 active torsions:
REMARK  status: ('A' for Active; 'I' for Inactive)
REMARK    1  A    between atoms: C_1  and  C_2
REMARK    2  A    between atoms: C_2  and  O_3
REMARK    3  A    between atoms: O_3  and  C_4
REMARK    4  A    between atoms: C_9  and  C_10
REMARK    5  A    between atoms: C_15  and  C_16
REMARK                            x       y       z     vdW  Elec       q    Type
REMARK                         _______ _______ _______ _____ _____    ______ ____
ROOT
ATOM      1  C   UNL     1       2.731   7.192  17.687  0.00  0.00    +0.000 C 
ATOM      2  C   UNL     1       2.216   7.934  18.674  0.00  0.00    +0.000 A 
ATOM      3  S   UNL     1       1.835   7.406  20.304  0.00  0.00    +0.000 S 
ATOM      4  C   UNL     1       1.072   8.912  20.602  0.00  0.00    +0.000 A 
ATOM      5  N   UNL     1       0.415   9.440  21.593  0.00  0.00    +0.000 NA
ATOM      6  C   UNL     1       0.051  10.669  21.064  0.00  0.00    +0.000 A 
ATOM      7  N   UNL     1       0.487  10.904  19.805  0.00  0.00    +0.000 NA
ATOM      8  N   UNL     1       1.143   9.757  19.556  0.00  0.00    +0.000 N 
ATOM      9  C   UNL     1       1.808   9.349  18.419  0.00  0.00    +0.000 A 
ATOM     10  O   UNL     1       1.969  10.045  17.433  0.00  0.00    +0.000 OA
ENDROOT
BRANCH   1  16
ATOM     11  C   UNL     1       4.329   5.262  17.752  0.00  0.00    +0.000 A 
ATOM     12  C   UNL     1       4.544   3.882  17.841  0.00  0.00    +0.000 A 
ATOM     13  C   UNL     1       3.469   2.999  17.956  0.00  0.00    +0.000 A 
ATOM     14  C   UNL     1       2.168   3.488  17.992  0.00  0.00    +0.000 A 
ATOM     15  C   UNL     1       1.936   4.859  17.915  0.00  0.00    +0.000 A 
ATOM     16  C   UNL     1       3.007   5.755  17.791  0.00  0.00    +0.000 A 
BRANCH  11  17
ATOM     17  O   UNL     1       5.338   6.194  17.618  0.00  0.00    +0.000 OA
BRANCH  17  19
ATOM     18  C   UNL     1       7.583   6.983  18.002  0.00  0.00    +0.000 C 
ATOM     19  C   UNL     1       6.585   5.865  18.233  0.00  0.00    +0.000 C 
ENDBRANCH  17  19
ENDBRANCH  11  17
ENDBRANCH   1  16
BRANCH   6  20
ATOM     20  C   UNL     1      -0.770  11.652  21.832  0.00  0.00    +0.000 A 
ATOM     21  C   UNL     1      -2.116  11.912  21.645  0.00  0.00    +0.000 A 
ATOM     22  C   UNL     1      -2.474  12.917  22.576  0.00  0.00    +0.000 A 
ATOM     23  C   UNL     1      -1.327  13.214  23.274  0.00  0.00    +0.000 A 
ATOM     24  O   UNL     1      -0.296  12.443  22.843  0.00  0.00    +0.000 OA
ENDBRANCH   6  20
TORSDOF 4
ENDMDL
MODEL 6
REMARK VINA RESULT:      -7.3      1.443      2.457
REMARK  Name = 
REMARK  5 active torsions:
REMARK  status: ('A' for Active; 'I' for Inactive)
REMARK    1  A    between atoms: C_1  and  C_2
REMARK    2  A    between atoms: C_2  and  O_3
REMARK    3  A    between atoms: O_3  and  C_4
REMARK    4  A    between atoms: C_9  and  C_10
REMARK    5  A    between atoms: C_15  and  C_16
REMARK                            x       y       z     vdW  Elec       q    Type
REMARK                         _______ _______ _______ _____ _____    ______ ____
ROOT
ATOM      1  C   UNL     1       3.973   5.083  18.990  0.00  0.00    +0.000 C 
ATOM      2  C   UNL     1       3.114   6.092  19.179  0.00  0.00    +0.000 A 
ATOM      3  S   UNL     1       2.908   7.508  18.163  0.00  0.00    +0.000 S 
ATOM      4  C   UNL     1       1.864   8.187  19.340  0.00  0.00    +0.000 A 
ATOM      5  N   UNL     1       1.228   9.314  19.477  0.00  0.00    +0.000 NA
ATOM      6  C   UNL     1       0.642   9.154  20.724  0.00  0.00    +0.000 A 
ATOM      7  N   UNL     1       0.884   7.966  21.323  0.00  0.00    +0.000 NA
ATOM      8  N   UNL     1       1.661   7.378  20.397  0.00  0.00    +0.000 N 
ATOM      9  C   UNL     1       2.268   6.141  20.409  0.00  0.00    +0.000 A 
ATOM     10  O   UNL     1       2.120   5.314  21.291  0.00  0.00    +0.000 OA
ENDROOT
BRANCH   1  16
ATOM     11  C   UNL     1       4.739   4.234  16.759  0.00  0.00    +0.000 A 
ATOM     12  C   UNL     1       5.713   4.203  15.755  0.00  0.00    +0.000 A 
ATOM     13  C   UNL     1       6.893   4.937  15.884  0.00  0.00    +0.000 A 
ATOM     14  C   UNL     1       7.108   5.718  17.015  0.00  0.00    +0.000 A 
ATOM     15  C   UNL     1       6.144   5.769  18.020  0.00  0.00    +0.000 A 
ATOM     16  C   UNL     1       4.959   5.030  17.905  0.00  0.00    +0.000 A 
BRANCH  11  17
ATOM     17  O   UNL     1       3.558   3.523  16.712  0.00  0.00    +0.000 OA
BRANCH  17  19
ATOM     18  C   UNL     1       2.126   2.142  18.074  0.00  0.00    +0.000 C 
ATOM     19  C   UNL     1       3.514   2.324  17.489  0.00  0.00    +0.000 C 
ENDBRANCH  17  19
ENDBRANCH  11  17
ENDBRANCH   1  16
BRANCH   6  20
ATOM     20  C   UNL     1      -0.187  10.224  21.354  0.00  0.00    +0.000 A 
ATOM     21  C   UNL     1      -0.501  10.328  22.698  0.00  0.00    +0.000 A 
ATOM     22  C   UNL     1      -1.313  11.479  22.843  0.00  0.00    +0.000 A 
ATOM     23  C   UNL     1      -1.451  12.008  21.582  0.00  0.00    +0.000 A 
ATOM     24  O   UNL     1      -0.760  11.267  20.678  0.00  0.00    +0.000 OA
ENDBRANCH   6  20
TORSDOF 4
ENDMDL
MODEL 7
REMARK VINA RESULT:      -7.2      2.502      4.166
REMARK  Name = 
REMARK  5 active torsions:
REMARK  status: ('A' for Active; 'I' for Inactive)
REMARK    1  A    between atoms: C_1  and  C_2
REMARK    2  A    between atoms: C_2  and  O_3
REMARK    3  A    between atoms: O_3  and  C_4
REMARK    4  A    between atoms: C_9  and  C_10
REMARK    5  A    between atoms: C_15  and  C_16
REMARK                            x       y       z     vdW  Elec       q    Type
REMARK                         _______ _______ _______ _____ _____    ______ ____
ROOT
ATOM      1  C   UNL     1       2.558   6.319  19.606  0.00  0.00    +0.000 C 
ATOM      2  C   UNL     1       2.077   7.541  19.349  0.00  0.00    +0.000 A 
ATOM      3  S   UNL     1       2.155   8.407  17.824  0.00  0.00    +0.000 S 
ATOM      4  C   UNL     1       1.547   9.808  18.602  0.00  0.00    +0.000 A 
ATOM      5  N   UNL     1       1.303  11.035  18.245  0.00  0.00    +0.000 NA
ATOM      6  C   UNL     1       0.886  11.597  19.443  0.00  0.00    +0.000 A 
ATOM      7  N   UNL     1       0.849  10.745  20.493  0.00  0.00    +0.000 NA
ATOM      8  N   UNL     1       1.269   9.612  19.905  0.00  0.00    +0.000 N 
ATOM      9  C   UNL     1       1.475   8.360  20.444  0.00  0.00    +0.000 A 
ATOM     10  O   UNL     1       1.219   8.060  21.596  0.00  0.00    +0.000 OA
ENDROOT
BRANCH   1  16
ATOM     11  C   UNL     1       2.702   4.435  17.959  0.00  0.00    +0.000 A 
ATOM     12  C   UNL     1       3.464   3.680  17.061  0.00  0.00    +0.000 A 
ATOM     13  C   UNL     1       4.812   3.972  16.848  0.00  0.00    +0.000 A 
ATOM     14  C   UNL     1       5.411   5.028  17.526  0.00  0.00    +0.000 A 
ATOM     15  C   UNL     1       4.665   5.797  18.417  0.00  0.00    +0.000 A 
ATOM     16  C   UNL     1       3.313   5.508  18.644  0.00  0.00    +0.000 A 
BRANCH  11  17
ATOM     17  O   UNL     1       1.371   4.197  18.236  0.00  0.00    +0.000 OA
BRANCH  17  19
ATOM     18  C   UNL     1       1.012   3.018  20.307  0.00  0.00    +0.000 C 
ATOM     19  C   UNL     1       1.064   2.918  18.795  0.00  0.00    +0.000 C 
ENDBRANCH  17  19
ENDBRANCH  11  17
ENDBRANCH   1  16
BRANCH   6  20
ATOM     20  C   UNL     1       0.516  13.039  19.557  0.00  0.00    +0.000 A 
ATOM     21  C   UNL     1      -0.242  13.760  18.653  0.00  0.00    +0.000 A 
ATOM     22  C   UNL     1      -0.329  15.083  19.151  0.00  0.00    +0.000 A 
ATOM     23  C   UNL     1       0.382  15.093  20.327  0.00  0.00    +0.000 A 
ATOM     24  O   UNL     1       0.883  13.859  20.590  0.00  0.00    +0.000 OA
ENDBRANCH   6  20
TORSDOF 4
ENDMDL
MODEL 8
REMARK VINA RESULT:      -7.2      1.232      1.294
REMARK  Name = 
REMARK  5 active torsions:
REMARK  status: ('A' for Active; 'I' for Inactive)
REMARK    1  A    between atoms: C_1  and  C_2
REMARK    2  A    between atoms: C_2  and  O_3
REMARK    3  A    between atoms: O_3  and  C_4
REMARK    4  A    between atoms: C_9  and  C_10
REMARK    5  A    between atoms: C_15  and  C_16
REMARK                            x       y       z     vdW  Elec       q    Type
REMARK                         _______ _______ _______ _____ _____    ______ ____
ROOT
ATOM      1  C   UNL     1       3.937   4.962  18.618  0.00  0.00    +0.000 C 
ATOM      2  C   UNL     1       3.200   6.078  18.673  0.00  0.00    +0.000 A 
ATOM      3  S   UNL     1       3.199   7.401  17.520  0.00  0.00    +0.000 S 
ATOM      4  C   UNL     1       2.207   8.310  18.582  0.00  0.00    +0.000 A 
ATOM      5  N   UNL     1       1.707   9.511  18.583  0.00  0.00    +0.000 NA
ATOM      6  C   UNL     1       1.066   9.544  19.813  0.00  0.00    +0.000 A 
ATOM      7  N   UNL     1       1.144   8.401  20.532  0.00  0.00    +0.000 NA
ATOM      8  N   UNL     1       1.873   7.638  19.700  0.00  0.00    +0.000 N 
ATOM      9  C   UNL     1       2.327   6.346  19.855  0.00  0.00    +0.000 A 
ATOM     10  O   UNL     1       2.052   5.633  20.804  0.00  0.00    +0.000 OA
ENDROOT
BRANCH   1  16
ATOM     11  C   UNL     1       6.308   4.985  17.803  0.00  0.00    +0.000 A 
ATOM     12  C   UNL     1       7.232   4.718  16.787  0.00  0.00    +0.000 A 
ATOM     13  C   UNL     1       6.816   4.175  15.570  0.00  0.00    +0.000 A 
ATOM     14  C   UNL     1       5.472   3.886  15.359  0.00  0.00    +0.000 A 
ATOM     15  C   UNL     1       4.540   4.135  16.364  0.00  0.00    +0.000 A 
ATOM     16  C   UNL     1       4.944   4.687  17.587  0.00  0.00    +0.000 A 
BRANCH  11  17
ATOM     17  O   UNL     1       6.639   5.536  19.024  0.00  0.00    +0.000 OA
BRANCH  17  19
ATOM     18  C   UNL     1       8.114   7.369  18.503  0.00  0.00    +0.000 C 
ATOM     19  C   UNL     1       7.981   6.008  19.158  0.00  0.00    +0.000 C 
ENDBRANCH  17  19
ENDBRANCH  11  17
ENDBRANCH   1  16
BRANCH   6  20
ATOM     20  C   UNL     1       0.351  10.761  20.303  0.00  0.00    +0.000 A 
ATOM     21  C   UNL     1       0.936  11.868  20.890  0.00  0.00    +0.000 A 
ATOM     22  C   UNL     1      -0.111  12.767  21.208  0.00  0.00    +0.000 A 
ATOM     23  C   UNL     1      -1.273  12.155  20.800  0.00  0.00    +0.000 A 
ATOM     24  O   UNL     1      -1.002  10.950  20.236  0.00  0.00    +0.000 OA
ENDBRANCH   6  20
TORSDOF 4
ENDMDL
MODEL 9
REMARK VINA RESULT:      -7.1      2.046      3.182
REMARK  Name = 
REMARK  5 active torsions:
REMARK  status: ('A' for Active; 'I' for Inactive)
REMARK    1  A    between atoms: C_1  and  C_2
REMARK    2  A    between atoms: C_2  and  O_3
REMARK    3  A    between atoms: O_3  and  C_4
REMARK    4  A    between atoms: C_9  and  C_10
REMARK    5  A    between atoms: C_15  and  C_16
REMARK                            x       y       z     vdW  Elec       q    Type
REMARK                         _______ _______ _______ _____ _____    ______ ____
ROOT
ATOM      1  C   UNL     1       3.793   5.664  19.058  0.00  0.00    +0.000 C 
ATOM      2  C   UNL     1       3.036   6.750  18.854  0.00  0.00    +0.000 A 
ATOM      3  S   UNL     1       3.111   7.847  17.486  0.00  0.00    +0.000 S 
ATOM      4  C   UNL     1       2.020   8.899  18.285  0.00  0.00    +0.000 A 
ATOM      5  N   UNL     1       1.502  10.066  18.032  0.00  0.00    +0.000 NA
ATOM      6  C   UNL     1       0.760  10.297  19.182  0.00  0.00    +0.000 A 
ATOM      7  N   UNL     1       0.795   9.303  20.097  0.00  0.00    +0.000 NA
ATOM      8  N   UNL     1       1.604   8.426  19.476  0.00  0.00    +0.000 N 
ATOM      9  C   UNL     1       2.063   7.197  19.896  0.00  0.00    +0.000 A 
ATOM     10  O   UNL     1       1.721   6.655  20.932  0.00  0.00    +0.000 OA
ENDROOT
BRANCH   1  16
ATOM     11  C   UNL     1       4.672   4.297  17.149  0.00  0.00    +0.000 A 
ATOM     12  C   UNL     1       5.747   3.914  16.341  0.00  0.00    +0.000 A 
ATOM     13  C   UNL     1       7.021   4.446  16.550  0.00  0.00    +0.000 A 
ATOM     14  C   UNL     1       7.230   5.373  17.565  0.00  0.00    +0.000 A 
ATOM     15  C   UNL     1       6.168   5.775  18.372  0.00  0.00    +0.000 A 
ATOM     16  C   UNL     1       4.887   5.242  18.176  0.00  0.00    +0.000 A 
BRANCH  11  17
ATOM     17  O   UNL     1       3.390   3.804  17.016  0.00  0.00    +0.000 OA
BRANCH  17  19
ATOM     18  C   UNL     1       1.778   2.535  18.282  0.00  0.00    +0.000 C 
ATOM     19  C   UNL     1       3.141   2.531  17.615  0.00  0.00    +0.000 C 
ENDBRANCH  17  19
ENDBRANCH  11  17
ENDBRANCH   1  16
BRANCH   6  20
ATOM     20  C   UNL     1      -0.012  11.559  19.387  0.00  0.00    +0.000 A 
ATOM     21  C   UNL     1       0.343  12.815  18.929  0.00  0.00    +0.000 A 
ATOM     22  C   UNL     1      -0.664  13.711  19.363  0.00  0.00    +0.000 A 
ATOM     23  C   UNL     1      -1.572  12.952  20.062  0.00  0.00    +0.000 A 
ATOM     24  O   UNL     1      -1.195  11.647  20.068  0.00  0.00    +0.000 OA
ENDBRANCH   6  20
TORSDOF 4
ENDMDL
