MODEL 1
REMARK VINA RESULT:      -8.0      0.000      0.000
REMARK  Name = 
REMARK  12 active torsions:
REMARK  status: ('A' for Active; 'I' for Inactive)
REMARK    1  A    between atoms: C_1  and  O_2
REMARK    2  A    between atoms: O_2  and  C_3
REMARK    3  A    between atoms: C_3  and  C_5
REMARK    4  A    between atoms: C_5  and  C_6
REMARK    5  A    between atoms: C_6  and  O_7
REMARK    6  A    between atoms: C_11  and  O_12
REMARK    7  A    between atoms: C_14  and  O_15
REMARK    8  A    between atoms: C_19  and  O_20
REMARK    9  A    between atoms: C_19  and  C_22
REMARK   10  A    between atoms: O_20  and  C_21
REMARK   11  A    between atoms: C_25  and  O_26
REMARK   12  A    between atoms: C_27  and  O_28
REMARK                            x       y       z     vdW  Elec       q    Type
REMARK                         _______ _______ _______ _____ _____    ______ ____
ROOT
ATOM      1  C   UNL     1       4.319   4.276  17.810  0.00  0.00    +0.000 C 
ATOM      2  C   UNL     1       3.787   4.918  19.092  0.00  0.00    +0.000 C 
ATOM      3  O   UNL     1       3.855   4.396  20.207  0.00  0.00    +0.000 OA
ATOM      4  C   UNL     1       3.156   6.237  18.961  0.00  0.00    +0.000 A 
ATOM      5  C   UNL     1       2.369   6.773  19.987  0.00  0.00    +0.000 A 
ATOM      6  C   UNL     1       1.738   8.001  19.819  0.00  0.00    +0.000 A 
ATOM      7  C   UNL     1       1.896   8.681  18.616  0.00  0.00    +0.000 A 
ATOM      8  C   UNL     1       2.679   8.157  17.588  0.00  0.00    +0.000 A 
ATOM      9  C   UNL     1       3.333   6.937  17.769  0.00  0.00    +0.000 A 
ATOM     10  O   UNL     1       4.108   6.496  16.729  0.00  0.00    +0.000 OA
ATOM     11  C   UNL     1       5.049   5.439  17.036  0.00  0.00    +0.000 C 
ENDROOT
BRANCH  11  12
ATOM     12  C   UNL     1       5.708   4.945  15.724  0.00  0.00    +0.000 A 
ATOM     13  C   UNL     1       5.046   4.070  14.835  0.00  0.00    +0.000 A 
ATOM     14  C   UNL     1       5.582   3.773  13.573  0.00  0.00    +0.000 A 
ATOM     15  C   UNL     1       6.784   4.351  13.187  0.00  0.00    +0.000 A 
ATOM     16  C   UNL     1       7.463   5.193  14.057  0.00  0.00    +0.000 A 
ATOM     17  C   UNL     1       6.948   5.481  15.313  0.00  0.00    +0.000 A 
BRANCH  15  18
ATOM     18  O   UNL     1       7.329   4.146  11.950  0.00  0.00    +0.000 OA
ATOM     19  H   UNL     1       8.077   4.759  11.839  0.00  0.00    +0.000 HD
ENDBRANCH  15  18
BRANCH  16  20
ATOM     20  O   UNL     1       8.625   5.791  13.665  0.00  0.00    +0.000 OA
ATOM     21  H   UNL     1       8.584   6.689  14.047  0.00  0.00    +0.000 HD
ENDBRANCH  16  20
ENDBRANCH  11  12
BRANCH   1  22
ATOM     22  O   UNL     1       5.237   3.237  18.197  0.00  0.00    +0.000 OA
ATOM     23  H   UNL     1       4.747   2.395  18.102  0.00  0.00    +0.000 HD
ENDBRANCH   1  22
BRANCH   5  24
ATOM     24  O   UNL     1       2.166   6.140  21.183  0.00  0.00    +0.000 OA
ATOM     25  H   UNL     1       1.554   5.382  21.033  0.00  0.00    +0.000 HD
ENDBRANCH   5  24
BRANCH   7  26
ATOM     26  O   UNL     1       1.292   9.887  18.406  0.00  0.00    +0.000 OA
ATOM     27  H   UNL     1       1.975  10.579  18.378  0.00  0.00    +0.000 HD
ENDBRANCH   7  26
BRANCH  11  28
ATOM     28  O   UNL     1       6.114   5.915  17.907  0.00  0.00    +0.000 OA
ATOM     29  C   UNL     1       6.671   7.178  17.555  0.00  0.00    +0.000 C 
ENDBRANCH  11  28
BRANCH   1  30
ATOM     30  C   UNL     1       3.165   3.655  17.018  0.00  0.00    +0.000 C 
BRANCH  30  31
ATOM     31  C   UNL     1       2.500   2.528  17.777  0.00  0.00    +0.000 C 
ATOM     32  O   UNL     1       3.100   1.533  18.156  0.00  0.00    +0.000 OA
BRANCH  31  34
ATOM     33  C   UNL     1       0.793   2.828  19.367  0.00  0.00    +0.000 C 
ATOM     34  O   UNL     1       1.188   2.801  17.994  0.00  0.00    +0.000 OA
ENDBRANCH  31  34
ENDBRANCH  30  31
ENDBRANCH   1  30
TORSDOF 10
ENDMDL
MODEL 2
REMARK VINA RESULT:      -7.5      0.635      1.268
REMARK  Name = 
REMARK  12 active torsions:
REMARK  status: ('A' for Active; 'I' for Inactive)
REMARK    1  A    between atoms: C_1  and  O_2
REMARK    2  A    between atoms: O_2  and  C_3
REMARK    3  A    between atoms: C_3  and  C_5
REMARK    4  A    between atoms: C_5  and  C_6
REMARK    5  A    between atoms: C_6  and  O_7
REMARK    6  A    between atoms: C_11  and  O_12
REMARK    7  A    between atoms: C_14  and  O_15
REMARK    8  A    between atoms: C_19  and  O_20
REMARK    9  A    between atoms: C_19  and  C_22
REMARK   10  A    between atoms: O_20  and  C_21
REMARK   11  A    between atoms: C_25  and  O_26
REMARK   12  A    between atoms: C_27  and  O_28
REMARK                            x       y       z     vdW  Elec       q    Type
REMARK                         _______ _______ _______ _____ _____    ______ ____
ROOT
ATOM      1  C   UNL     1       4.339   4.347  17.647  0.00  0.00    +0.000 C 
ATOM      2  C   UNL     1       3.837   4.892  18.985  0.00  0.00    +0.000 C 
ATOM      3  O   UNL     1       3.955   4.301  20.060  0.00  0.00    +0.000 OA
ATOM      4  C   UNL     1       3.172   6.201  18.960  0.00  0.00    +0.000 A 
ATOM      5  C   UNL     1       2.409   6.651  20.044  0.00  0.00    +0.000 A 
ATOM      6  C   UNL     1       1.746   7.871  19.977  0.00  0.00    +0.000 A 
ATOM      7  C   UNL     1       1.847   8.630  18.815  0.00  0.00    +0.000 A 
ATOM      8  C   UNL     1       2.607   8.193  17.731  0.00  0.00    +0.000 A 
ATOM      9  C   UNL     1       3.294   6.980  17.811  0.00  0.00    +0.000 A 
ATOM     10  O   UNL     1       4.042   6.626  16.720  0.00  0.00    +0.000 OA
ATOM     11  C   UNL     1       5.017   5.575  16.927  0.00  0.00    +0.000 C 
ENDROOT
BRANCH  11  12
ATOM     12  C   UNL     1       5.641   5.183  15.565  0.00  0.00    +0.000 A 
ATOM     13  C   UNL     1       7.035   5.215  15.341  0.00  0.00    +0.000 A 
ATOM     14  C   UNL     1       7.596   4.692  14.166  0.00  0.00    +0.000 A 
ATOM     15  C   UNL     1       6.768   4.129  13.205  0.00  0.00    +0.000 A 
ATOM     16  C   UNL     1       5.393   4.112  13.394  0.00  0.00    +0.000 A 
ATOM     17  C   UNL     1       4.828   4.641  14.547  0.00  0.00    +0.000 A 
BRANCH  15  18
ATOM     18  O   UNL     1       7.257   3.552  12.066  0.00  0.00    +0.000 OA
ATOM     19  H   UNL     1       6.580   3.623  11.371  0.00  0.00    +0.000 HD
ENDBRANCH  15  18
BRANCH  16  20
ATOM     20  O   UNL     1       4.580   3.526  12.468  0.00  0.00    +0.000 OA
ATOM     21  H   UNL     1       4.061   4.263  12.090  0.00  0.00    +0.000 HD
ENDBRANCH  16  20
ENDBRANCH  11  12
BRANCH   1  22
ATOM     22  O   UNL     1       5.292   3.309  17.935  0.00  0.00    +0.000 OA
ATOM     23  H   UNL     1       4.997   2.523  17.431  0.00  0.00    +0.000 HD
ENDBRANCH   1  22
BRANCH   5  24
ATOM     24  O   UNL     1       2.261   5.937  21.201  0.00  0.00    +0.000 OA
ATOM     25  H   UNL     1       1.553   5.266  21.064  0.00  0.00    +0.000 HD
ENDBRANCH   5  24
BRANCH   7  26
ATOM     26  O   UNL     1       1.210   9.832  18.704  0.00  0.00    +0.000 OA
ATOM     27  H   UNL     1       1.720  10.504  19.189  0.00  0.00    +0.000 HD
ENDBRANCH   7  26
BRANCH  11  28
ATOM     28  O   UNL     1       6.099   6.020  17.792  0.00  0.00    +0.000 OA
ATOM     29  C   UNL     1       6.640   7.301  17.483  0.00  0.00    +0.000 C 
ENDBRANCH  11  28
BRANCH   1  30
ATOM     30  C   UNL     1       3.173   3.750  16.854  0.00  0.00    +0.000 C 
BRANCH  30  31
ATOM     31  C   UNL     1       2.489   2.633  17.609  0.00  0.00    +0.000 C 
ATOM     32  O   UNL     1       3.056   1.600  17.933  0.00  0.00    +0.000 OA
BRANCH  31  34
ATOM     33  C   UNL     1       0.823   2.805  19.260  0.00  0.00    +0.000 C 
ATOM     34  O   UNL     1       1.202   2.959  17.891  0.00  0.00    +0.000 OA
ENDBRANCH  31  34
ENDBRANCH  30  31
ENDBRANCH   1  30
TORSDOF 10
ENDMDL
MODEL 3
REMARK VINA RESULT:      -7.4      1.197      1.455
REMARK  Name = 
REMARK  12 active torsions:
REMARK  status: ('A' for Active; 'I' for Inactive)
REMARK    1  A    between atoms: C_1  and  O_2
REMARK    2  A    between atoms: O_2  and  C_3
REMARK    3  A    between atoms: C_3  and  C_5
REMARK    4  A    between atoms: C_5  and  C_6
REMARK    5  A    between atoms: C_6  and  O_7
REMARK    6  A    between atoms: C_11  and  O_12
REMARK    7  A    between atoms: C_14  and  O_15
REMARK    8  A    between atoms: C_19  and  O_20
REMARK    9  A    between atoms: C_19  and  C_22
REMARK   10  A    between atoms: O_20  and  C_21
REMARK   11  A    between atoms: C_25  and  O_26
REMARK   12  A    between atoms: C_27  and  O_28
REMARK                            x       y       z     vdW  Elec       q    Type
REMARK                         _______ _______ _______ _____ _____    ______ ____
ROOT
ATOM      1  C   UNL     1       3.286   4.995  18.698  0.00  0.00    +0.000 C 
ATOM      2  C   UNL     1       2.700   5.908  19.776  0.00  0.00    +0.000 C 
ATOM      3  O   UNL     1       2.522   5.568  20.947  0.00  0.00    +0.000 OA
ATOM      4  C   UNL     1       2.331   7.268  19.364  0.00  0.00    +0.000 A 
ATOM      5  C   UNL     1       1.513   8.075  20.164  0.00  0.00    +0.000 A 
ATOM      6  C   UNL     1       1.135   9.340  19.729  0.00  0.00    +0.000 A 
ATOM      7  C   UNL     1       1.572   9.784  18.486  0.00  0.00    +0.000 A 
ATOM      8  C   UNL     1       2.389   8.990  17.682  0.00  0.00    +0.000 A 
ATOM      9  C   UNL     1       2.791   7.731  18.132  0.00  0.00    +0.000 A 
ATOM     10  O   UNL     1       3.614   7.016  17.303  0.00  0.00    +0.000 OA
ATOM     11  C   UNL     1       4.307   5.894  17.902  0.00  0.00    +0.000 C 
ENDROOT
BRANCH  11  12
ATOM     12  C   UNL     1       5.046   5.102  16.795  0.00  0.00    +0.000 A 
ATOM     13  C   UNL     1       4.531   3.901  16.260  0.00  0.00    +0.000 A 
ATOM     14  C   UNL     1       5.119   3.291  15.142  0.00  0.00    +0.000 A 
ATOM     15  C   UNL     1       6.227   3.878  14.547  0.00  0.00    +0.000 A 
ATOM     16  C   UNL     1       6.765   5.045  15.074  0.00  0.00    +0.000 A 
ATOM     17  C   UNL     1       6.199   5.647  16.189  0.00  0.00    +0.000 A 
BRANCH  15  18
ATOM     18  O   UNL     1       6.811   3.365  13.422  0.00  0.00    +0.000 OA
ATOM     19  H   UNL     1       7.752   3.205  13.610  0.00  0.00    +0.000 HD
ENDBRANCH  15  18
BRANCH  16  20
ATOM     20  O   UNL     1       7.831   5.643  14.468  0.00  0.00    +0.000 OA
ATOM     21  H   UNL     1       7.580   5.705  13.526  0.00  0.00    +0.000 HD
ENDBRANCH  16  20
ENDBRANCH  11  12
BRANCH   1  22
ATOM     22  O   UNL     1       3.948   3.907  19.368  0.00  0.00    +0.000 OA
ATOM     23  H   UNL     1       3.294   3.539  19.996  0.00  0.00    +0.000 HD
ENDBRANCH   1  22
BRANCH   5  24
ATOM     24  O   UNL     1       1.041   7.680  21.386  0.00  0.00    +0.000 OA
ATOM     25  H   UNL     1       0.731   8.479  21.871  0.00  0.00    +0.000 HD
ENDBRANCH   5  24
BRANCH   7  26
ATOM     26  O   UNL     1       1.221  11.017  18.017  0.00  0.00    +0.000 OA
ATOM     27  H   UNL     1       1.320  11.024  17.048  0.00  0.00    +0.000 HD
ENDBRANCH   7  26
BRANCH  11  28
ATOM     28  O   UNL     1       5.306   6.340  18.861  0.00  0.00    +0.000 OA
ATOM     29  C   UNL     1       6.334   5.398  19.154  0.00  0.00    +0.000 C 
ENDBRANCH  11  28
BRANCH   1  30
ATOM     30  C   UNL     1       2.164   4.433  17.820  0.00  0.00    +0.000 C 
BRANCH  30  31
ATOM     31  C   UNL     1       1.718   3.064  18.280  0.00  0.00    +0.000 C 
ATOM     32  O   UNL     1       2.175   2.025  17.827  0.00  0.00    +0.000 OA
BRANCH  31  34
ATOM     33  C   UNL     1       1.139   2.535  20.498  0.00  0.00    +0.000 C 
ATOM     34  O   UNL     1       0.788   3.165  19.264  0.00  0.00    +0.000 OA
ENDBRANCH  31  34
ENDBRANCH  30  31
ENDBRANCH   1  30
TORSDOF 10
ENDMDL
MODEL 4
REMARK VINA RESULT:      -6.9      2.538      5.152
REMARK  Name = 
REMARK  12 active torsions:
REMARK  status: ('A' for Active; 'I' for Inactive)
REMARK    1  A    between atoms: C_1  and  O_2
REMARK    2  A    between atoms: O_2  and  C_3
REMARK    3  A    between atoms: C_3  and  C_5
REMARK    4  A    between atoms: C_5  and  C_6
REMARK    5  A    between atoms: C_6  and  O_7
REMARK    6  A    between atoms: C_11  and  O_12
REMARK    7  A    between atoms: C_14  and  O_15
REMARK    8  A    between atoms: C_19  and  O_20
REMARK    9  A    between atoms: C_19  and  C_22
REMARK   10  A    between atoms: O_20  and  C_21
REMARK   11  A    between atoms: C_25  and  O_26
REMARK   12  A    between atoms: C_27  and  O_28
REMARK                            x       y       z     vdW  Elec       q    Type
REMARK                         _______ _______ _______ _____ _____    ______ ____
ROOT
ATOM      1  C   UNL     1       4.034   5.630  17.917  0.00  0.00    +0.000 C 
ATOM      2  C   UNL     1       3.330   6.955  17.625  0.00  0.00    +0.000 C 
ATOM      3  O   UNL     1       3.427   7.570  16.562  0.00  0.00    +0.000 OA
ATOM      4  C   UNL     1       2.496   7.513  18.697  0.00  0.00    +0.000 A 
ATOM      5  C   UNL     1       2.065   8.845  18.667  0.00  0.00    +0.000 A 
ATOM      6  C   UNL     1       1.319   9.365  19.719  0.00  0.00    +0.000 A 
ATOM      7  C   UNL     1       1.019   8.546  20.802  0.00  0.00    +0.000 A 
ATOM      8  C   UNL     1       1.442   7.218  20.842  0.00  0.00    +0.000 A 
ATOM      9  C   UNL     1       2.166   6.689  19.772  0.00  0.00    +0.000 A 
ATOM     10  O   UNL     1       2.526   5.371  19.866  0.00  0.00    +0.000 OA
ATOM     11  C   UNL     1       2.953   4.736  18.637  0.00  0.00    +0.000 C 
ENDROOT
BRANCH  11  12
ATOM     12  C   UNL     1       3.485   3.316  18.954  0.00  0.00    +0.000 A 
ATOM     13  C   UNL     1       3.530   2.295  17.979  0.00  0.00    +0.000 A 
ATOM     14  C   UNL     1       4.174   1.075  18.232  0.00  0.00    +0.000 A 
ATOM     15  C   UNL     1       4.781   0.865  19.463  0.00  0.00    +0.000 A 
ATOM     16  C   UNL     1       4.726   1.845  20.444  0.00  0.00    +0.000 A 
ATOM     17  C   UNL     1       4.078   3.050  20.208  0.00  0.00    +0.000 A 
BRANCH  15  18
ATOM     18  O   UNL     1       5.473  -0.279  19.750  0.00  0.00    +0.000 OA
ATOM     19  H   UNL     1       6.209  -0.052  20.344  0.00  0.00    +0.000 HD
ENDBRANCH  15  18
BRANCH  16  20
ATOM     20  O   UNL     1       5.354   1.655  21.640  0.00  0.00    +0.000 OA
ATOM     21  H   UNL     1       6.227   1.282  21.406  0.00  0.00    +0.000 HD
ENDBRANCH  16  20
ENDBRANCH  11  12
BRANCH   1  22
ATOM     22  O   UNL     1       4.433   5.066  16.654  0.00  0.00    +0.000 OA
ATOM     23  H   UNL     1       5.358   5.353  16.510  0.00  0.00    +0.000 HD
ENDBRANCH   1  22
BRANCH   5  24
ATOM     24  O   UNL     1       2.347   9.698  17.635  0.00  0.00    +0.000 OA
ATOM     25  H   UNL     1       2.272  10.622  17.967  0.00  0.00    +0.000 HD
ENDBRANCH   5  24
BRANCH   7  26
ATOM     26  O   UNL     1       0.294   9.016  21.859  0.00  0.00    +0.000 OA
ATOM     27  H   UNL     1      -0.616   8.677  21.790  0.00  0.00    +0.000 HD
ENDBRANCH   7  26
BRANCH  11  28
ATOM     28  O   UNL     1       1.846   4.588  17.704  0.00  0.00    +0.000 OA
ATOM     29  C   UNL     1       0.802   3.716  18.129  0.00  0.00    +0.000 C 
ENDBRANCH  11  28
BRANCH   1  30
ATOM     30  C   UNL     1       5.281   5.875  18.771  0.00  0.00    +0.000 C 
BRANCH  30  31
ATOM     31  C   UNL     1       6.540   5.400  18.082  0.00  0.00    +0.000 C 
ATOM     32  O   UNL     1       7.095   4.346  18.355  0.00  0.00    +0.000 OA
BRANCH  31  34
ATOM     33  C   UNL     1       7.581   7.456  17.607  0.00  0.00    +0.000 C 
ATOM     34  O   UNL     1       6.927   6.281  17.123  0.00  0.00    +0.000 OA
ENDBRANCH  31  34
ENDBRANCH  30  31
ENDBRANCH   1  30
TORSDOF 10
ENDMDL
MODEL 5
REMARK VINA RESULT:      -6.7      1.368      2.018
REMARK  Name = 
REMARK  12 active torsions:
REMARK  status: ('A' for Active; 'I' for Inactive)
REMARK    1  A    between atoms: C_1  and  O_2
REMARK    2  A    between atoms: O_2  and  C_3
REMARK    3  A    between atoms: C_3  and  C_5
REMARK    4  A    between atoms: C_5  and  C_6
REMARK    5  A    between atoms: C_6  and  O_7
REMARK    6  A    between atoms: C_11  and  O_12
REMARK    7  A    between atoms: C_14  and  O_15
REMARK    8  A    between atoms: C_19  and  O_20
REMARK    9  A    between atoms: C_19  and  C_22
REMARK   10  A    between atoms: O_20  and  C_21
REMARK   11  A    between atoms: C_25  and  O_26
REMARK   12  A    between atoms: C_27  and  O_28
REMARK                            x       y       z     vdW  Elec       q    Type
REMARK                         _______ _______ _______ _____ _____    ______ ____
ROOT
ATOM      1  C   UNL     1       3.078   5.292  18.620  0.00  0.00    +0.000 C 
ATOM      2  C   UNL     1       2.610   6.158  19.790  0.00  0.00    +0.000 C 
ATOM      3  O   UNL     1       2.569   5.776  20.961  0.00  0.00    +0.000 OA
ATOM      4  C   UNL     1       2.184   7.527  19.472  0.00  0.00    +0.000 A 
ATOM      5  C   UNL     1       1.455   8.294  20.388  0.00  0.00    +0.000 A 
ATOM      6  C   UNL     1       1.018   9.569  20.044  0.00  0.00    +0.000 A 
ATOM      7  C   UNL     1       1.308  10.062  18.777  0.00  0.00    +0.000 A 
ATOM      8  C   UNL     1       2.035   9.308  17.858  0.00  0.00    +0.000 A 
ATOM      9  C   UNL     1       2.497   8.039  18.214  0.00  0.00    +0.000 A 
ATOM     10  O   UNL     1       3.228   7.365  17.271  0.00  0.00    +0.000 OA
ATOM     11  C   UNL     1       3.994   6.232  17.747  0.00  0.00    +0.000 C 
ENDROOT
BRANCH  11  12
ATOM     12  C   UNL     1       4.610   5.489  16.536  0.00  0.00    +0.000 A 
ATOM     13  C   UNL     1       5.183   6.178  15.444  0.00  0.00    +0.000 A 
ATOM     14  C   UNL     1       5.891   5.495  14.444  0.00  0.00    +0.000 A 
ATOM     15  C   UNL     1       6.035   4.117  14.527  0.00  0.00    +0.000 A 
ATOM     16  C   UNL     1       5.457   3.418  15.578  0.00  0.00    +0.000 A 
ATOM     17  C   UNL     1       4.742   4.083  16.564  0.00  0.00    +0.000 A 
BRANCH  15  18
ATOM     18  O   UNL     1       6.761   3.401  13.615  0.00  0.00    +0.000 OA
ATOM     19  H   UNL     1       7.014   2.554  14.021  0.00  0.00    +0.000 HD
ENDBRANCH  15  18
BRANCH  16  20
ATOM     20  O   UNL     1       5.628   2.069  15.681  0.00  0.00    +0.000 OA
ATOM     21  H   UNL     1       4.955   1.781  16.328  0.00  0.00    +0.000 HD
ENDBRANCH  16  20
ENDBRANCH  11  12
BRANCH   1  22
ATOM     22  O   UNL     1       3.822   4.189  19.171  0.00  0.00    +0.000 OA
ATOM     23  H   UNL     1       3.232   3.768  19.830  0.00  0.00    +0.000 HD
ENDBRANCH   1  22
BRANCH   5  24
ATOM     24  O   UNL     1       1.127   7.851  21.640  0.00  0.00    +0.000 OA
ATOM     25  H   UNL     1       1.779   8.220  22.280  0.00  0.00    +0.000 HD
ENDBRANCH   5  24
BRANCH   7  26
ATOM     26  O   UNL     1       0.894  11.306  18.395  0.00  0.00    +0.000 OA
ATOM     27  H   UNL     1      -0.070  11.288  18.260  0.00  0.00    +0.000 HD
ENDBRANCH   7  26
BRANCH  11  28
ATOM     28  O   UNL     1       5.091   6.657  18.603  0.00  0.00    +0.000 OA
ATOM     29  C   UNL     1       6.342   6.022  18.353  0.00  0.00    +0.000 C 
ENDBRANCH  11  28
BRANCH   1  30
ATOM     30  C   UNL     1       1.869   4.746  17.855  0.00  0.00    +0.000 C 
BRANCH  30  31
ATOM     31  C   UNL     1       1.516   3.340  18.284  0.00  0.00    +0.000 C 
ATOM     32  O   UNL     1       1.909   2.344  17.695  0.00  0.00    +0.000 OA
BRANCH  31  34
ATOM     33  C   UNL     1       1.247   2.569  20.490  0.00  0.00    +0.000 C 
ATOM     34  O   UNL     1       0.750   3.355  19.405  0.00  0.00    +0.000 OA
ENDBRANCH  31  34
ENDBRANCH  30  31
ENDBRANCH   1  30
TORSDOF 10
ENDMDL
MODEL 6
REMARK VINA RESULT:      -6.6      4.969      9.475
REMARK  Name = 
REMARK  12 active torsions:
REMARK  status: ('A' for Active; 'I' for Inactive)
REMARK    1  A    between atoms: C_1  and  O_2
REMARK    2  A    between atoms: O_2  and  C_3
REMARK    3  A    between atoms: C_3  and  C_5
REMARK    4  A    between atoms: C_5  and  C_6
REMARK    5  A    between atoms: C_6  and  O_7
REMARK    6  A    between atoms: C_11  and  O_12
REMARK    7  A    between atoms: C_14  and  O_15
REMARK    8  A    between atoms: C_19  and  O_20
REMARK    9  A    between atoms: C_19  and  C_22
REMARK   10  A    between atoms: O_20  and  C_21
REMARK   11  A    between atoms: C_25  and  O_26
REMARK   12  A    between atoms: C_27  and  O_28
REMARK                            x       y       z     vdW  Elec       q    Type
REMARK                         _______ _______ _______ _____ _____    ______ ____
ROOT
ATOM      1  C   UNL     1       0.590  12.561  19.112  0.00  0.00    +0.000 C 
ATOM      2  C   UNL     1      -0.369  13.748  19.198  0.00  0.00    +0.000 C 
ATOM      3  O   UNL     1      -0.310  14.739  18.466  0.00  0.00    +0.000 OA
ATOM      4  C   UNL     1      -1.414  13.684  20.228  0.00  0.00    +0.000 A 
ATOM      5  C   UNL     1      -2.137  14.822  20.603  0.00  0.00    +0.000 A 
ATOM      6  C   UNL     1      -3.085  14.748  21.618  0.00  0.00    +0.000 A 
ATOM      7  C   UNL     1      -3.295  13.530  22.256  0.00  0.00    +0.000 A 
ATOM      8  C   UNL     1      -2.582  12.390  21.888  0.00  0.00    +0.000 A 
ATOM      9  C   UNL     1      -1.650  12.460  20.851  0.00  0.00    +0.000 A 
ATOM     10  O   UNL     1      -1.006  11.296  20.524  0.00  0.00    +0.000 OA
ATOM     11  C   UNL     1      -0.321  11.281  19.249  0.00  0.00    +0.000 C 
ENDROOT
BRANCH  11  12
ATOM     12  C   UNL     1       0.491   9.969  19.122  0.00  0.00    +0.000 A 
ATOM     13  C   UNL     1       1.139   9.599  17.922  0.00  0.00    +0.000 A 
ATOM     14  C   UNL     1       2.012   8.502  17.874  0.00  0.00    +0.000 A 
ATOM     15  C   UNL     1       2.247   7.764  19.027  0.00  0.00    +0.000 A 
ATOM     16  C   UNL     1       1.599   8.095  20.210  0.00  0.00    +0.000 A 
ATOM     17  C   UNL     1       0.722   9.170  20.263  0.00  0.00    +0.000 A 
BRANCH  15  18
ATOM     18  O   UNL     1       3.128   6.720  19.059  0.00  0.00    +0.000 OA
ATOM     19  H   UNL     1       3.954   7.028  19.472  0.00  0.00    +0.000 HD
ENDBRANCH  15  18
BRANCH  16  20
ATOM     20  O   UNL     1       1.857   7.394  21.352  0.00  0.00    +0.000 OA
ATOM     21  H   UNL     1       2.671   6.890  21.156  0.00  0.00    +0.000 HD
ENDBRANCH  16  20
ENDBRANCH  11  12
BRANCH   1  22
ATOM     22  O   UNL     1       1.234  12.619  17.827  0.00  0.00    +0.000 OA
ATOM     23  H   UNL     1       1.076  11.749  17.406  0.00  0.00    +0.000 HD
ENDBRANCH   1  22
BRANCH   5  24
ATOM     24  O   UNL     1      -1.958  16.048  20.021  0.00  0.00    +0.000 OA
ATOM     25  H   UNL     1      -2.843  16.449  19.864  0.00  0.00    +0.000 HD
ENDBRANCH   5  24
BRANCH   7  26
ATOM     26  O   UNL     1      -4.213  13.412  23.260  0.00  0.00    +0.000 OA
ATOM     27  H   UNL     1      -4.309  14.275  23.700  0.00  0.00    +0.000 HD
ENDBRANCH   7  26
BRANCH  11  28
ATOM     28  O   UNL     1      -1.264  11.320  18.141  0.00  0.00    +0.000 OA
ATOM     29  C   UNL     1      -2.216  10.261  18.112  0.00  0.00    +0.000 C 
ENDBRANCH  11  28
BRANCH   1  30
ATOM     30  C   UNL     1       1.653  12.665  20.210  0.00  0.00    +0.000 C 
BRANCH  30  31
ATOM     31  C   UNL     1       2.500  13.909  20.059  0.00  0.00    +0.000 C 
ATOM     32  O   UNL     1       2.415  14.869  20.810  0.00  0.00    +0.000 OA
BRANCH  31  34
ATOM     33  C   UNL     1       3.847  15.013  18.479  0.00  0.00    +0.000 C 
ATOM     34  O   UNL     1       3.363  13.782  19.019  0.00  0.00    +0.000 OA
ENDBRANCH  31  34
ENDBRANCH  30  31
ENDBRANCH   1  30
TORSDOF 10
ENDMDL
MODEL 7
REMARK VINA RESULT:      -6.4      6.406     11.948
REMARK  Name = 
REMARK  12 active torsions:
REMARK  status: ('A' for Active; 'I' for Inactive)
REMARK    1  A    between atoms: C_1  and  O_2
REMARK    2  A    between atoms: O_2  and  C_3
REMARK    3  A    between atoms: C_3  and  C_5
REMARK    4  A    between atoms: C_5  and  C_6
REMARK    5  A    between atoms: C_6  and  O_7
REMARK    6  A    between atoms: C_11  and  O_12
REMARK    7  A    between atoms: C_14  and  O_15
REMARK    8  A    between atoms: C_19  and  O_20
REMARK    9  A    between atoms: C_19  and  C_22
REMARK   10  A    between atoms: O_20  and  C_21
REMARK   11  A    between atoms: C_25  and  O_26
REMARK   12  A    between atoms: C_27  and  O_28
REMARK                            x       y       z     vdW  Elec       q    Type
REMARK                         _______ _______ _______ _____ _____    ______ ____
ROOT
ATOM      1  C   UNL     1      -2.274  12.496  19.898  0.00  0.00    +0.000 C 
ATOM      2  C   UNL     1      -1.040  12.008  19.138  0.00  0.00    +0.000 C 
ATOM      3  O   UNL     1      -0.675  12.456  18.050  0.00  0.00    +0.000 OA
ATOM      4  C   UNL     1      -0.259  10.932  19.763  0.00  0.00    +0.000 A 
ATOM      5  C   UNL     1       0.688  10.202  19.035  0.00  0.00    +0.000 A 
ATOM      6  C   UNL     1       1.378   9.154  19.635  0.00  0.00    +0.000 A 
ATOM      7  C   UNL     1       1.106   8.840  20.963  0.00  0.00    +0.000 A 
ATOM      8  C   UNL     1       0.167   9.563  21.697  0.00  0.00    +0.000 A 
ATOM      9  C   UNL     1      -0.505  10.632  21.102  0.00  0.00    +0.000 A 
ATOM     10  O   UNL     1      -1.394  11.314  21.890  0.00  0.00    +0.000 OA
ATOM     11  C   UNL     1      -1.817  12.610  21.402  0.00  0.00    +0.000 C 
ENDROOT
BRANCH  11  12
ATOM     12  C   UNL     1      -2.941  13.157  22.315  0.00  0.00    +0.000 A 
ATOM     13  C   UNL     1      -3.634  14.352  22.021  0.00  0.00    +0.000 A 
ATOM     14  C   UNL     1      -4.763  14.740  22.758  0.00  0.00    +0.000 A 
ATOM     15  C   UNL     1      -5.212  13.934  23.796  0.00  0.00    +0.000 A 
ATOM     16  C   UNL     1      -4.529  12.769  24.118  0.00  0.00    +0.000 A 
ATOM     17  C   UNL     1      -3.403  12.385  23.404  0.00  0.00    +0.000 A 
BRANCH  15  18
ATOM     18  O   UNL     1      -6.338  14.227  24.514  0.00  0.00    +0.000 OA
ATOM     19  H   UNL     1      -6.353  13.661  25.306  0.00  0.00    +0.000 HD
ENDBRANCH  15  18
BRANCH  16  20
ATOM     20  O   UNL     1      -4.990  11.957  25.113  0.00  0.00    +0.000 OA
ATOM     21  H   UNL     1      -5.526  11.281  24.655  0.00  0.00    +0.000 HD
ENDBRANCH  16  20
ENDBRANCH  11  12
BRANCH   1  22
ATOM     22  O   UNL     1      -2.635  13.778  19.354  0.00  0.00    +0.000 OA
ATOM     23  H   UNL     1      -2.053  13.917  18.578  0.00  0.00    +0.000 HD
ENDBRANCH   1  22
BRANCH   5  24
ATOM     24  O   UNL     1       0.981  10.457  17.724  0.00  0.00    +0.000 OA
ATOM     25  H   UNL     1       1.082  11.431  17.612  0.00  0.00    +0.000 HD
ENDBRANCH   5  24
BRANCH   7  26
ATOM     26  O   UNL     1       1.756   7.817  21.590  0.00  0.00    +0.000 OA
ATOM     27  H   UNL     1       2.352   8.190  22.264  0.00  0.00    +0.000 HD
ENDBRANCH   7  26
BRANCH  11  28
ATOM     28  O   UNL     1      -0.723  13.570  21.434  0.00  0.00    +0.000 OA
ATOM     29  C   UNL     1      -0.319  13.992  22.733  0.00  0.00    +0.000 C 
ENDBRANCH  11  28
BRANCH   1  30
ATOM     30  C   UNL     1      -3.436  11.520  19.692  0.00  0.00    +0.000 C 
BRANCH  30  31
ATOM     31  C   UNL     1      -4.355  11.963  18.575  0.00  0.00    +0.000 C 
ATOM     32  O   UNL     1      -4.110  11.770  17.394  0.00  0.00    +0.000 OA
BRANCH  31  34
ATOM     33  C   UNL     1      -5.906  12.058  20.341  0.00  0.00    +0.000 C 
ATOM     34  O   UNL     1      -5.469  12.556  19.074  0.00  0.00    +0.000 OA
ENDBRANCH  31  34
ENDBRANCH  30  31
ENDBRANCH   1  30
TORSDOF 10
ENDMDL
MODEL 8
REMARK VINA RESULT:      -6.4      5.130      9.179
REMARK  Name = 
REMARK  12 active torsions:
REMARK  status: ('A' for Active; 'I' for Inactive)
REMARK    1  A    between atoms: C_1  and  O_2
REMARK    2  A    between atoms: O_2  and  C_3
REMARK    3  A    between atoms: C_3  and  C_5
REMARK    4  A    between atoms: C_5  and  C_6
REMARK    5  A    between atoms: C_6  and  O_7
REMARK    6  A    between atoms: C_11  and  O_12
REMARK    7  A    between atoms: C_14  and  O_15
REMARK    8  A    between atoms: C_19  and  O_20
REMARK    9  A    between atoms: C_19  and  C_22
REMARK   10  A    between atoms: O_20  and  C_21
REMARK   11  A    between atoms: C_25  and  O_26
REMARK   12  A    between atoms: C_27  and  O_28
REMARK                            x       y       z     vdW  Elec       q    Type
REMARK                         _______ _______ _______ _____ _____    ______ ____
ROOT
ATOM      1  C   UNL     1      -0.963  12.289  19.309  0.00  0.00    +0.000 C 
ATOM      2  C   UNL     1      -1.235  13.744  19.691  0.00  0.00    +0.000 C 
ATOM      3  O   UNL     1      -2.205  14.116  20.354  0.00  0.00    +0.000 OA
ATOM      4  C   UNL     1      -0.267  14.745  19.222  0.00  0.00    +0.000 A 
ATOM      5  C   UNL     1      -0.567  16.112  19.239  0.00  0.00    +0.000 A 
ATOM      6  C   UNL     1       0.345  17.036  18.742  0.00  0.00    +0.000 A 
ATOM      7  C   UNL     1       1.552  16.580  18.222  0.00  0.00    +0.000 A 
ATOM      8  C   UNL     1       1.862  15.221  18.203  0.00  0.00    +0.000 A 
ATOM      9  C   UNL     1       0.956  14.297  18.728  0.00  0.00    +0.000 A 
ATOM     10  O   UNL     1       1.337  12.981  18.701  0.00  0.00    +0.000 OA
ATOM     11  C   UNL     1       0.581  12.080  19.545  0.00  0.00    +0.000 C 
ENDROOT
BRANCH  11  12
ATOM     12  C   UNL     1       1.024  10.623  19.261  0.00  0.00    +0.000 A 
ATOM     13  C   UNL     1       1.616  10.243  18.036  0.00  0.00    +0.000 A 
ATOM     14  C   UNL     1       2.170   8.966  17.861  0.00  0.00    +0.000 A 
ATOM     15  C   UNL     1       2.140   8.057  18.910  0.00  0.00    +0.000 A 
ATOM     16  C   UNL     1       1.539   8.402  20.113  0.00  0.00    +0.000 A 
ATOM     17  C   UNL     1       0.975   9.658  20.291  0.00  0.00    +0.000 A 
BRANCH  15  18
ATOM     18  O   UNL     1       2.712   6.819  18.820  0.00  0.00    +0.000 OA
ATOM     19  H   UNL     1       3.104   6.599  19.684  0.00  0.00    +0.000 HD
ENDBRANCH  15  18
BRANCH  16  20
ATOM     20  O   UNL     1       1.541   7.524  21.157  0.00  0.00    +0.000 OA
ATOM     21  H   UNL     1       1.024   6.758  20.839  0.00  0.00    +0.000 HD
ENDBRANCH  16  20
ENDBRANCH  11  12
BRANCH   1  22
ATOM     22  O   UNL     1      -1.751  11.460  20.182  0.00  0.00    +0.000 OA
ATOM     23  H   UNL     1      -1.154  10.747  20.489  0.00  0.00    +0.000 HD
ENDBRANCH   1  22
BRANCH   5  24
ATOM     24  O   UNL     1      -1.745  16.613  19.722  0.00  0.00    +0.000 OA
ATOM     25  H   UNL     1      -1.599  17.551  19.984  0.00  0.00    +0.000 HD
ENDBRANCH   5  24
BRANCH   7  26
ATOM     26  O   UNL     1       2.475  17.451  17.720  0.00  0.00    +0.000 OA
ATOM     27  H   UNL     1       2.893  17.927  18.460  0.00  0.00    +0.000 HD
ENDBRANCH   7  26
BRANCH  11  28
ATOM     28  O   UNL     1       0.827  12.343  20.955  0.00  0.00    +0.000 OA
ATOM     29  C   UNL     1       2.076  12.963  21.252  0.00  0.00    +0.000 C 
ENDBRANCH  11  28
BRANCH   1  30
ATOM     30  C   UNL     1      -1.392  12.038  17.860  0.00  0.00    +0.000 C 
BRANCH  30  31
ATOM     31  C   UNL     1      -2.505  11.019  17.769  0.00  0.00    +0.000 C 
ATOM     32  O   UNL     1      -2.306   9.825  17.605  0.00  0.00    +0.000 OA
BRANCH  31  34
ATOM     33  C   UNL     1      -4.579  11.540  16.789  0.00  0.00    +0.000 C 
ATOM     34  O   UNL     1      -3.716  11.613  17.926  0.00  0.00    +0.000 OA
ENDBRANCH  31  34
ENDBRANCH  30  31
ENDBRANCH   1  30
TORSDOF 10
ENDMDL
MODEL 9
REMARK VINA RESULT:      -6.4      7.345     12.680
REMARK  Name = 
REMARK  12 active torsions:
REMARK  status: ('A' for Active; 'I' for Inactive)
REMARK    1  A    between atoms: C_1  and  O_2
REMARK    2  A    between atoms: O_2  and  C_3
REMARK    3  A    between atoms: C_3  and  C_5
REMARK    4  A    between atoms: C_5  and  C_6
REMARK    5  A    between atoms: C_6  and  O_7
REMARK    6  A    between atoms: C_11  and  O_12
REMARK    7  A    between atoms: C_14  and  O_15
REMARK    8  A    between atoms: C_19  and  O_20
REMARK    9  A    between atoms: C_19  and  C_22
REMARK   10  A    between atoms: O_20  and  C_21
REMARK   11  A    between atoms: C_25  and  O_26
REMARK   12  A    between atoms: C_27  and  O_28
REMARK                            x       y       z     vdW  Elec       q    Type
REMARK                         _______ _______ _______ _____ _____    ______ ____
ROOT
ATOM      1  C   UNL     1      -1.055  13.900  22.210  0.00  0.00    +0.000 C 
ATOM      2  C   UNL     1       0.371  13.685  21.703  0.00  0.00    +0.000 C 
ATOM      3  O   UNL     1       1.357  14.285  22.136  0.00  0.00    +0.000 OA
ATOM      4  C   UNL     1       0.551  12.702  20.627  0.00  0.00    +0.000 A 
ATOM      5  C   UNL     1       1.734  12.647  19.881  0.00  0.00    +0.000 A 
ATOM      6  C   UNL     1       1.861  11.741  18.833  0.00  0.00    +0.000 A 
ATOM      7  C   UNL     1       0.794  10.900  18.536  0.00  0.00    +0.000 A 
ATOM      8  C   UNL     1      -0.387  10.944  19.275  0.00  0.00    +0.000 A 
ATOM      9  C   UNL     1      -0.503  11.835  20.343  0.00  0.00    +0.000 A 
ATOM     10  O   UNL     1      -1.681  11.806  21.042  0.00  0.00    +0.000 OA
ATOM     11  C   UNL     1      -1.672  12.455  22.337  0.00  0.00    +0.000 C 
ENDROOT
BRANCH  11  12
ATOM     12  C   UNL     1      -3.113  12.482  22.903  0.00  0.00    +0.000 A 
ATOM     13  C   UNL     1      -3.378  12.395  24.288  0.00  0.00    +0.000 A 
ATOM     14  C   UNL     1      -4.670  12.597  24.796  0.00  0.00    +0.000 A 
ATOM     15  C   UNL     1      -5.710  12.890  23.924  0.00  0.00    +0.000 A 
ATOM     16  C   UNL     1      -5.476  12.954  22.558  0.00  0.00    +0.000 A 
ATOM     17  C   UNL     1      -4.204  12.740  22.044  0.00  0.00    +0.000 A 
BRANCH  15  18
ATOM     18  O   UNL     1      -6.978  13.153  24.362  0.00  0.00    +0.000 OA
ATOM     19  H   UNL     1      -6.922  13.767  25.115  0.00  0.00    +0.000 HD
ENDBRANCH  15  18
BRANCH  16  20
ATOM     20  O   UNL     1      -6.488  13.278  21.703  0.00  0.00    +0.000 OA
ATOM     21  H   UNL     1      -6.371  14.233  21.529  0.00  0.00    +0.000 HD
ENDBRANCH  16  20
ENDBRANCH  11  12
BRANCH   1  22
ATOM     22  O   UNL     1      -0.963  14.552  23.490  0.00  0.00    +0.000 OA
ATOM     23  H   UNL     1      -0.062  14.931  23.536  0.00  0.00    +0.000 HD
ENDBRANCH   1  22
BRANCH   5  24
ATOM     24  O   UNL     1       2.806  13.462  20.119  0.00  0.00    +0.000 OA
ATOM     25  H   UNL     1       3.450  12.973  20.682  0.00  0.00    +0.000 HD
ENDBRANCH   5  24
BRANCH   7  26
ATOM     26  O   UNL     1       0.873   9.999  17.514  0.00  0.00    +0.000 OA
ATOM     27  H   UNL     1       0.740  10.468  16.671  0.00  0.00    +0.000 HD
ENDBRANCH   7  26
BRANCH  11  28
ATOM     28  O   UNL     1      -0.843  11.729  23.287  0.00  0.00    +0.000 OA
ATOM     29  C   UNL     1      -0.884  10.309  23.173  0.00  0.00    +0.000 C 
ENDBRANCH  11  28
BRANCH   1  30
ATOM     30  C   UNL     1      -1.826  14.803  21.243  0.00  0.00    +0.000 C 
BRANCH  30  31
ATOM     31  C   UNL     1      -2.137  16.150  21.855  0.00  0.00    +0.000 C 
ATOM     32  O   UNL     1      -1.380  17.107  21.785  0.00  0.00    +0.000 OA
BRANCH  31  34
ATOM     33  C   UNL     1      -4.454  16.450  21.576  0.00  0.00    +0.000 C 
ATOM     34  O   UNL     1      -3.361  16.141  22.443  0.00  0.00    +0.000 OA
ENDBRANCH  31  34
ENDBRANCH  30  31
ENDBRANCH   1  30
TORSDOF 10
ENDMDL
