MODEL 1
REMARK VINA RESULT:      -8.2      0.000      0.000
REMARK  Name = 
REMARK  8 active torsions:
REMARK  status: ('A' for Active; 'I' for Inactive)
REMARK    1  A    between atoms: C_1  and  C_2
REMARK    2  A    between atoms: C_2  and  O_3
REMARK    3  A    between atoms: O_3  and  C_4
REMARK    4  A    between atoms: C_4  and  C_6
REMARK    5  A    between atoms: C_10  and  C_11
REMARK    6  A    between atoms: N_14  and  C_15
REMARK    7  A    between atoms: C_15  and  C_16
REMARK    8  A    between atoms: N_18  and  C_19
REMARK                            x       y       z     vdW  Elec       q    Type
REMARK                         _______ _______ _______ _____ _____    ______ ____
ROOT
ATOM      1  C   UNL     1       7.421   6.012  17.842  0.00  0.00    +0.000 C 
ENDROOT
BRANCH   1  10
ATOM      2  C   UNL     1       5.926   4.930  16.102  0.00  0.00    +0.000 A 
ATOM      3  C   UNL     1       4.576   4.616  16.011  0.00  0.00    +0.000 A 
ATOM      4  C   UNL     1       4.030   4.802  17.301  0.00  0.00    +0.000 A 
ATOM      5  S   UNL     1       2.506   4.618  18.092  0.00  0.00    +0.000 S 
ATOM      6  C   UNL     1       3.236   5.027  19.587  0.00  0.00    +0.000 A 
ATOM      7  C   UNL     1       2.422   4.983  20.838  0.00  0.00    +0.000 C 
ATOM      8  C   UNL     1       4.569   5.372  19.477  0.00  0.00    +0.000 A 
ATOM      9  C   UNL     1       5.019   5.245  18.129  0.00  0.00    +0.000 A 
ATOM     10  N   UNL     1       6.170   5.417  17.381  0.00  0.00    +0.000 N 
BRANCH   2  11
ATOM     11  C   UNL     1       6.906   4.833  15.037  0.00  0.00    +0.000 C 
ATOM     12  O   UNL     1       7.820   5.619  14.834  0.00  0.00    +0.000 OA
BRANCH  11  13
ATOM     13  O   UNL     1       6.590   3.773  14.240  0.00  0.00    +0.000 OA
BRANCH  13  15
ATOM     14  C   UNL     1       5.619   3.133  12.162  0.00  0.00    +0.000 C 
ATOM     15  C   UNL     1       6.662   4.010  12.832  0.00  0.00    +0.000 C 
ENDBRANCH  13  15
ENDBRANCH  11  13
ENDBRANCH   2  11
ENDBRANCH   1  10
BRANCH   1  16
ATOM     16  C   UNL     1       7.527   7.522  17.749  0.00  0.00    +0.000 C 
ATOM     17  O   UNL     1       6.819   8.132  16.949  0.00  0.00    +0.000 OA
ATOM     18  N   UNL     1       8.480   8.103  18.586  0.00  0.00    +0.000 N 
ATOM     19  H   UNL     1       9.115   7.483  19.077  0.00  0.00    +0.000 HD
BRANCH  18  20
ATOM     20  C   UNL     1       8.750   9.494  18.693  0.00  0.00    +0.000 A 
ATOM     21  C   UNL     1       8.533  10.388  17.638  0.00  0.00    +0.000 A 
ATOM     22  C   UNL     1       8.809  11.751  17.774  0.00  0.00    +0.000 A 
ATOM     23  C   UNL     1       9.311  12.242  18.969  0.00  0.00    +0.000 A 
ATOM     24  C   UNL     1       9.511  11.374  20.046  0.00  0.00    +0.000 A 
ATOM     25  C   UNL     1       9.238  10.004  19.908  0.00  0.00    +0.000 A 
ATOM     26  O   UNL     1       9.987  11.803  21.261  0.00  0.00    +0.000 OA
ATOM     27  C   UNL     1       9.900  13.230  21.391  0.00  0.00    +0.000 C 
ATOM     28  C   UNL     1      10.388  13.929  20.133  0.00  0.00    +0.000 C 
ATOM     29  O   UNL     1       9.566  13.587  19.015  0.00  0.00    +0.000 OA
ENDBRANCH  18  20
ENDBRANCH   1  16
TORSDOF 6
ENDMDL
MODEL 2
REMARK VINA RESULT:      -8.0      5.149      7.475
REMARK  Name = 
REMARK  8 active torsions:
REMARK  status: ('A' for Active; 'I' for Inactive)
REMARK    1  A    between atoms: C_1  and  C_2
REMARK    2  A    between atoms: C_2  and  O_3
REMARK    3  A    between atoms: O_3  and  C_4
REMARK    4  A    between atoms: C_4  and  C_6
REMARK    5  A    between atoms: C_10  and  C_11
REMARK    6  A    between atoms: N_14  and  C_15
REMARK    7  A    between atoms: C_15  and  C_16
REMARK    8  A    between atoms: N_18  and  C_19
REMARK                            x       y       z     vdW  Elec       q    Type
REMARK                         _______ _______ _______ _____ _____    ______ ____
ROOT
ATOM      1  C   UNL     1       3.029   5.617  19.854  0.00  0.00    +0.000 C 
ENDROOT
BRANCH   1  10
ATOM      2  C   UNL     1       3.364   3.920  18.000  0.00  0.00    +0.000 A 
ATOM      3  C   UNL     1       4.389   3.603  17.118  0.00  0.00    +0.000 A 
ATOM      4  C   UNL     1       5.346   4.638  17.222  0.00  0.00    +0.000 A 
ATOM      5  S   UNL     1       6.853   5.073  16.501  0.00  0.00    +0.000 S 
ATOM      6  C   UNL     1       6.851   6.539  17.389  0.00  0.00    +0.000 A 
ATOM      7  C   UNL     1       7.941   7.534  17.166  0.00  0.00    +0.000 C 
ATOM      8  C   UNL     1       5.788   6.655  18.263  0.00  0.00    +0.000 A 
ATOM      9  C   UNL     1       4.918   5.529  18.161  0.00  0.00    +0.000 A 
ATOM     10  N   UNL     1       3.744   5.049  18.715  0.00  0.00    +0.000 N 
BRANCH   2  11
ATOM     11  C   UNL     1       2.135   3.174  18.196  0.00  0.00    +0.000 C 
ATOM     12  O   UNL     1       1.093   3.339  17.579  0.00  0.00    +0.000 OA
BRANCH  11  13
ATOM     13  O   UNL     1       2.299   2.319  19.245  0.00  0.00    +0.000 OA
BRANCH  13  15
ATOM     14  C   UNL     1       2.084   2.593  21.601  0.00  0.00    +0.000 C 
ATOM     15  C   UNL     1       1.332   2.426  20.293  0.00  0.00    +0.000 C 
ENDBRANCH  13  15
ENDBRANCH  11  13
ENDBRANCH   2  11
ENDBRANCH   1  10
BRANCH   1  16
ATOM     16  C   UNL     1       2.312   6.931  19.617  0.00  0.00    +0.000 C 
ATOM     17  O   UNL     1       2.230   7.379  18.474  0.00  0.00    +0.000 OA
ATOM     18  N   UNL     1       1.824   7.557  20.764  0.00  0.00    +0.000 N 
ATOM     19  H   UNL     1       2.099   7.175  21.661  0.00  0.00    +0.000 HD
BRANCH  18  20
ATOM     20  C   UNL     1       1.103   8.782  20.795  0.00  0.00    +0.000 A 
ATOM     21  C   UNL     1       0.846   9.536  19.644  0.00  0.00    +0.000 A 
ATOM     22  C   UNL     1       0.136  10.737  19.707  0.00  0.00    +0.000 A 
ATOM     23  C   UNL     1      -0.328  11.206  20.927  0.00  0.00    +0.000 A 
ATOM     24  C   UNL     1      -0.107  10.459  22.087  0.00  0.00    +0.000 A 
ATOM     25  C   UNL     1       0.611   9.254  22.023  0.00  0.00    +0.000 A 
ATOM     26  O   UNL     1      -0.557  10.860  23.321  0.00  0.00    +0.000 OA
ATOM     27  C   UNL     1      -1.549  11.893  23.213  0.00  0.00    +0.000 C 
ATOM     28  C   UNL     1      -1.129  12.957  22.212  0.00  0.00    +0.000 C 
ATOM     29  O   UNL     1      -1.004  12.397  20.903  0.00  0.00    +0.000 OA
ENDBRANCH  18  20
ENDBRANCH   1  16
TORSDOF 6
ENDMDL
MODEL 3
REMARK VINA RESULT:      -8.0      3.751      6.764
REMARK  Name = 
REMARK  8 active torsions:
REMARK  status: ('A' for Active; 'I' for Inactive)
REMARK    1  A    between atoms: C_1  and  C_2
REMARK    2  A    between atoms: C_2  and  O_3
REMARK    3  A    between atoms: O_3  and  C_4
REMARK    4  A    between atoms: C_4  and  C_6
REMARK    5  A    between atoms: C_10  and  C_11
REMARK    6  A    between atoms: N_14  and  C_15
REMARK    7  A    between atoms: C_15  and  C_16
REMARK    8  A    between atoms: N_18  and  C_19
REMARK                            x       y       z     vdW  Elec       q    Type
REMARK                         _______ _______ _______ _____ _____    ______ ____
ROOT
ATOM      1  C   UNL     1       4.826   3.690  17.198  0.00  0.00    +0.000 C 
ENDROOT
BRANCH   1  10
ATOM      2  C   UNL     1       6.991   4.818  16.511  0.00  0.00    +0.000 A 
ATOM      3  C   UNL     1       7.565   5.214  15.311  0.00  0.00    +0.000 A 
ATOM      4  C   UNL     1       6.782   4.646  14.281  0.00  0.00    +0.000 A 
ATOM      5  S   UNL     1       6.778   4.580  12.555  0.00  0.00    +0.000 S 
ATOM      6  C   UNL     1       5.441   3.509  12.603  0.00  0.00    +0.000 A 
ATOM      7  C   UNL     1       4.917   2.933  11.329  0.00  0.00    +0.000 C 
ATOM      8  C   UNL     1       4.962   3.277  13.878  0.00  0.00    +0.000 A 
ATOM      9  C   UNL     1       5.752   3.958  14.851  0.00  0.00    +0.000 A 
ATOM     10  N   UNL     1       5.816   4.133  16.222  0.00  0.00    +0.000 N 
BRANCH   2  11
ATOM     11  C   UNL     1       7.485   5.115  17.843  0.00  0.00    +0.000 C 
ATOM     12  O   UNL     1       8.118   4.351  18.557  0.00  0.00    +0.000 OA
BRANCH  11  13
ATOM     13  O   UNL     1       7.050   6.353  18.210  0.00  0.00    +0.000 OA
BRANCH  13  15
ATOM     14  C   UNL     1       7.818   8.520  17.588  0.00  0.00    +0.000 C 
ATOM     15  C   UNL     1       8.070   7.317  18.481  0.00  0.00    +0.000 C 
ENDBRANCH  13  15
ENDBRANCH  11  13
ENDBRANCH   2  11
ENDBRANCH   1  10
BRANCH   1  16
ATOM     16  C   UNL     1       3.686   4.647  17.490  0.00  0.00    +0.000 C 
ATOM     17  O   UNL     1       2.532   4.313  17.230  0.00  0.00    +0.000 OA
ATOM     18  N   UNL     1       4.068   5.883  18.013  0.00  0.00    +0.000 N 
ATOM     19  H   UNL     1       5.058   6.102  18.027  0.00  0.00    +0.000 HD
BRANCH  18  20
ATOM     20  C   UNL     1       3.186   6.933  18.384  0.00  0.00    +0.000 A 
ATOM     21  C   UNL     1       2.858   7.984  17.519  0.00  0.00    +0.000 A 
ATOM     22  C   UNL     1       1.988   9.003  17.913  0.00  0.00    +0.000 A 
ATOM     23  C   UNL     1       1.431   8.989  19.183  0.00  0.00    +0.000 A 
ATOM     24  C   UNL     1       1.722   7.937  20.055  0.00  0.00    +0.000 A 
ATOM     25  C   UNL     1       2.600   6.915  19.661  0.00  0.00    +0.000 A 
ATOM     26  O   UNL     1       1.187   7.855  21.318  0.00  0.00    +0.000 OA
ATOM     27  C   UNL     1       0.066   8.739  21.477  0.00  0.00    +0.000 C 
ATOM     28  C   UNL     1       0.362  10.114  20.901  0.00  0.00    +0.000 C 
ATOM     29  O   UNL     1       0.598  10.031  19.494  0.00  0.00    +0.000 OA
ENDBRANCH  18  20
ENDBRANCH   1  16
TORSDOF 6
ENDMDL
MODEL 4
REMARK VINA RESULT:      -7.8      4.852      6.651
REMARK  Name = 
REMARK  8 active torsions:
REMARK  status: ('A' for Active; 'I' for Inactive)
REMARK    1  A    between atoms: C_1  and  C_2
REMARK    2  A    between atoms: C_2  and  O_3
REMARK    3  A    between atoms: O_3  and  C_4
REMARK    4  A    between atoms: C_4  and  C_6
REMARK    5  A    between atoms: C_10  and  C_11
REMARK    6  A    between atoms: N_14  and  C_15
REMARK    7  A    between atoms: C_15  and  C_16
REMARK    8  A    between atoms: N_18  and  C_19
REMARK                            x       y       z     vdW  Elec       q    Type
REMARK                         _______ _______ _______ _____ _____    ______ ____
ROOT
ATOM      1  C   UNL     1       2.416   5.916  17.819  0.00  0.00    +0.000 C 
ENDROOT
BRANCH   1  10
ATOM      2  C   UNL     1       3.853   3.879  18.285  0.00  0.00    +0.000 A 
ATOM      3  C   UNL     1       5.193   3.655  18.572  0.00  0.00    +0.000 A 
ATOM      4  C   UNL     1       5.865   4.875  18.341  0.00  0.00    +0.000 A 
ATOM      5  S   UNL     1       7.480   5.486  18.400  0.00  0.00    +0.000 S 
ATOM      6  C   UNL     1       6.931   6.988  17.783  0.00  0.00    +0.000 A 
ATOM      7  C   UNL     1       7.920   8.064  17.483  0.00  0.00    +0.000 C 
ATOM      8  C   UNL     1       5.560   7.051  17.617  0.00  0.00    +0.000 A 
ATOM      9  C   UNL     1       4.948   5.809  17.958  0.00  0.00    +0.000 A 
ATOM     10  N   UNL     1       3.691   5.232  18.010  0.00  0.00    +0.000 N 
BRANCH   2  11
ATOM     11  C   UNL     1       2.787   2.895  18.324  0.00  0.00    +0.000 C 
ATOM     12  O   UNL     1       2.091   2.557  17.378  0.00  0.00    +0.000 OA
BRANCH  11  13
ATOM     13  O   UNL     1       2.621   2.474  19.611  0.00  0.00    +0.000 OA
BRANCH  13  15
ATOM     14  C   UNL     1       2.005   3.904  21.413  0.00  0.00    +0.000 C 
ATOM     15  C   UNL     1       1.489   3.009  20.301  0.00  0.00    +0.000 C 
ENDBRANCH  13  15
ENDBRANCH  11  13
ENDBRANCH   2  11
ENDBRANCH   1  10
BRANCH   1  16
ATOM     16  C   UNL     1       2.202   7.186  18.620  0.00  0.00    +0.000 C 
ATOM     17  O   UNL     1       2.428   7.185  19.829  0.00  0.00    +0.000 OA
ATOM     18  N   UNL     1       1.715   8.272  17.893  0.00  0.00    +0.000 N 
ATOM     19  H   UNL     1       1.411   8.102  16.941  0.00  0.00    +0.000 HD
BRANCH  18  20
ATOM     20  C   UNL     1       1.454   9.567  18.415  0.00  0.00    +0.000 A 
ATOM     21  C   UNL     1       0.435   9.816  19.343  0.00  0.00    +0.000 A 
ATOM     22  C   UNL     1       0.203  11.102  19.837  0.00  0.00    +0.000 A 
ATOM     23  C   UNL     1       0.986  12.163  19.408  0.00  0.00    +0.000 A 
ATOM     24  C   UNL     1       2.025  11.936  18.502  0.00  0.00    +0.000 A 
ATOM     25  C   UNL     1       2.256  10.645  18.002  0.00  0.00    +0.000 A 
ATOM     26  O   UNL     1       2.847  12.941  18.054  0.00  0.00    +0.000 OA
ATOM     27  C   UNL     1       2.745  14.115  18.875  0.00  0.00    +0.000 C 
ATOM     28  C   UNL     1       1.295  14.447  19.185  0.00  0.00    +0.000 C 
ATOM     29  O   UNL     1       0.684  13.392  19.932  0.00  0.00    +0.000 OA
ENDBRANCH  18  20
ENDBRANCH   1  16
TORSDOF 6
ENDMDL
MODEL 5
REMARK VINA RESULT:      -7.8      4.598      6.735
REMARK  Name = 
REMARK  8 active torsions:
REMARK  status: ('A' for Active; 'I' for Inactive)
REMARK    1  A    between atoms: C_1  and  C_2
REMARK    2  A    between atoms: C_2  and  O_3
REMARK    3  A    between atoms: O_3  and  C_4
REMARK    4  A    between atoms: C_4  and  C_6
REMARK    5  A    between atoms: C_10  and  C_11
REMARK    6  A    between atoms: N_14  and  C_15
REMARK    7  A    between atoms: C_15  and  C_16
REMARK    8  A    between atoms: N_18  and  C_19
REMARK                            x       y       z     vdW  Elec       q    Type
REMARK                         _______ _______ _______ _____ _____    ______ ____
ROOT
ATOM      1  C   UNL     1       3.591   7.121  17.108  0.00  0.00    +0.000 C 
ENDROOT
BRANCH   1  10
ATOM      2  C   UNL     1       5.340   5.286  17.040  0.00  0.00    +0.000 A 
ATOM      3  C   UNL     1       5.327   3.900  17.114  0.00  0.00    +0.000 A 
ATOM      4  C   UNL     1       4.022   3.529  17.511  0.00  0.00    +0.000 A 
ATOM      5  S   UNL     1       3.151   2.083  17.877  0.00  0.00    +0.000 S 
ATOM      6  C   UNL     1       1.789   3.022  18.325  0.00  0.00    +0.000 A 
ATOM      7  C   UNL     1       0.577   2.343  18.872  0.00  0.00    +0.000 C 
ATOM      8  C   UNL     1       1.960   4.378  18.125  0.00  0.00    +0.000 A 
ATOM      9  C   UNL     1       3.271   4.660  17.638  0.00  0.00    +0.000 A 
ATOM     10  N   UNL     1       4.045   5.742  17.260  0.00  0.00    +0.000 N 
BRANCH   2  11
ATOM     11  C   UNL     1       6.484   6.121  16.723  0.00  0.00    +0.000 C 
ATOM     12  O   UNL     1       7.221   5.987  15.758  0.00  0.00    +0.000 OA
BRANCH  11  13
ATOM     13  O   UNL     1       6.662   7.025  17.728  0.00  0.00    +0.000 OA
BRANCH  13  15
ATOM     14  C   UNL     1       7.961   5.815  19.316  0.00  0.00    +0.000 C 
ATOM     15  C   UNL     1       7.941   7.001  18.368  0.00  0.00    +0.000 C 
ENDBRANCH  13  15
ENDBRANCH  11  13
ENDBRANCH   2  11
ENDBRANCH   1  10
BRANCH   1  16
ATOM     16  C   UNL     1       2.782   7.698  18.254  0.00  0.00    +0.000 C 
ATOM     17  O   UNL     1       2.916   7.232  19.385  0.00  0.00    +0.000 OA
ATOM     18  N   UNL     1       1.897   8.717  17.903  0.00  0.00    +0.000 N 
ATOM     19  H   UNL     1       1.756   8.898  16.915  0.00  0.00    +0.000 HD
BRANCH  18  20
ATOM     20  C   UNL     1       1.050   9.423  18.799  0.00  0.00    +0.000 A 
ATOM     21  C   UNL     1       0.119  10.375  18.366  0.00  0.00    +0.000 A 
ATOM     22  C   UNL     1      -0.699  11.054  19.273  0.00  0.00    +0.000 A 
ATOM     23  C   UNL     1      -0.596  10.793  20.631  0.00  0.00    +0.000 A 
ATOM     24  C   UNL     1       0.307   9.830  21.086  0.00  0.00    +0.000 A 
ATOM     25  C   UNL     1       1.132   9.151  20.175  0.00  0.00    +0.000 A 
ATOM     26  O   UNL     1       0.442   9.513  22.416  0.00  0.00    +0.000 OA
ATOM     27  C   UNL     1      -0.663  10.000  23.191  0.00  0.00    +0.000 C 
ATOM     28  C   UNL     1      -1.010  11.432  22.817  0.00  0.00    +0.000 C 
ATOM     29  O   UNL     1      -1.425  11.511  21.452  0.00  0.00    +0.000 OA
ENDBRANCH  18  20
ENDBRANCH   1  16
TORSDOF 6
ENDMDL
MODEL 6
REMARK VINA RESULT:      -7.7      4.989      7.234
REMARK  Name = 
REMARK  8 active torsions:
REMARK  status: ('A' for Active; 'I' for Inactive)
REMARK    1  A    between atoms: C_1  and  C_2
REMARK    2  A    between atoms: C_2  and  O_3
REMARK    3  A    between atoms: O_3  and  C_4
REMARK    4  A    between atoms: C_4  and  C_6
REMARK    5  A    between atoms: C_10  and  C_11
REMARK    6  A    between atoms: N_14  and  C_15
REMARK    7  A    between atoms: C_15  and  C_16
REMARK    8  A    between atoms: N_18  and  C_19
REMARK                            x       y       z     vdW  Elec       q    Type
REMARK                         _______ _______ _______ _____ _____    ______ ____
ROOT
ATOM      1  C   UNL     1       3.364   4.953  20.146  0.00  0.00    +0.000 C 
ENDROOT
BRANCH   1  10
ATOM      2  C   UNL     1       3.312   3.926  17.828  0.00  0.00    +0.000 A 
ATOM      3  C   UNL     1       4.155   3.925  16.724  0.00  0.00    +0.000 A 
ATOM      4  C   UNL     1       5.148   4.899  16.972  0.00  0.00    +0.000 A 
ATOM      5  S   UNL     1       6.518   5.575  16.167  0.00  0.00    +0.000 S 
ATOM      6  C   UNL     1       6.719   6.691  17.452  0.00  0.00    +0.000 A 
ATOM      7  C   UNL     1       7.784   7.733  17.359  0.00  0.00    +0.000 C 
ATOM      8  C   UNL     1       5.831   6.503  18.493  0.00  0.00    +0.000 A 
ATOM      9  C   UNL     1       4.921   5.443  18.202  0.00  0.00    +0.000 A 
ATOM     10  N   UNL     1       3.849   4.786  18.779  0.00  0.00    +0.000 N 
BRANCH   2  11
ATOM     11  C   UNL     1       2.114   3.125  17.998  0.00  0.00    +0.000 C 
ATOM     12  O   UNL     1       1.011   3.383  17.538  0.00  0.00    +0.000 OA
BRANCH  11  13
ATOM     13  O   UNL     1       2.393   2.084  18.833  0.00  0.00    +0.000 OA
BRANCH  13  15
ATOM     14  C   UNL     1       4.475   1.415  19.775  0.00  0.00    +0.000 C 
ATOM     15  C   UNL     1       3.588   1.356  18.543  0.00  0.00    +0.000 C 
ENDBRANCH  13  15
ENDBRANCH  11  13
ENDBRANCH   2  11
ENDBRANCH   1  10
BRANCH   1  16
ATOM     16  C   UNL     1       2.197   5.902  20.339  0.00  0.00    +0.000 C 
ATOM     17  O   UNL     1       1.074   5.446  20.552  0.00  0.00    +0.000 OA
ATOM     18  N   UNL     1       2.506   7.256  20.216  0.00  0.00    +0.000 N 
ATOM     19  H   UNL     1       3.430   7.499  19.875  0.00  0.00    +0.000 HD
BRANCH  18  20
ATOM     20  C   UNL     1       1.591   8.332  20.373  0.00  0.00    +0.000 A 
ATOM     21  C   UNL     1       1.027   9.008  19.284  0.00  0.00    +0.000 A 
ATOM     22  C   UNL     1       0.130  10.062  19.471  0.00  0.00    +0.000 A 
ATOM     23  C   UNL     1      -0.216  10.461  20.753  0.00  0.00    +0.000 A 
ATOM     24  C   UNL     1       0.313   9.785  21.856  0.00  0.00    +0.000 A 
ATOM     25  C   UNL     1       1.218   8.728  21.668  0.00  0.00    +0.000 A 
ATOM     26  O   UNL     1      -0.005  10.120  23.150  0.00  0.00    +0.000 OA
ATOM     27  C   UNL     1      -1.171  10.956  23.210  0.00  0.00    +0.000 C 
ATOM     28  C   UNL     1      -1.111  12.061  22.168  0.00  0.00    +0.000 C 
ATOM     29  O   UNL     1      -1.091  11.510  20.849  0.00  0.00    +0.000 OA
ENDBRANCH  18  20
ENDBRANCH   1  16
TORSDOF 6
ENDMDL
MODEL 7
REMARK VINA RESULT:      -7.7      5.038      7.691
REMARK  Name = 
REMARK  8 active torsions:
REMARK  status: ('A' for Active; 'I' for Inactive)
REMARK    1  A    between atoms: C_1  and  C_2
REMARK    2  A    between atoms: C_2  and  O_3
REMARK    3  A    between atoms: O_3  and  C_4
REMARK    4  A    between atoms: C_4  and  C_6
REMARK    5  A    between atoms: C_10  and  C_11
REMARK    6  A    between atoms: N_14  and  C_15
REMARK    7  A    between atoms: C_15  and  C_16
REMARK    8  A    between atoms: N_18  and  C_19
REMARK                            x       y       z     vdW  Elec       q    Type
REMARK                         _______ _______ _______ _____ _____    ______ ____
ROOT
ATOM      1  C   UNL     1       2.525   6.093  17.909  0.00  0.00    +0.000 C 
ENDROOT
BRANCH   1  10
ATOM      2  C   UNL     1       3.899   3.980  18.196  0.00  0.00    +0.000 A 
ATOM      3  C   UNL     1       5.238   3.691  18.421  0.00  0.00    +0.000 A 
ATOM      4  C   UNL     1       5.948   4.899  18.243  0.00  0.00    +0.000 A 
ATOM      5  S   UNL     1       7.585   5.447  18.282  0.00  0.00    +0.000 S 
ATOM      6  C   UNL     1       7.073   7.003  17.779  0.00  0.00    +0.000 A 
ATOM      7  C   UNL     1       8.092   8.060  17.512  0.00  0.00    +0.000 C 
ATOM      8  C   UNL     1       5.702   7.126  17.667  0.00  0.00    +0.000 A 
ATOM      9  C   UNL     1       5.054   5.886  17.951  0.00  0.00    +0.000 A 
ATOM     10  N   UNL     1       3.779   5.353  18.011  0.00  0.00    +0.000 N 
BRANCH   2  11
ATOM     11  C   UNL     1       2.798   3.035  18.213  0.00  0.00    +0.000 C 
ATOM     12  O   UNL     1       1.958   2.901  17.335  0.00  0.00    +0.000 OA
BRANCH  11  13
ATOM     13  O   UNL     1       2.794   2.381  19.409  0.00  0.00    +0.000 OA
BRANCH  13  15
ATOM     14  C   UNL     1       1.955   2.681  21.618  0.00  0.00    +0.000 C 
ATOM     15  C   UNL     1       1.582   2.465  20.162  0.00  0.00    +0.000 C 
ENDBRANCH  13  15
ENDBRANCH  11  13
ENDBRANCH   2  11
ENDBRANCH   1  10
BRANCH   1  16
ATOM     16  C   UNL     1       1.965   6.658  19.200  0.00  0.00    +0.000 C 
ATOM     17  O   UNL     1       1.857   5.929  20.185  0.00  0.00    +0.000 OA
ATOM     18  N   UNL     1       1.573   7.996  19.141  0.00  0.00    +0.000 N 
ATOM     19  H   UNL     1       1.557   8.442  18.231  0.00  0.00    +0.000 HD
BRANCH  18  20
ATOM     20  C   UNL     1       1.040   8.750  20.221  0.00  0.00    +0.000 A 
ATOM     21  C   UNL     1       1.473   8.585  21.543  0.00  0.00    +0.000 A 
ATOM     22  C   UNL     1       0.929   9.341  22.584  0.00  0.00    +0.000 A 
ATOM     23  C   UNL     1      -0.062  10.275  22.320  0.00  0.00    +0.000 A 
ATOM     24  C   UNL     1      -0.493  10.476  21.006  0.00  0.00    +0.000 A 
ATOM     25  C   UNL     1       0.051   9.713  19.960  0.00  0.00    +0.000 A 
ATOM     26  O   UNL     1      -1.457  11.398  20.677  0.00  0.00    +0.000 OA
ATOM     27  C   UNL     1      -1.680  12.334  21.743  0.00  0.00    +0.000 C 
ATOM     28  C   UNL     1      -1.778  11.627  23.085  0.00  0.00    +0.000 C 
ATOM     29  O   UNL     1      -0.551  10.964  23.398  0.00  0.00    +0.000 OA
ENDBRANCH  18  20
ENDBRANCH   1  16
TORSDOF 6
ENDMDL
MODEL 8
REMARK VINA RESULT:      -7.7      5.075      6.325
REMARK  Name = 
REMARK  8 active torsions:
REMARK  status: ('A' for Active; 'I' for Inactive)
REMARK    1  A    between atoms: C_1  and  C_2
REMARK    2  A    between atoms: C_2  and  O_3
REMARK    3  A    between atoms: O_3  and  C_4
REMARK    4  A    between atoms: C_4  and  C_6
REMARK    5  A    between atoms: C_10  and  C_11
REMARK    6  A    between atoms: N_14  and  C_15
REMARK    7  A    between atoms: C_15  and  C_16
REMARK    8  A    between atoms: N_18  and  C_19
REMARK                            x       y       z     vdW  Elec       q    Type
REMARK                         _______ _______ _______ _____ _____    ______ ____
ROOT
ATOM      1  C   UNL     1       2.439   6.714  17.567  0.00  0.00    +0.000 C 
ENDROOT
BRANCH   1  10
ATOM      2  C   UNL     1       4.697   5.560  17.630  0.00  0.00    +0.000 A 
ATOM      3  C   UNL     1       5.194   4.384  18.174  0.00  0.00    +0.000 A 
ATOM      4  C   UNL     1       4.191   3.878  19.031  0.00  0.00    +0.000 A 
ATOM      5  S   UNL     1       3.967   2.542  20.102  0.00  0.00    +0.000 S 
ATOM      6  C   UNL     1       2.447   3.179  20.574  0.00  0.00    +0.000 A 
ATOM      7  C   UNL     1       1.664   2.494  21.643  0.00  0.00    +0.000 C 
ATOM      8  C   UNL     1       2.086   4.320  19.883  0.00  0.00    +0.000 A 
ATOM      9  C   UNL     1       3.114   4.712  18.974  0.00  0.00    +0.000 A 
ATOM     10  N   UNL     1       3.377   5.702  18.044  0.00  0.00    +0.000 N 
BRANCH   2  11
ATOM     11  C   UNL     1       5.398   6.460  16.734  0.00  0.00    +0.000 C 
ATOM     12  O   UNL     1       5.448   6.360  15.516  0.00  0.00    +0.000 OA
BRANCH  11  13
ATOM     13  O   UNL     1       6.074   7.384  17.474  0.00  0.00    +0.000 OA
BRANCH  13  15
ATOM     14  C   UNL     1       8.064   8.632  17.864  0.00  0.00    +0.000 C 
ATOM     15  C   UNL     1       7.500   7.287  17.441  0.00  0.00    +0.000 C 
ENDBRANCH  13  15
ENDBRANCH  11  13
ENDBRANCH   2  11
ENDBRANCH   1  10
BRANCH   1  16
ATOM     16  C   UNL     1       2.218   7.911  18.472  0.00  0.00    +0.000 C 
ATOM     17  O   UNL     1       2.367   7.788  19.687  0.00  0.00    +0.000 OA
ATOM     18  N   UNL     1       1.813   9.078  17.824  0.00  0.00    +0.000 N 
ATOM     19  H   UNL     1       1.564   9.010  16.844  0.00  0.00    +0.000 HD
BRANCH  18  20
ATOM     20  C   UNL     1       1.564  10.329  18.451  0.00  0.00    +0.000 A 
ATOM     21  C   UNL     1       2.287  11.487  18.141  0.00  0.00    +0.000 A 
ATOM     22  C   UNL     1       2.019  12.702  18.776  0.00  0.00    +0.000 A 
ATOM     23  C   UNL     1       1.022  12.778  19.737  0.00  0.00    +0.000 A 
ATOM     24  C   UNL     1       0.268  11.642  20.046  0.00  0.00    +0.000 A 
ATOM     25  C   UNL     1       0.541  10.420  19.411  0.00  0.00    +0.000 A 
ATOM     26  O   UNL     1      -0.745  11.657  20.974  0.00  0.00    +0.000 OA
ATOM     27  C   UNL     1      -1.153  12.997  21.291  0.00  0.00    +0.000 C 
ATOM     28  C   UNL     1       0.049  13.901  21.512  0.00  0.00    +0.000 C 
ATOM     29  O   UNL     1       0.831  14.002  20.320  0.00  0.00    +0.000 OA
ENDBRANCH  18  20
ENDBRANCH   1  16
TORSDOF 6
ENDMDL
MODEL 9
REMARK VINA RESULT:      -7.7      5.182      7.063
REMARK  Name = 
REMARK  8 active torsions:
REMARK  status: ('A' for Active; 'I' for Inactive)
REMARK    1  A    between atoms: C_1  and  C_2
REMARK    2  A    between atoms: C_2  and  O_3
REMARK    3  A    between atoms: O_3  and  C_4
REMARK    4  A    between atoms: C_4  and  C_6
REMARK    5  A    between atoms: C_10  and  C_11
REMARK    6  A    between atoms: N_14  and  C_15
REMARK    7  A    between atoms: C_15  and  C_16
REMARK    8  A    between atoms: N_18  and  C_19
REMARK                            x       y       z     vdW  Elec       q    Type
REMARK                         _______ _______ _______ _____ _____    ______ ____
ROOT
ATOM      1  C   UNL     1       2.462   6.046  17.725  0.00  0.00    +0.000 C 
ENDROOT
BRANCH   1  10
ATOM      2  C   UNL     1       3.849   3.993  18.265  0.00  0.00    +0.000 A 
ATOM      3  C   UNL     1       5.177   3.751  18.593  0.00  0.00    +0.000 A 
ATOM      4  C   UNL     1       5.877   4.956  18.360  0.00  0.00    +0.000 A 
ATOM      5  S   UNL     1       7.500   5.540  18.453  0.00  0.00    +0.000 S 
ATOM      6  C   UNL     1       6.994   7.040  17.796  0.00  0.00    +0.000 A 
ATOM      7  C   UNL     1       8.011   8.093  17.505  0.00  0.00    +0.000 C 
ATOM      8  C   UNL     1       5.630   7.124  17.592  0.00  0.00    +0.000 A 
ATOM      9  C   UNL     1       4.987   5.898  17.936  0.00  0.00    +0.000 A 
ATOM     10  N   UNL     1       3.719   5.344  17.963  0.00  0.00    +0.000 N 
BRANCH   2  11
ATOM     11  C   UNL     1       2.765   3.029  18.292  0.00  0.00    +0.000 C 
ATOM     12  O   UNL     1       2.075   2.702  17.337  0.00  0.00    +0.000 OA
BRANCH  11  13
ATOM     13  O   UNL     1       2.576   2.612  19.576  0.00  0.00    +0.000 OA
BRANCH  13  15
ATOM     14  C   UNL     1       1.440   2.708  21.667  0.00  0.00    +0.000 C 
ATOM     15  C   UNL     1       1.784   3.471  20.400  0.00  0.00    +0.000 C 
ENDBRANCH  13  15
ENDBRANCH  11  13
ENDBRANCH   2  11
ENDBRANCH   1  10
BRANCH   1  16
ATOM     16  C   UNL     1       2.220   7.298  18.548  0.00  0.00    +0.000 C 
ATOM     17  O   UNL     1       2.394   7.266  19.765  0.00  0.00    +0.000 OA
ATOM     18  N   UNL     1       1.768   8.403  17.827  0.00  0.00    +0.000 N 
ATOM     19  H   UNL     1       1.504   8.258  16.859  0.00  0.00    +0.000 HD
BRANCH  18  20
ATOM     20  C   UNL     1       1.490   9.687  18.369  0.00  0.00    +0.000 A 
ATOM     21  C   UNL     1       2.237  10.824  18.036  0.00  0.00    +0.000 A 
ATOM     22  C   UNL     1       1.940  12.073  18.588  0.00  0.00    +0.000 A 
ATOM     23  C   UNL     1       0.892  12.205  19.486  0.00  0.00    +0.000 A 
ATOM     24  C   UNL     1       0.116  11.090  19.815  0.00  0.00    +0.000 A 
ATOM     25  C   UNL     1       0.417   9.834  19.264  0.00  0.00    +0.000 A 
ATOM     26  O   UNL     1      -0.947  11.159  20.682  0.00  0.00    +0.000 OA
ATOM     27  C   UNL     1      -1.364  12.515  20.902  0.00  0.00    +0.000 C 
ATOM     28  C   UNL     1      -0.172  13.427  21.140  0.00  0.00    +0.000 C 
ATOM     29  O   UNL     1       0.676  13.460  19.989  0.00  0.00    +0.000 OA
ENDBRANCH  18  20
ENDBRANCH   1  16
TORSDOF 6
ENDMDL
