MODEL 1
REMARK VINA RESULT:      -9.2      0.000      0.000
REMARK  Name = 
REMARK  9 active torsions:
REMARK  status: ('A' for Active; 'I' for Inactive)
REMARK    1  A    between atoms: C_1  and  C_2
REMARK    2  A    between atoms: C_2  and  C_3
REMARK    3  A    between atoms: C_3  and  C_4
REMARK    4  A    between atoms: C_4  and  C_5
REMARK    5  A    between atoms: N_7  and  C_8
REMARK    6  A    between atoms: N_17  and  C_18
REMARK    7  A    between atoms: C_18  and  C_19
REMARK    8  A    between atoms: C_22  and  C_23
REMARK    9  A    between atoms: C_28  and  C_29
REMARK                            x       y       z     vdW  Elec       q    Type
REMARK                         _______ _______ _______ _____ _____    ______ ____
ROOT
ATOM      1  C   UNL     1       0.619   9.991  20.465  0.00  0.00    +0.000 C 
ENDROOT
BRANCH   1   7
ATOM      2  C   UNL     1      -0.875  11.476  19.073  0.00  0.00    +0.000 A 
ATOM      3  N   UNL     1      -1.086  12.739  18.860  0.00  0.00    +0.000 NA
ATOM      4  N   UNL     1      -0.013  13.371  19.428  0.00  0.00    +0.000 N 
ATOM      5  C   UNL     1       0.835  12.419  20.028  0.00  0.00    +0.000 A 
ATOM      6  O   UNL     1       1.806  12.606  20.745  0.00  0.00    +0.000 OA
ATOM      7  N   UNL     1       0.264  11.194  19.742  0.00  0.00    +0.000 N 
BRANCH   4   8
ATOM      8  C   UNL     1       0.083  14.782  19.456  0.00  0.00    +0.000 A 
ATOM      9  C   UNL     1      -0.902  15.548  20.098  0.00  0.00    +0.000 A 
ATOM     10  C   UNL     1      -0.807  16.944  20.167  0.00  0.00    +0.000 A 
ATOM     11  C   UNL     1       0.267  17.602  19.578  0.00  0.00    +0.000 A 
ATOM     12  C   UNL     1       1.244  16.865  18.917  0.00  0.00    +0.000 A 
ATOM     13  C   UNL     1       1.154  15.469  18.866  0.00  0.00    +0.000 A 
ATOM     14  F   UNL     1       2.112  14.824  18.179  0.00  0.00    +0.000 F 
ENDBRANCH   4   8
BRANCH   2  15
ATOM     15  C   UNL     1      -1.858  10.425  18.630  0.00  0.00    +0.000 C 
BRANCH  15  16
ATOM     16  C   UNL     1      -1.664  10.079  17.152  0.00  0.00    +0.000 C 
BRANCH  16  18
ATOM     17  C   UNL     1      -3.003  10.026  15.022  0.00  0.00    +0.000 C 
ATOM     18  C   UNL     1      -2.634  10.845  16.250  0.00  0.00    +0.000 C 
ENDBRANCH  16  18
ENDBRANCH  15  16
ENDBRANCH   2  15
ENDBRANCH   1   7
BRANCH   1  19
ATOM     19  C   UNL     1       1.281   8.886  19.673  0.00  0.00    +0.000 A 
ATOM     20  C   UNL     1       1.615   9.076  18.328  0.00  0.00    +0.000 A 
ATOM     21  C   UNL     1       2.453   8.171  17.661  0.00  0.00    +0.000 A 
ATOM     22  C   UNL     1       2.941   7.007  18.284  0.00  0.00    +0.000 A 
ATOM     23  C   UNL     1       2.524   6.788  19.610  0.00  0.00    +0.000 A 
ATOM     24  C   UNL     1       1.715   7.711  20.296  0.00  0.00    +0.000 A 
BRANCH  22  25
ATOM     25  C   UNL     1       3.926   6.106  17.604  0.00  0.00    +0.000 A 
ATOM     26  C   UNL     1       5.108   6.678  17.070  0.00  0.00    +0.000 A 
ATOM     27  C   UNL     1       6.019   5.943  16.302  0.00  0.00    +0.000 A 
ATOM     28  C   UNL     1       5.757   4.615  16.005  0.00  0.00    +0.000 A 
ATOM     29  C   UNL     1       4.624   4.010  16.541  0.00  0.00    +0.000 A 
ATOM     30  C   UNL     1       3.732   4.717  17.383  0.00  0.00    +0.000 A 
BRANCH  30  31
ATOM     31  C   UNL     1       2.692   3.937  18.054  0.00  0.00    +0.000 A 
ATOM     32  N   UNL     1       2.916   3.208  19.199  0.00  0.00    +0.000 NA
ATOM     33  N   UNL     1       1.792   2.568  19.480  0.00  0.00    +0.000 NA
ATOM     34  N   UNL     1       0.963   2.901  18.490  0.00  0.00    +0.000 N 
ATOM     35  N   UNL     1       1.447   3.751  17.573  0.00  0.00    +0.000 NA
ATOM     36  H   UNL     1       0.026   2.514  18.430  0.00  0.00    +0.000 HD
ENDBRANCH  30  31
ENDBRANCH  22  25
ENDBRANCH   1  19
TORSDOF 8
ENDMDL
MODEL 2
REMARK VINA RESULT:      -9.1      0.823      1.155
REMARK  Name = 
REMARK  9 active torsions:
REMARK  status: ('A' for Active; 'I' for Inactive)
REMARK    1  A    between atoms: C_1  and  C_2
REMARK    2  A    between atoms: C_2  and  C_3
REMARK    3  A    between atoms: C_3  and  C_4
REMARK    4  A    between atoms: C_4  and  C_5
REMARK    5  A    between atoms: N_7  and  C_8
REMARK    6  A    between atoms: N_17  and  C_18
REMARK    7  A    between atoms: C_18  and  C_19
REMARK    8  A    between atoms: C_22  and  C_23
REMARK    9  A    between atoms: C_28  and  C_29
REMARK                            x       y       z     vdW  Elec       q    Type
REMARK                         _______ _______ _______ _____ _____    ______ ____
ROOT
ATOM      1  C   UNL     1       0.588  10.102  20.372  0.00  0.00    +0.000 C 
ENDROOT
BRANCH   1   7
ATOM      2  C   UNL     1      -0.898  11.590  18.974  0.00  0.00    +0.000 A 
ATOM      3  N   UNL     1      -1.072  12.851  18.723  0.00  0.00    +0.000 NA
ATOM      4  N   UNL     1       0.039  13.464  19.236  0.00  0.00    +0.000 N 
ATOM      5  C   UNL     1       0.873  12.504  19.842  0.00  0.00    +0.000 A 
ATOM      6  O   UNL     1       1.872  12.681  20.522  0.00  0.00    +0.000 OA
ATOM      7  N   UNL     1       0.251  11.291  19.618  0.00  0.00    +0.000 N 
BRANCH   4   8
ATOM      8  C   UNL     1       0.184  14.871  19.211  0.00  0.00    +0.000 A 
ATOM      9  C   UNL     1       1.297  15.459  18.591  0.00  0.00    +0.000 A 
ATOM     10  C   UNL     1       1.441  16.851  18.525  0.00  0.00    +0.000 A 
ATOM     11  C   UNL     1       0.481  17.682  19.096  0.00  0.00    +0.000 A 
ATOM     12  C   UNL     1      -0.620  17.120  19.734  0.00  0.00    +0.000 A 
ATOM     13  C   UNL     1      -0.768  15.729  19.782  0.00  0.00    +0.000 A 
ATOM     14  F   UNL     1      -1.835  15.255  20.447  0.00  0.00    +0.000 F 
ENDBRANCH   4   8
BRANCH   2  15
ATOM     15  C   UNL     1      -1.930  10.559  18.599  0.00  0.00    +0.000 C 
BRANCH  15  16
ATOM     16  C   UNL     1      -1.723  10.071  17.163  0.00  0.00    +0.000 C 
BRANCH  16  18
ATOM     17  C   UNL     1      -2.975  10.329  14.996  0.00  0.00    +0.000 C 
ATOM     18  C   UNL     1      -3.050   9.845  16.437  0.00  0.00    +0.000 C 
ENDBRANCH  16  18
ENDBRANCH  15  16
ENDBRANCH   2  15
ENDBRANCH   1   7
BRANCH   1  19
ATOM     19  C   UNL     1       1.245   8.971  19.611  0.00  0.00    +0.000 A 
ATOM     20  C   UNL     1       1.590   9.126  18.265  0.00  0.00    +0.000 A 
ATOM     21  C   UNL     1       2.425   8.197  17.627  0.00  0.00    +0.000 A 
ATOM     22  C   UNL     1       2.896   7.043  18.280  0.00  0.00    +0.000 A 
ATOM     23  C   UNL     1       2.467   6.860  19.608  0.00  0.00    +0.000 A 
ATOM     24  C   UNL     1       1.662   7.807  20.265  0.00  0.00    +0.000 A 
BRANCH  22  25
ATOM     25  C   UNL     1       3.877   6.117  17.630  0.00  0.00    +0.000 A 
ATOM     26  C   UNL     1       5.070   6.664  17.094  0.00  0.00    +0.000 A 
ATOM     27  C   UNL     1       5.980   5.901  16.351  0.00  0.00    +0.000 A 
ATOM     28  C   UNL     1       5.706   4.571  16.081  0.00  0.00    +0.000 A 
ATOM     29  C   UNL     1       4.561   3.989  16.620  0.00  0.00    +0.000 A 
ATOM     30  C   UNL     1       3.670   4.726  17.438  0.00  0.00    +0.000 A 
BRANCH  30  31
ATOM     31  C   UNL     1       2.615   3.972  18.117  0.00  0.00    +0.000 A 
ATOM     32  N   UNL     1       2.821   3.265  19.279  0.00  0.00    +0.000 NA
ATOM     33  N   UNL     1       1.687   2.644  19.564  0.00  0.00    +0.000 NA
ATOM     34  N   UNL     1       0.871   2.965  18.560  0.00  0.00    +0.000 N 
ATOM     35  N   UNL     1       1.372   3.790  17.629  0.00  0.00    +0.000 NA
ATOM     36  H   UNL     1      -0.070   2.588  18.500  0.00  0.00    +0.000 HD
ENDBRANCH  30  31
ENDBRANCH  22  25
ENDBRANCH   1  19
TORSDOF 8
ENDMDL
MODEL 3
REMARK VINA RESULT:      -9.1      1.906      2.732
REMARK  Name = 
REMARK  9 active torsions:
REMARK  status: ('A' for Active; 'I' for Inactive)
REMARK    1  A    between atoms: C_1  and  C_2
REMARK    2  A    between atoms: C_2  and  C_3
REMARK    3  A    between atoms: C_3  and  C_4
REMARK    4  A    between atoms: C_4  and  C_5
REMARK    5  A    between atoms: N_7  and  C_8
REMARK    6  A    between atoms: N_17  and  C_18
REMARK    7  A    between atoms: C_18  and  C_19
REMARK    8  A    between atoms: C_22  and  C_23
REMARK    9  A    between atoms: C_28  and  C_29
REMARK                            x       y       z     vdW  Elec       q    Type
REMARK                         _______ _______ _______ _____ _____    ______ ____
ROOT
ATOM      1  C   UNL     1       0.690  10.110  20.590  0.00  0.00    +0.000 C 
ENDROOT
BRANCH   1   7
ATOM      2  C   UNL     1      -0.592  11.470  18.892  0.00  0.00    +0.000 A 
ATOM      3  N   UNL     1      -0.668  12.693  18.463  0.00  0.00    +0.000 NA
ATOM      4  N   UNL     1       0.438  13.312  18.980  0.00  0.00    +0.000 N 
ATOM      5  C   UNL     1       1.163  12.400  19.774  0.00  0.00    +0.000 A 
ATOM      6  O   UNL     1       2.118  12.616  20.505  0.00  0.00    +0.000 OA
ATOM      7  N   UNL     1       0.485  11.202  19.661  0.00  0.00    +0.000 N 
BRANCH   4   8
ATOM      8  C   UNL     1       0.672  14.692  18.783  0.00  0.00    +0.000 A 
ATOM      9  C   UNL     1      -0.348  15.627  19.024  0.00  0.00    +0.000 A 
ATOM     10  C   UNL     1      -0.126  17.000  18.868  0.00  0.00    +0.000 A 
ATOM     11  C   UNL     1       1.117  17.466  18.449  0.00  0.00    +0.000 A 
ATOM     12  C   UNL     1       2.135  16.556  18.183  0.00  0.00    +0.000 A 
ATOM     13  C   UNL     1       1.914  15.185  18.357  0.00  0.00    +0.000 A 
ATOM     14  F   UNL     1       2.930  14.363  18.046  0.00  0.00    +0.000 F 
ENDBRANCH   4   8
BRANCH   2  15
ATOM     15  C   UNL     1      -1.655  10.453  18.572  0.00  0.00    +0.000 C 
BRANCH  15  16
ATOM     16  C   UNL     1      -1.638  10.088  17.085  0.00  0.00    +0.000 C 
BRANCH  16  18
ATOM     17  C   UNL     1      -2.940  10.093  14.932  0.00  0.00    +0.000 C 
ATOM     18  C   UNL     1      -3.022  10.220  16.446  0.00  0.00    +0.000 C 
ENDBRANCH  16  18
ENDBRANCH  15  16
ENDBRANCH   2  15
ENDBRANCH   1   7
BRANCH   1  19
ATOM     19  C   UNL     1       1.394   8.882  20.059  0.00  0.00    +0.000 A 
ATOM     20  C   UNL     1       1.586   7.763  20.876  0.00  0.00    +0.000 A 
ATOM     21  C   UNL     1       1.996   6.537  20.330  0.00  0.00    +0.000 A 
ATOM     22  C   UNL     1       2.294   6.391  18.963  0.00  0.00    +0.000 A 
ATOM     23  C   UNL     1       2.178   7.549  18.171  0.00  0.00    +0.000 A 
ATOM     24  C   UNL     1       1.731   8.771  18.705  0.00  0.00    +0.000 A 
BRANCH  22  25
ATOM     25  C   UNL     1       2.619   5.055  18.368  0.00  0.00    +0.000 A 
ATOM     26  C   UNL     1       1.604   4.066  18.332  0.00  0.00    +0.000 A 
ATOM     27  C   UNL     1       1.850   2.750  17.922  0.00  0.00    +0.000 A 
ATOM     28  C   UNL     1       3.134   2.365  17.572  0.00  0.00    +0.000 A 
ATOM     29  C   UNL     1       4.150   3.317  17.561  0.00  0.00    +0.000 A 
ATOM     30  C   UNL     1       3.902   4.671  17.898  0.00  0.00    +0.000 A 
BRANCH  30  31
ATOM     31  C   UNL     1       4.986   5.624  17.657  0.00  0.00    +0.000 A 
ATOM     32  N   UNL     1       5.098   6.362  16.502  0.00  0.00    +0.000 NA
ATOM     33  N   UNL     1       6.227   7.050  16.587  0.00  0.00    +0.000 NA
ATOM     34  N   UNL     1       6.758   6.675  17.751  0.00  0.00    +0.000 N 
ATOM     35  N   UNL     1       6.044   5.800  18.474  0.00  0.00    +0.000 NA
ATOM     36  H   UNL     1       7.661   7.022  18.058  0.00  0.00    +0.000 HD
ENDBRANCH  30  31
ENDBRANCH  22  25
ENDBRANCH   1  19
TORSDOF 8
ENDMDL
MODEL 4
REMARK VINA RESULT:      -9.0      2.065      2.930
REMARK  Name = 
REMARK  9 active torsions:
REMARK  status: ('A' for Active; 'I' for Inactive)
REMARK    1  A    between atoms: C_1  and  C_2
REMARK    2  A    between atoms: C_2  and  C_3
REMARK    3  A    between atoms: C_3  and  C_4
REMARK    4  A    between atoms: C_4  and  C_5
REMARK    5  A    between atoms: N_7  and  C_8
REMARK    6  A    between atoms: N_17  and  C_18
REMARK    7  A    between atoms: C_18  and  C_19
REMARK    8  A    between atoms: C_22  and  C_23
REMARK    9  A    between atoms: C_28  and  C_29
REMARK                            x       y       z     vdW  Elec       q    Type
REMARK                         _______ _______ _______ _____ _____    ______ ____
ROOT
ATOM      1  C   UNL     1       0.775   9.994  20.652  0.00  0.00    +0.000 C 
ENDROOT
BRANCH   1   7
ATOM      2  C   UNL     1      -0.191  11.323  18.735  0.00  0.00    +0.000 A 
ATOM      3  N   UNL     1      -0.220  12.546  18.300  0.00  0.00    +0.000 NA
ATOM      4  N   UNL     1       0.743  13.195  19.024  0.00  0.00    +0.000 N 
ATOM      5  C   UNL     1       1.327  12.302  19.945  0.00  0.00    +0.000 A 
ATOM      6  O   UNL     1       2.112  12.543  20.849  0.00  0.00    +0.000 OA
ATOM      7  N   UNL     1       0.722  11.084  19.701  0.00  0.00    +0.000 N 
BRANCH   4   8
ATOM      8  C   UNL     1       0.968  14.583  18.876  0.00  0.00    +0.000 A 
ATOM      9  C   UNL     1       2.197  15.056  18.392  0.00  0.00    +0.000 A 
ATOM     10  C   UNL     1       2.427  16.425  18.206  0.00  0.00    +0.000 A 
ATOM     11  C   UNL     1       1.435  17.350  18.518  0.00  0.00    +0.000 A 
ATOM     12  C   UNL     1       0.216  16.905  19.019  0.00  0.00    +0.000 A 
ATOM     13  C   UNL     1      -0.015  15.535  19.187  0.00  0.00    +0.000 A 
ATOM     14  F   UNL     1      -1.200  15.180  19.711  0.00  0.00    +0.000 F 
ENDBRANCH   4   8
BRANCH   2  15
ATOM     15  C   UNL     1      -1.138  10.276  18.213  0.00  0.00    +0.000 C 
BRANCH  15  16
ATOM     16  C   UNL     1      -2.146  10.884  17.235  0.00  0.00    +0.000 C 
BRANCH  16  18
ATOM     17  C   UNL     1      -3.083  10.392  14.952  0.00  0.00    +0.000 C 
ATOM     18  C   UNL     1      -2.781   9.825  16.331  0.00  0.00    +0.000 C 
ENDBRANCH  16  18
ENDBRANCH  15  16
ENDBRANCH   2  15
ENDBRANCH   1   7
BRANCH   1  19
ATOM     19  C   UNL     1       1.456   8.722  20.199  0.00  0.00    +0.000 A 
ATOM     20  C   UNL     1       1.484   7.595  21.028  0.00  0.00    +0.000 A 
ATOM     21  C   UNL     1       1.876   6.345  20.527  0.00  0.00    +0.000 A 
ATOM     22  C   UNL     1       2.317   6.176  19.202  0.00  0.00    +0.000 A 
ATOM     23  C   UNL     1       2.365   7.337  18.408  0.00  0.00    +0.000 A 
ATOM     24  C   UNL     1       1.938   8.586  18.893  0.00  0.00    +0.000 A 
BRANCH  22  25
ATOM     25  C   UNL     1       2.624   4.821  18.642  0.00  0.00    +0.000 A 
ATOM     26  C   UNL     1       1.543   3.972  18.296  0.00  0.00    +0.000 A 
ATOM     27  C   UNL     1       1.728   2.644  17.895  0.00  0.00    +0.000 A 
ATOM     28  C   UNL     1       3.003   2.102  17.867  0.00  0.00    +0.000 A 
ATOM     29  C   UNL     1       4.093   2.915  18.166  0.00  0.00    +0.000 A 
ATOM     30  C   UNL     1       3.930   4.283  18.499  0.00  0.00    +0.000 A 
BRANCH  30  31
ATOM     31  C   UNL     1       5.145   5.092  18.594  0.00  0.00    +0.000 A 
ATOM     32  N   UNL     1       5.574   5.929  17.590  0.00  0.00    +0.000 NA
ATOM     33  N   UNL     1       6.736   6.435  17.974  0.00  0.00    +0.000 NA
ATOM     34  N   UNL     1       6.974   5.863  19.155  0.00  0.00    +0.000 N 
ATOM     35  N   UNL     1       6.030   5.025  19.608  0.00  0.00    +0.000 NA
ATOM     36  H   UNL     1       7.831   6.042  19.668  0.00  0.00    +0.000 HD
ENDBRANCH  30  31
ENDBRANCH  22  25
ENDBRANCH   1  19
TORSDOF 8
ENDMDL
MODEL 5
REMARK VINA RESULT:      -9.0      2.804      3.917
REMARK  Name = 
REMARK  9 active torsions:
REMARK  status: ('A' for Active; 'I' for Inactive)
REMARK    1  A    between atoms: C_1  and  C_2
REMARK    2  A    between atoms: C_2  and  C_3
REMARK    3  A    between atoms: C_3  and  C_4
REMARK    4  A    between atoms: C_4  and  C_5
REMARK    5  A    between atoms: N_7  and  C_8
REMARK    6  A    between atoms: N_17  and  C_18
REMARK    7  A    between atoms: C_18  and  C_19
REMARK    8  A    between atoms: C_22  and  C_23
REMARK    9  A    between atoms: C_28  and  C_29
REMARK                            x       y       z     vdW  Elec       q    Type
REMARK                         _______ _______ _______ _____ _____    ______ ____
ROOT
ATOM      1  C   UNL     1       1.441  10.820  18.423  0.00  0.00    +0.000 C 
ENDROOT
BRANCH   1   7
ATOM      2  C   UNL     1      -1.081  10.751  18.512  0.00  0.00    +0.000 A 
ATOM      3  N   UNL     1      -2.048  11.081  19.313  0.00  0.00    +0.000 NA
ATOM      4  N   UNL     1      -1.459  11.876  20.260  0.00  0.00    +0.000 N 
ATOM      5  C   UNL     1      -0.077  11.974  20.003  0.00  0.00    +0.000 A 
ATOM      6  O   UNL     1       0.795  12.472  20.698  0.00  0.00    +0.000 OA
ATOM      7  N   UNL     1       0.126  11.262  18.836  0.00  0.00    +0.000 N 
BRANCH   4   8
ATOM      8  C   UNL     1      -2.192  12.384  21.357  0.00  0.00    +0.000 A 
ATOM      9  C   UNL     1      -3.096  13.442  21.178  0.00  0.00    +0.000 A 
ATOM     10  C   UNL     1      -3.857  13.936  22.245  0.00  0.00    +0.000 A 
ATOM     11  C   UNL     1      -3.715  13.392  23.517  0.00  0.00    +0.000 A 
ATOM     12  C   UNL     1      -2.809  12.357  23.722  0.00  0.00    +0.000 A 
ATOM     13  C   UNL     1      -2.063  11.854  22.650  0.00  0.00    +0.000 A 
ATOM     14  F   UNL     1      -1.180  10.880  22.928  0.00  0.00    +0.000 F 
ENDBRANCH   4   8
BRANCH   2  15
ATOM     15  C   UNL     1      -1.306   9.837  17.337  0.00  0.00    +0.000 C 
BRANCH  15  16
ATOM     16  C   UNL     1      -2.755   9.913  16.850  0.00  0.00    +0.000 C 
BRANCH  16  18
ATOM     17  C   UNL     1      -3.126  10.077  14.367  0.00  0.00    +0.000 C 
ATOM     18  C   UNL     1      -2.911  10.856  15.656  0.00  0.00    +0.000 C 
ENDBRANCH  16  18
ENDBRANCH  15  16
ENDBRANCH   2  15
ENDBRANCH   1   7
BRANCH   1  19
ATOM     19  C   UNL     1       1.853   9.422  18.828  0.00  0.00    +0.000 A 
ATOM     20  C   UNL     1       1.609   8.956  20.124  0.00  0.00    +0.000 A 
ATOM     21  C   UNL     1       1.744   7.594  20.434  0.00  0.00    +0.000 A 
ATOM     22  C   UNL     1       2.189   6.653  19.488  0.00  0.00    +0.000 A 
ATOM     23  C   UNL     1       2.512   7.155  18.214  0.00  0.00    +0.000 A 
ATOM     24  C   UNL     1       2.343   8.511  17.885  0.00  0.00    +0.000 A 
BRANCH  22  25
ATOM     25  C   UNL     1       2.221   5.187  19.794  0.00  0.00    +0.000 A 
ATOM     26  C   UNL     1       1.047   4.577  20.303  0.00  0.00    +0.000 A 
ATOM     27  C   UNL     1       1.020   3.248  20.744  0.00  0.00    +0.000 A 
ATOM     28  C   UNL     1       2.181   2.493  20.730  0.00  0.00    +0.000 A 
ATOM     29  C   UNL     1       3.345   3.046  20.203  0.00  0.00    +0.000 A 
ATOM     30  C   UNL     1       3.371   4.363  19.682  0.00  0.00    +0.000 A 
BRANCH  30  31
ATOM     31  C   UNL     1       4.583   4.772  18.970  0.00  0.00    +0.000 A 
ATOM     32  N   UNL     1       5.622   5.442  19.573  0.00  0.00    +0.000 NA
ATOM     33  N   UNL     1       6.506   5.723  18.627  0.00  0.00    +0.000 NA
ATOM     34  N   UNL     1       5.955   5.253  17.507  0.00  0.00    +0.000 N 
ATOM     35  N   UNL     1       4.768   4.644  17.641  0.00  0.00    +0.000 NA
ATOM     36  H   UNL     1       6.405   5.370  16.605  0.00  0.00    +0.000 HD
ENDBRANCH  30  31
ENDBRANCH  22  25
ENDBRANCH   1  19
TORSDOF 8
ENDMDL
MODEL 6
REMARK VINA RESULT:      -8.9      2.795      3.921
REMARK  Name = 
REMARK  9 active torsions:
REMARK  status: ('A' for Active; 'I' for Inactive)
REMARK    1  A    between atoms: C_1  and  C_2
REMARK    2  A    between atoms: C_2  and  C_3
REMARK    3  A    between atoms: C_3  and  C_4
REMARK    4  A    between atoms: C_4  and  C_5
REMARK    5  A    between atoms: N_7  and  C_8
REMARK    6  A    between atoms: N_17  and  C_18
REMARK    7  A    between atoms: C_18  and  C_19
REMARK    8  A    between atoms: C_22  and  C_23
REMARK    9  A    between atoms: C_28  and  C_29
REMARK                            x       y       z     vdW  Elec       q    Type
REMARK                         _______ _______ _______ _____ _____    ______ ____
ROOT
ATOM      1  C   UNL     1       1.568  10.441  18.198  0.00  0.00    +0.000 C 
ENDROOT
BRANCH   1   7
ATOM      2  C   UNL     1      -0.950  10.542  18.360  0.00  0.00    +0.000 A 
ATOM      3  N   UNL     1      -1.869  10.911  19.199  0.00  0.00    +0.000 NA
ATOM      4  N   UNL     1      -1.201  11.633  20.151  0.00  0.00    +0.000 N 
ATOM      5  C   UNL     1       0.177  11.644  19.857  0.00  0.00    +0.000 A 
ATOM      6  O   UNL     1       1.100  12.059  20.541  0.00  0.00    +0.000 OA
ATOM      7  N   UNL     1       0.298  10.959  18.664  0.00  0.00    +0.000 N 
BRANCH   4   8
ATOM      8  C   UNL     1      -1.867  12.154  21.285  0.00  0.00    +0.000 A 
ATOM      9  C   UNL     1      -1.495  11.749  22.576  0.00  0.00    +0.000 A 
ATOM     10  C   UNL     1      -2.119  12.280  23.712  0.00  0.00    +0.000 A 
ATOM     11  C   UNL     1      -3.141  13.213  23.578  0.00  0.00    +0.000 A 
ATOM     12  C   UNL     1      -3.541  13.613  22.307  0.00  0.00    +0.000 A 
ATOM     13  C   UNL     1      -2.903  13.093  21.174  0.00  0.00    +0.000 A 
ATOM     14  F   UNL     1      -3.366  13.496  19.979  0.00  0.00    +0.000 F 
ENDBRANCH   4   8
BRANCH   2  15
ATOM     15  C   UNL     1      -1.269   9.684  17.165  0.00  0.00    +0.000 C 
BRANCH  15  16
ATOM     16  C   UNL     1      -2.726   9.864  16.732  0.00  0.00    +0.000 C 
BRANCH  16  18
ATOM     17  C   UNL     1      -3.315  10.089  14.296  0.00  0.00    +0.000 C 
ATOM     18  C   UNL     1      -2.859  10.824  15.547  0.00  0.00    +0.000 C 
ENDBRANCH  16  18
ENDBRANCH  15  16
ENDBRANCH   2  15
ENDBRANCH   1   7
BRANCH   1  19
ATOM     19  C   UNL     1       1.965   9.064  18.681  0.00  0.00    +0.000 A 
ATOM     20  C   UNL     1       1.715   8.673  20.001  0.00  0.00    +0.000 A 
ATOM     21  C   UNL     1       1.836   7.330  20.386  0.00  0.00    +0.000 A 
ATOM     22  C   UNL     1       2.272   6.333  19.495  0.00  0.00    +0.000 A 
ATOM     23  C   UNL     1       2.601   6.760  18.195  0.00  0.00    +0.000 A 
ATOM     24  C   UNL     1       2.446   8.098  17.792  0.00  0.00    +0.000 A 
BRANCH  22  25
ATOM     25  C   UNL     1       2.288   4.886  19.881  0.00  0.00    +0.000 A 
ATOM     26  C   UNL     1       1.100   4.310  20.395  0.00  0.00    +0.000 A 
ATOM     27  C   UNL     1       1.055   3.007  20.908  0.00  0.00    +0.000 A 
ATOM     28  C   UNL     1       2.212   2.248  20.963  0.00  0.00    +0.000 A 
ATOM     29  C   UNL     1       3.392   2.767  20.436  0.00  0.00    +0.000 A 
ATOM     30  C   UNL     1       3.437   4.053  19.843  0.00  0.00    +0.000 A 
BRANCH  30  31
ATOM     31  C   UNL     1       4.668   4.416  19.140  0.00  0.00    +0.000 A 
ATOM     32  N   UNL     1       4.894   4.125  17.815  0.00  0.00    +0.000 NA
ATOM     33  N   UNL     1       6.126   4.520  17.533  0.00  0.00    +0.000 NA
ATOM     34  N   UNL     1       6.597   4.989  18.690  0.00  0.00    +0.000 N 
ATOM     35  N   UNL     1       5.750   4.965  19.728  0.00  0.00    +0.000 NA
ATOM     36  H   UNL     1       7.551   5.326  18.776  0.00  0.00    +0.000 HD
ENDBRANCH  30  31
ENDBRANCH  22  25
ENDBRANCH   1  19
TORSDOF 8
ENDMDL
MODEL 7
REMARK VINA RESULT:      -8.8      1.092      1.599
REMARK  Name = 
REMARK  9 active torsions:
REMARK  status: ('A' for Active; 'I' for Inactive)
REMARK    1  A    between atoms: C_1  and  C_2
REMARK    2  A    between atoms: C_2  and  C_3
REMARK    3  A    between atoms: C_3  and  C_4
REMARK    4  A    between atoms: C_4  and  C_5
REMARK    5  A    between atoms: N_7  and  C_8
REMARK    6  A    between atoms: N_17  and  C_18
REMARK    7  A    between atoms: C_18  and  C_19
REMARK    8  A    between atoms: C_22  and  C_23
REMARK    9  A    between atoms: C_28  and  C_29
REMARK                            x       y       z     vdW  Elec       q    Type
REMARK                         _______ _______ _______ _____ _____    ______ ____
ROOT
ATOM      1  C   UNL     1       0.305   9.500  19.960  0.00  0.00    +0.000 C 
ENDROOT
BRANCH   1   7
ATOM      2  C   UNL     1      -0.887  11.110  18.425  0.00  0.00    +0.000 A 
ATOM      3  N   UNL     1      -1.162  12.377  18.346  0.00  0.00    +0.000 NA
ATOM      4  N   UNL     1      -0.364  12.964  19.290  0.00  0.00    +0.000 N 
ATOM      5  C   UNL     1       0.378  11.975  19.966  0.00  0.00    +0.000 A 
ATOM      6  O   UNL     1       1.084  12.093  20.955  0.00  0.00    +0.000 OA
ATOM      7  N   UNL     1       0.042  10.785  19.349  0.00  0.00    +0.000 N 
BRANCH   4   8
ATOM      8  C   UNL     1      -0.428  14.353  19.551  0.00  0.00    +0.000 A 
ATOM      9  C   UNL     1       0.569  15.214  19.067  0.00  0.00    +0.000 A 
ATOM     10  C   UNL     1       0.504  16.596  19.284  0.00  0.00    +0.000 A 
ATOM     11  C   UNL     1      -0.551  17.142  20.008  0.00  0.00    +0.000 A 
ATOM     12  C   UNL     1      -1.540  16.305  20.516  0.00  0.00    +0.000 A 
ATOM     13  C   UNL     1      -1.480  14.926  20.281  0.00  0.00    +0.000 A 
ATOM     14  F   UNL     1      -2.447  14.174  20.833  0.00  0.00    +0.000 F 
ENDBRANCH   4   8
BRANCH   2  15
ATOM     15  C   UNL     1      -1.590  10.095  17.564  0.00  0.00    +0.000 C 
BRANCH  15  16
ATOM     16  C   UNL     1      -3.110  10.198  17.721  0.00  0.00    +0.000 C 
BRANCH  16  18
ATOM     17  C   UNL     1      -2.866  10.515  15.237  0.00  0.00    +0.000 C 
ATOM     18  C   UNL     1      -3.789  10.675  16.436  0.00  0.00    +0.000 C 
ENDBRANCH  16  18
ENDBRANCH  15  16
ENDBRANCH   2  15
ENDBRANCH   1   7
BRANCH   1  19
ATOM     19  C   UNL     1       1.456   8.696  19.398  0.00  0.00    +0.000 A 
ATOM     20  C   UNL     1       1.914   7.551  20.058  0.00  0.00    +0.000 A 
ATOM     21  C   UNL     1       2.794   6.661  19.424  0.00  0.00    +0.000 A 
ATOM     22  C   UNL     1       3.304   6.906  18.136  0.00  0.00    +0.000 A 
ATOM     23  C   UNL     1       2.900   8.106  17.522  0.00  0.00    +0.000 A 
ATOM     24  C   UNL     1       1.989   8.983  18.137  0.00  0.00    +0.000 A 
BRANCH  22  25
ATOM     25  C   UNL     1       4.150   5.897  17.421  0.00  0.00    +0.000 A 
ATOM     26  C   UNL     1       5.348   6.336  16.803  0.00  0.00    +0.000 A 
ATOM     27  C   UNL     1       6.131   5.497  16.001  0.00  0.00    +0.000 A 
ATOM     28  C   UNL     1       5.720   4.198  15.753  0.00  0.00    +0.000 A 
ATOM     29  C   UNL     1       4.568   3.720  16.371  0.00  0.00    +0.000 A 
ATOM     30  C   UNL     1       3.805   4.531  17.248  0.00  0.00    +0.000 A 
BRANCH  30  31
ATOM     31  C   UNL     1       2.737   3.872  17.999  0.00  0.00    +0.000 A 
ATOM     32  N   UNL     1       2.957   3.153  19.151  0.00  0.00    +0.000 NA
ATOM     33  N   UNL     1       1.794   2.633  19.515  0.00  0.00    +0.000 NA
ATOM     34  N   UNL     1       0.945   3.022  18.563  0.00  0.00    +0.000 N 
ATOM     35  N   UNL     1       1.453   3.798  17.595  0.00  0.00    +0.000 NA
ATOM     36  H   UNL     1      -0.027   2.727  18.568  0.00  0.00    +0.000 HD
ENDBRANCH  30  31
ENDBRANCH  22  25
ENDBRANCH   1  19
TORSDOF 8
ENDMDL
MODEL 8
REMARK VINA RESULT:      -8.8      0.688      1.257
REMARK  Name = 
REMARK  9 active torsions:
REMARK  status: ('A' for Active; 'I' for Inactive)
REMARK    1  A    between atoms: C_1  and  C_2
REMARK    2  A    between atoms: C_2  and  C_3
REMARK    3  A    between atoms: C_3  and  C_4
REMARK    4  A    between atoms: C_4  and  C_5
REMARK    5  A    between atoms: N_7  and  C_8
REMARK    6  A    between atoms: N_17  and  C_18
REMARK    7  A    between atoms: C_18  and  C_19
REMARK    8  A    between atoms: C_22  and  C_23
REMARK    9  A    between atoms: C_28  and  C_29
REMARK                            x       y       z     vdW  Elec       q    Type
REMARK                         _______ _______ _______ _____ _____    ______ ____
ROOT
ATOM      1  C   UNL     1       0.026   9.721  20.316  0.00  0.00    +0.000 C 
ENDROOT
BRANCH   1   7
ATOM      2  C   UNL     1      -1.370  11.357  18.994  0.00  0.00    +0.000 A 
ATOM      3  N   UNL     1      -1.583  12.635  18.919  0.00  0.00    +0.000 NA
ATOM      4  N   UNL     1      -0.572  13.199  19.648  0.00  0.00    +0.000 N 
ATOM      5  C   UNL     1       0.239  12.185  20.197  0.00  0.00    +0.000 A 
ATOM      6  O   UNL     1       1.144  12.289  21.011  0.00  0.00    +0.000 OA
ATOM      7  N   UNL     1      -0.287  11.002  19.717  0.00  0.00    +0.000 N 
BRANCH   4   8
ATOM      8  C   UNL     1      -0.502  14.596  19.855  0.00  0.00    +0.000 A 
ATOM      9  C   UNL     1      -1.442  15.241  20.674  0.00  0.00    +0.000 A 
ATOM     10  C   UNL     1      -1.369  16.618  20.920  0.00  0.00    +0.000 A 
ATOM     11  C   UNL     1      -0.363  17.381  20.335  0.00  0.00    +0.000 A 
ATOM     12  C   UNL     1       0.567  16.767  19.503  0.00  0.00    +0.000 A 
ATOM     13  C   UNL     1       0.500  15.387  19.274  0.00  0.00    +0.000 A 
ATOM     14  F   UNL     1       1.408  14.868  18.430  0.00  0.00    +0.000 F 
ENDBRANCH   4   8
BRANCH   2  15
ATOM     15  C   UNL     1      -2.296  10.362  18.345  0.00  0.00    +0.000 C 
BRANCH  15  16
ATOM     16  C   UNL     1      -1.755   9.913  16.985  0.00  0.00    +0.000 C 
BRANCH  16  18
ATOM     17  C   UNL     1      -3.947  10.975  16.353  0.00  0.00    +0.000 C 
ATOM     18  C   UNL     1      -2.755  10.171  15.856  0.00  0.00    +0.000 C 
ENDBRANCH  16  18
ENDBRANCH  15  16
ENDBRANCH   2  15
ENDBRANCH   1   7
BRANCH   1  19
ATOM     19  C   UNL     1       1.152   8.929  19.689  0.00  0.00    +0.000 A 
ATOM     20  C   UNL     1       1.711   7.835  20.359  0.00  0.00    +0.000 A 
ATOM     21  C   UNL     1       2.563   6.944  19.690  0.00  0.00    +0.000 A 
ATOM     22  C   UNL     1       2.945   7.138  18.350  0.00  0.00    +0.000 A 
ATOM     23  C   UNL     1       2.442   8.291  17.719  0.00  0.00    +0.000 A 
ATOM     24  C   UNL     1       1.558   9.168  18.372  0.00  0.00    +0.000 A 
BRANCH  22  25
ATOM     25  C   UNL     1       3.760   6.123  17.610  0.00  0.00    +0.000 A 
ATOM     26  C   UNL     1       4.780   6.580  16.738  0.00  0.00    +0.000 A 
ATOM     27  C   UNL     1       5.501   5.716  15.905  0.00  0.00    +0.000 A 
ATOM     28  C   UNL     1       5.196   4.365  15.883  0.00  0.00    +0.000 A 
ATOM     29  C   UNL     1       4.226   3.873  16.751  0.00  0.00    +0.000 A 
ATOM     30  C   UNL     1       3.541   4.721  17.656  0.00  0.00    +0.000 A 
BRANCH  30  31
ATOM     31  C   UNL     1       2.695   4.075  18.660  0.00  0.00    +0.000 A 
ATOM     32  N   UNL     1       1.333   3.931  18.520  0.00  0.00    +0.000 NA
ATOM     33  N   UNL     1       0.881   3.384  19.638  0.00  0.00    +0.000 NA
ATOM     34  N   UNL     1       1.964   3.259  20.407  0.00  0.00    +0.000 N 
ATOM     35  N   UNL     1       3.124   3.658  19.868  0.00  0.00    +0.000 NA
ATOM     36  H   UNL     1       1.902   2.898  21.354  0.00  0.00    +0.000 HD
ENDBRANCH  30  31
ENDBRANCH  22  25
ENDBRANCH   1  19
TORSDOF 8
ENDMDL
MODEL 9
REMARK VINA RESULT:      -8.7      2.998      3.897
REMARK  Name = 
REMARK  9 active torsions:
REMARK  status: ('A' for Active; 'I' for Inactive)
REMARK    1  A    between atoms: C_1  and  C_2
REMARK    2  A    between atoms: C_2  and  C_3
REMARK    3  A    between atoms: C_3  and  C_4
REMARK    4  A    between atoms: C_4  and  C_5
REMARK    5  A    between atoms: N_7  and  C_8
REMARK    6  A    between atoms: N_17  and  C_18
REMARK    7  A    between atoms: C_18  and  C_19
REMARK    8  A    between atoms: C_22  and  C_23
REMARK    9  A    between atoms: C_28  and  C_29
REMARK                            x       y       z     vdW  Elec       q    Type
REMARK                         _______ _______ _______ _____ _____    ______ ____
ROOT
ATOM      1  C   UNL     1       1.354  10.950  18.860  0.00  0.00    +0.000 C 
ENDROOT
BRANCH   1   7
ATOM      2  C   UNL     1      -1.167  11.043  18.766  0.00  0.00    +0.000 A 
ATOM      3  N   UNL     1      -2.170  11.379  19.518  0.00  0.00    +0.000 NA
ATOM      4  N   UNL     1      -1.607  12.064  20.561  0.00  0.00    +0.000 N 
ATOM      5  C   UNL     1      -0.206  12.087  20.411  0.00  0.00    +0.000 A 
ATOM      6  O   UNL     1       0.640  12.476  21.202  0.00  0.00    +0.000 OA
ATOM      7  N   UNL     1       0.041  11.448  19.212  0.00  0.00    +0.000 N 
BRANCH   4   8
ATOM      8  C   UNL     1      -2.388  12.541  21.639  0.00  0.00    +0.000 A 
ATOM      9  C   UNL     1      -3.200  13.675  21.480  0.00  0.00    +0.000 A 
ATOM     10  C   UNL     1      -4.007  14.142  22.525  0.00  0.00    +0.000 A 
ATOM     11  C   UNL     1      -4.005  13.494  23.756  0.00  0.00    +0.000 A 
ATOM     12  C   UNL     1      -3.193  12.381  23.942  0.00  0.00    +0.000 A 
ATOM     13  C   UNL     1      -2.400  11.906  22.890  0.00  0.00    +0.000 A 
ATOM     14  F   UNL     1      -1.612  10.850  23.153  0.00  0.00    +0.000 F 
ENDBRANCH   4   8
BRANCH   2  15
ATOM     15  C   UNL     1      -1.358  10.231  17.512  0.00  0.00    +0.000 C 
BRANCH  15  16
ATOM     16  C   UNL     1      -2.818   9.802  17.351  0.00  0.00    +0.000 C 
BRANCH  16  18
ATOM     17  C   UNL     1      -4.640  11.440  16.774  0.00  0.00    +0.000 C 
ATOM     18  C   UNL     1      -3.521  10.565  16.227  0.00  0.00    +0.000 C 
ENDBRANCH  16  18
ENDBRANCH  15  16
ENDBRANCH   2  15
ENDBRANCH   1   7
BRANCH   1  19
ATOM     19  C   UNL     1       1.560   9.453  18.930  0.00  0.00    +0.000 A 
ATOM     20  C   UNL     1       1.966   8.737  17.798  0.00  0.00    +0.000 A 
ATOM     21  C   UNL     1       2.408   7.411  17.909  0.00  0.00    +0.000 A 
ATOM     22  C   UNL     1       2.403   6.721  19.135  0.00  0.00    +0.000 A 
ATOM     23  C   UNL     1       1.909   7.429  20.247  0.00  0.00    +0.000 A 
ATOM     24  C   UNL     1       1.500   8.771  20.150  0.00  0.00    +0.000 A 
BRANCH  22  25
ATOM     25  C   UNL     1       2.983   5.346  19.266  0.00  0.00    +0.000 A 
ATOM     26  C   UNL     1       2.301   4.400  20.072  0.00  0.00    +0.000 A 
ATOM     27  C   UNL     1       2.834   3.138  20.363  0.00  0.00    +0.000 A 
ATOM     28  C   UNL     1       4.090   2.794  19.891  0.00  0.00    +0.000 A 
ATOM     29  C   UNL     1       4.775   3.683  19.068  0.00  0.00    +0.000 A 
ATOM     30  C   UNL     1       4.217   4.933  18.700  0.00  0.00    +0.000 A 
BRANCH  30  31
ATOM     31  C   UNL     1       4.924   5.698  17.673  0.00  0.00    +0.000 A 
ATOM     32  N   UNL     1       4.758   5.484  16.324  0.00  0.00    +0.000 NA
ATOM     33  N   UNL     1       5.602   6.287  15.694  0.00  0.00    +0.000 NA
ATOM     34  N   UNL     1       6.259   6.912  16.673  0.00  0.00    +0.000 N 
ATOM     35  N   UNL     1       5.889   6.605  17.925  0.00  0.00    +0.000 NA
ATOM     36  H   UNL     1       7.008   7.567  16.474  0.00  0.00    +0.000 HD
ENDBRANCH  30  31
ENDBRANCH  22  25
ENDBRANCH   1  19
TORSDOF 8
ENDMDL
