MODEL 1
REMARK VINA RESULT:      -7.8      0.000      0.000
REMARK  Name = 
REMARK  5 active torsions:
REMARK  status: ('A' for Active; 'I' for Inactive)
REMARK    1  A    between atoms: C_2  and  C_3
REMARK    2  A    between atoms: C_3  and  C_4
REMARK    3  A    between atoms: C_15  and  C_16
REMARK    4  A    between atoms: C_16  and  O_17
REMARK    5  A    between atoms: O_17  and  C_18
REMARK                            x       y       z     vdW  Elec       q    Type
REMARK                         _______ _______ _______ _____ _____    ______ ____
ROOT
ATOM      1  O   UNL     1       7.175   5.007  13.556  0.00  0.00    +0.000 OA
ATOM      2  C   UNL     1       6.320   4.357  14.159  0.00  0.00    +0.000 C 
ATOM      3  N   UNL     1       6.308   4.288  15.555  0.00  0.00    +0.000 N 
ATOM      4  C   UNL     1       7.353   5.048  16.248  0.00  0.00    +0.000 C 
ATOM      5  C   UNL     1       7.203   5.151  17.735  0.00  0.00    +0.000 A 
ATOM      6  N   UNL     1       8.189   5.012  18.603  0.00  0.00    +0.000 NA
ATOM      7  C   UNL     1       7.660   5.289  19.834  0.00  0.00    +0.000 A 
ATOM      8  C   UNL     1       6.319   5.562  19.730  0.00  0.00    +0.000 A 
ATOM      9  N   UNL     1       6.032   5.463  18.393  0.00  0.00    +0.000 N 
ATOM     10  C   UNL     1       4.732   5.727  17.809  0.00  0.00    +0.000 C 
ATOM     11  C   UNL     1       4.214   4.729  16.750  0.00  0.00    +0.000 C 
ATOM     12  C   UNL     1       5.238   3.671  16.330  0.00  0.00    +0.000 C 
ENDROOT
BRANCH   2  13
ATOM     13  C   UNL     1       5.244   3.568  13.417  0.00  0.00    +0.000 C 
BRANCH  13  14
ATOM     14  C   UNL     1       5.490   3.391  11.943  0.00  0.00    +0.000 C 
ATOM     15  C   UNL     1       5.429   2.007  11.350  0.00  0.00    +0.000 C 
ATOM     16  C   UNL     1       4.358   3.010  11.020  0.00  0.00    +0.000 C 
ENDBRANCH  13  14
ENDBRANCH   2  13
BRANCH  11  17
ATOM     17  C   UNL     1       2.927   4.029  17.196  0.00  0.00    +0.000 C 
BRANCH  17  18
ATOM     18  O   UNL     1       3.251   2.898  18.005  0.00  0.00    +0.000 OA
BRANCH  18  19
ATOM     19  C   UNL     1       2.691   2.875  19.252  0.00  0.00    +0.000 A 
ATOM     20  C   UNL     1       1.359   3.140  19.559  0.00  0.00    +0.000 A 
ATOM     21  C   UNL     1       0.923   3.056  20.880  0.00  0.00    +0.000 A 
ATOM     22  C   UNL     1       1.844   2.717  21.857  0.00  0.00    +0.000 A 
ATOM     23  N   UNL     1       3.145   2.466  21.603  0.00  0.00    +0.000 NA
ATOM     24  C   UNL     1       3.538   2.557  20.308  0.00  0.00    +0.000 A 
ENDBRANCH  18  19
ENDBRANCH  17  18
ENDBRANCH  11  17
TORSDOF 5
ENDMDL
MODEL 2
REMARK VINA RESULT:      -7.6      4.131      6.126
REMARK  Name = 
REMARK  5 active torsions:
REMARK  status: ('A' for Active; 'I' for Inactive)
REMARK    1  A    between atoms: C_2  and  C_3
REMARK    2  A    between atoms: C_3  and  C_4
REMARK    3  A    between atoms: C_15  and  C_16
REMARK    4  A    between atoms: C_16  and  O_17
REMARK    5  A    between atoms: O_17  and  C_18
REMARK                            x       y       z     vdW  Elec       q    Type
REMARK                         _______ _______ _______ _____ _____    ______ ____
ROOT
ATOM      1  O   UNL     1       6.426   4.298  17.223  0.00  0.00    +0.000 OA
ATOM      2  C   UNL     1       5.574   5.185  17.294  0.00  0.00    +0.000 C 
ATOM      3  N   UNL     1       4.243   4.894  17.605  0.00  0.00    +0.000 N 
ATOM      4  C   UNL     1       3.933   3.484  17.859  0.00  0.00    +0.000 C 
ATOM      5  C   UNL     1       2.566   3.208  18.405  0.00  0.00    +0.000 A 
ATOM      6  N   UNL     1       1.778   2.226  18.002  0.00  0.00    +0.000 NA
ATOM      7  C   UNL     1       0.682   2.252  18.821  0.00  0.00    +0.000 A 
ATOM      8  C   UNL     1       0.775   3.290  19.713  0.00  0.00    +0.000 A 
ATOM      9  N   UNL     1       1.970   3.900  19.437  0.00  0.00    +0.000 N 
ATOM     10  C   UNL     1       2.512   5.022  20.178  0.00  0.00    +0.000 C 
ATOM     11  C   UNL     1       3.122   6.184  19.362  0.00  0.00    +0.000 C 
ATOM     12  C   UNL     1       3.227   5.908  17.859  0.00  0.00    +0.000 C 
ENDROOT
BRANCH   2  13
ATOM     13  C   UNL     1       5.918   6.648  17.020  0.00  0.00    +0.000 C 
BRANCH  13  14
ATOM     14  C   UNL     1       7.380   6.986  17.124  0.00  0.00    +0.000 C 
ATOM     15  C   UNL     1       7.784   8.359  17.595  0.00  0.00    +0.000 C 
ATOM     16  C   UNL     1       8.029   7.164  18.475  0.00  0.00    +0.000 C 
ENDBRANCH  13  14
ENDBRANCH   2  13
BRANCH  11  17
ATOM     17  C   UNL     1       2.368   7.499  19.577  0.00  0.00    +0.000 C 
BRANCH  17  18
ATOM     18  O   UNL     1       1.540   7.395  20.735  0.00  0.00    +0.000 OA
BRANCH  18  19
ATOM     19  C   UNL     1       0.916   8.545  21.129  0.00  0.00    +0.000 A 
ATOM     20  C   UNL     1       0.431   8.821  22.406  0.00  0.00    +0.000 A 
ATOM     21  C   UNL     1      -0.167  10.053  22.668  0.00  0.00    +0.000 A 
ATOM     22  C   UNL     1      -0.270  10.969  21.634  0.00  0.00    +0.000 A 
ATOM     23  N   UNL     1       0.174  10.735  20.382  0.00  0.00    +0.000 NA
ATOM     24  C   UNL     1       0.751   9.527  20.159  0.00  0.00    +0.000 A 
ENDBRANCH  18  19
ENDBRANCH  17  18
ENDBRANCH  11  17
TORSDOF 5
ENDMDL
MODEL 3
REMARK VINA RESULT:      -7.6      3.616      5.780
REMARK  Name = 
REMARK  5 active torsions:
REMARK  status: ('A' for Active; 'I' for Inactive)
REMARK    1  A    between atoms: C_2  and  C_3
REMARK    2  A    between atoms: C_3  and  C_4
REMARK    3  A    between atoms: C_15  and  C_16
REMARK    4  A    between atoms: C_16  and  O_17
REMARK    5  A    between atoms: O_17  and  C_18
REMARK                            x       y       z     vdW  Elec       q    Type
REMARK                         _______ _______ _______ _____ _____    ______ ____
ROOT
ATOM      1  O   UNL     1       3.524   2.266  17.603  0.00  0.00    +0.000 OA
ATOM      2  C   UNL     1       3.154   3.370  18.007  0.00  0.00    +0.000 C 
ATOM      3  N   UNL     1       4.073   4.362  18.360  0.00  0.00    +0.000 N 
ATOM      4  C   UNL     1       5.489   4.016  18.201  0.00  0.00    +0.000 C 
ATOM      5  C   UNL     1       6.456   5.148  18.367  0.00  0.00    +0.000 A 
ATOM      6  N   UNL     1       7.592   5.076  19.038  0.00  0.00    +0.000 NA
ATOM      7  C   UNL     1       8.225   6.274  18.854  0.00  0.00    +0.000 A 
ATOM      8  C   UNL     1       7.450   7.114  18.093  0.00  0.00    +0.000 A 
ATOM      9  N   UNL     1       6.322   6.395  17.796  0.00  0.00    +0.000 N 
ATOM     10  C   UNL     1       5.241   6.871  16.956  0.00  0.00    +0.000 C 
ATOM     11  C   UNL     1       3.798   6.619  17.446  0.00  0.00    +0.000 C 
ATOM     12  C   UNL     1       3.703   5.732  18.691  0.00  0.00    +0.000 C 
ENDROOT
BRANCH   2  13
ATOM     13  C   UNL     1       1.674   3.706  18.171  0.00  0.00    +0.000 C 
BRANCH  13  14
ATOM     14  C   UNL     1       1.038   3.178  19.427  0.00  0.00    +0.000 C 
ATOM     15  C   UNL     1       1.904   2.912  20.632  0.00  0.00    +0.000 C 
ATOM     16  C   UNL     1       0.924   4.053  20.652  0.00  0.00    +0.000 C 
ENDBRANCH  13  14
ENDBRANCH   2  13
BRANCH  11  17
ATOM     17  C   UNL     1       3.038   7.924  17.704  0.00  0.00    +0.000 C 
BRANCH  17  18
ATOM     18  O   UNL     1       2.340   7.835  18.946  0.00  0.00    +0.000 OA
BRANCH  18  19
ATOM     19  C   UNL     1       1.421   8.818  19.187  0.00  0.00    +0.000 A 
ATOM     20  C   UNL     1       0.895   9.699  18.245  0.00  0.00    +0.000 A 
ATOM     21  C   UNL     1      -0.057  10.641  18.633  0.00  0.00    +0.000 A 
ATOM     22  C   UNL     1      -0.445  10.676  19.962  0.00  0.00    +0.000 A 
ATOM     23  N   UNL     1       0.050   9.850  20.907  0.00  0.00    +0.000 NA
ATOM     24  C   UNL     1       0.975   8.946  20.497  0.00  0.00    +0.000 A 
ENDBRANCH  18  19
ENDBRANCH  17  18
ENDBRANCH  11  17
TORSDOF 5
ENDMDL
MODEL 4
REMARK VINA RESULT:      -7.6      3.640      5.844
REMARK  Name = 
REMARK  5 active torsions:
REMARK  status: ('A' for Active; 'I' for Inactive)
REMARK    1  A    between atoms: C_2  and  C_3
REMARK    2  A    between atoms: C_3  and  C_4
REMARK    3  A    between atoms: C_15  and  C_16
REMARK    4  A    between atoms: C_16  and  O_17
REMARK    5  A    between atoms: O_17  and  C_18
REMARK                            x       y       z     vdW  Elec       q    Type
REMARK                         _______ _______ _______ _____ _____    ______ ____
ROOT
ATOM      1  O   UNL     1       3.779   2.156  17.771  0.00  0.00    +0.000 OA
ATOM      2  C   UNL     1       3.349   3.168  18.325  0.00  0.00    +0.000 C 
ATOM      3  N   UNL     1       4.152   4.299  18.502  0.00  0.00    +0.000 N 
ATOM      4  C   UNL     1       5.516   4.211  17.972  0.00  0.00    +0.000 C 
ATOM      5  C   UNL     1       6.294   5.491  17.965  0.00  0.00    +0.000 A 
ATOM      6  N   UNL     1       7.560   5.606  18.325  0.00  0.00    +0.000 NA
ATOM      7  C   UNL     1       7.917   6.900  18.067  0.00  0.00    +0.000 A 
ATOM      8  C   UNL     1       6.846   7.606  17.580  0.00  0.00    +0.000 A 
ATOM      9  N   UNL     1       5.814   6.707  17.527  0.00  0.00    +0.000 N 
ATOM     10  C   UNL     1       4.490   7.003  17.017  0.00  0.00    +0.000 C 
ATOM     11  C   UNL     1       3.283   6.491  17.834  0.00  0.00    +0.000 C 
ATOM     12  C   UNL     1       3.659   5.576  19.003  0.00  0.00    +0.000 C 
ENDROOT
BRANCH   2  13
ATOM     13  C   UNL     1       1.926   3.236  18.875  0.00  0.00    +0.000 C 
BRANCH  13  14
ATOM     14  C   UNL     1       1.698   2.459  20.142  0.00  0.00    +0.000 C 
ATOM     15  C   UNL     1       2.660   2.628  21.289  0.00  0.00    +0.000 C 
ATOM     16  C   UNL     1       1.259   3.164  21.402  0.00  0.00    +0.000 C 
ENDBRANCH  13  14
ENDBRANCH   2  13
BRANCH  11  17
ATOM     17  C   UNL     1       2.411   7.636  18.358  0.00  0.00    +0.000 C 
BRANCH  17  18
ATOM     18  O   UNL     1       2.212   7.484  19.763  0.00  0.00    +0.000 OA
BRANCH  18  19
ATOM     19  C   UNL     1       1.451   8.446  20.367  0.00  0.00    +0.000 A 
ATOM     20  C   UNL     1       1.082   8.479  21.709  0.00  0.00    +0.000 A 
ATOM     21  C   UNL     1       0.317   9.540  22.191  0.00  0.00    +0.000 A 
ATOM     22  C   UNL     1      -0.063  10.534  21.305  0.00  0.00    +0.000 A 
ATOM     23  N   UNL     1       0.263  10.532  19.996  0.00  0.00    +0.000 NA
ATOM     24  C   UNL     1       1.006   9.486  19.558  0.00  0.00    +0.000 A 
ENDBRANCH  18  19
ENDBRANCH  17  18
ENDBRANCH  11  17
TORSDOF 5
ENDMDL
MODEL 5
REMARK VINA RESULT:      -7.4      3.821      5.799
REMARK  Name = 
REMARK  5 active torsions:
REMARK  status: ('A' for Active; 'I' for Inactive)
REMARK    1  A    between atoms: C_2  and  C_3
REMARK    2  A    between atoms: C_3  and  C_4
REMARK    3  A    between atoms: C_15  and  C_16
REMARK    4  A    between atoms: C_16  and  O_17
REMARK    5  A    between atoms: O_17  and  C_18
REMARK                            x       y       z     vdW  Elec       q    Type
REMARK                         _______ _______ _______ _____ _____    ______ ____
ROOT
ATOM      1  O   UNL     1       4.025   2.162  19.526  0.00  0.00    +0.000 OA
ATOM      2  C   UNL     1       3.591   3.277  19.822  0.00  0.00    +0.000 C 
ATOM      3  N   UNL     1       4.323   4.438  19.555  0.00  0.00    +0.000 N 
ATOM      4  C   UNL     1       5.615   4.247  18.887  0.00  0.00    +0.000 C 
ATOM      5  C   UNL     1       6.287   5.496  18.406  0.00  0.00    +0.000 A 
ATOM      6  N   UNL     1       7.576   5.756  18.539  0.00  0.00    +0.000 NA
ATOM      7  C   UNL     1       7.801   6.930  17.874  0.00  0.00    +0.000 A 
ATOM      8  C   UNL     1       6.629   7.424  17.360  0.00  0.00    +0.000 A 
ATOM      9  N   UNL     1       5.668   6.512  17.711  0.00  0.00    +0.000 N 
ATOM     10  C   UNL     1       4.272   6.598  17.327  0.00  0.00    +0.000 C 
ATOM     11  C   UNL     1       3.217   6.306  18.416  0.00  0.00    +0.000 C 
ATOM     12  C   UNL     1       3.801   5.787  19.733  0.00  0.00    +0.000 C 
ENDROOT
BRANCH   2  13
ATOM     13  C   UNL     1       2.245   3.452  20.522  0.00  0.00    +0.000 C 
BRANCH  13  14
ATOM     14  C   UNL     1       1.059   3.546  19.602  0.00  0.00    +0.000 C 
ATOM     15  C   UNL     1       1.270   3.399  18.117  0.00  0.00    +0.000 C 
ATOM     16  C   UNL     1       0.552   2.321  18.881  0.00  0.00    +0.000 C 
ENDBRANCH  13  14
ENDBRANCH   2  13
BRANCH  11  17
ATOM     17  C   UNL     1       2.333   7.521  18.706  0.00  0.00    +0.000 C 
BRANCH  17  18
ATOM     18  O   UNL     1       1.938   7.511  20.078  0.00  0.00    +0.000 OA
BRANCH  18  19
ATOM     19  C   UNL     1       1.292   8.631  20.523  0.00  0.00    +0.000 A 
ATOM     20  C   UNL     1       0.676   9.594  19.727  0.00  0.00    +0.000 A 
ATOM     21  C   UNL     1       0.033  10.677  20.324  0.00  0.00    +0.000 A 
ATOM     22  C   UNL     1       0.038  10.766  21.706  0.00  0.00    +0.000 A 
ATOM     23  N   UNL     1       0.635   9.863  22.511  0.00  0.00    +0.000 NA
ATOM     24  C   UNL     1       1.252   8.821  21.900  0.00  0.00    +0.000 A 
ENDBRANCH  18  19
ENDBRANCH  17  18
ENDBRANCH  11  17
TORSDOF 5
ENDMDL
MODEL 6
REMARK VINA RESULT:      -7.4      3.972      5.648
REMARK  Name = 
REMARK  5 active torsions:
REMARK  status: ('A' for Active; 'I' for Inactive)
REMARK    1  A    between atoms: C_2  and  C_3
REMARK    2  A    between atoms: C_3  and  C_4
REMARK    3  A    between atoms: C_15  and  C_16
REMARK    4  A    between atoms: C_16  and  O_17
REMARK    5  A    between atoms: O_17  and  C_18
REMARK                            x       y       z     vdW  Elec       q    Type
REMARK                         _______ _______ _______ _____ _____    ______ ____
ROOT
ATOM      1  O   UNL     1       7.028   4.495  18.899  0.00  0.00    +0.000 OA
ATOM      2  C   UNL     1       6.141   5.011  18.217  0.00  0.00    +0.000 C 
ATOM      3  N   UNL     1       4.793   4.707  18.425  0.00  0.00    +0.000 N 
ATOM      4  C   UNL     1       4.503   3.762  19.508  0.00  0.00    +0.000 C 
ATOM      5  C   UNL     1       3.057   3.613  19.870  0.00  0.00    +0.000 A 
ATOM      6  N   UNL     1       2.457   2.461  20.114  0.00  0.00    +0.000 NA
ATOM      7  C   UNL     1       1.185   2.768  20.513  0.00  0.00    +0.000 A 
ATOM      8  C   UNL     1       0.983   4.124  20.473  0.00  0.00    +0.000 A 
ATOM      9  N   UNL     1       2.175   4.655  20.054  0.00  0.00    +0.000 N 
ATOM     10  C   UNL     1       2.442   6.074  19.920  0.00  0.00    +0.000 C 
ATOM     11  C   UNL     1       3.181   6.540  18.647  0.00  0.00    +0.000 C 
ATOM     12  C   UNL     1       3.693   5.399  17.764  0.00  0.00    +0.000 C 
ENDROOT
BRANCH   2  13
ATOM     13  C   UNL     1       6.466   5.989  17.090  0.00  0.00    +0.000 C 
BRANCH  13  14
ATOM     14  C   UNL     1       6.845   5.347  15.783  0.00  0.00    +0.000 C 
ATOM     15  C   UNL     1       6.344   3.959  15.475  0.00  0.00    +0.000 C 
ATOM     16  C   UNL     1       5.808   5.136  14.707  0.00  0.00    +0.000 C 
ENDBRANCH  13  14
ENDBRANCH   2  13
BRANCH  11  17
ATOM     17  C   UNL     1       2.328   7.486  17.796  0.00  0.00    +0.000 C 
BRANCH  17  18
ATOM     18  O   UNL     1       2.446   8.818  18.294  0.00  0.00    +0.000 OA
BRANCH  18  19
ATOM     19  C   UNL     1       1.313   9.357  18.836  0.00  0.00    +0.000 A 
ATOM     20  C   UNL     1       0.994   9.406  20.192  0.00  0.00    +0.000 A 
ATOM     21  C   UNL     1      -0.194  10.009  20.602  0.00  0.00    +0.000 A 
ATOM     22  C   UNL     1      -1.033  10.537  19.635  0.00  0.00    +0.000 A 
ATOM     23  N   UNL     1      -0.768  10.497  18.313  0.00  0.00    +0.000 NA
ATOM     24  C   UNL     1       0.396   9.903  17.946  0.00  0.00    +0.000 A 
ENDBRANCH  18  19
ENDBRANCH  17  18
ENDBRANCH  11  17
TORSDOF 5
ENDMDL
MODEL 7
REMARK VINA RESULT:      -7.3      3.944      6.399
REMARK  Name = 
REMARK  5 active torsions:
REMARK  status: ('A' for Active; 'I' for Inactive)
REMARK    1  A    between atoms: C_2  and  C_3
REMARK    2  A    between atoms: C_3  and  C_4
REMARK    3  A    between atoms: C_15  and  C_16
REMARK    4  A    between atoms: C_16  and  O_17
REMARK    5  A    between atoms: O_17  and  C_18
REMARK                            x       y       z     vdW  Elec       q    Type
REMARK                         _______ _______ _______ _____ _____    ______ ____
ROOT
ATOM      1  O   UNL     1       3.261   2.221  17.743  0.00  0.00    +0.000 OA
ATOM      2  C   UNL     1       2.959   3.240  18.365  0.00  0.00    +0.000 C 
ATOM      3  N   UNL     1       3.857   4.302  18.504  0.00  0.00    +0.000 N 
ATOM      4  C   UNL     1       5.159   4.135  17.852  0.00  0.00    +0.000 C 
ATOM      5  C   UNL     1       6.028   5.355  17.815  0.00  0.00    +0.000 A 
ATOM      6  N   UNL     1       7.326   5.364  18.064  0.00  0.00    +0.000 NA
ATOM      7  C   UNL     1       7.756   6.638  17.815  0.00  0.00    +0.000 A 
ATOM      8  C   UNL     1       6.703   7.438  17.450  0.00  0.00    +0.000 A 
ATOM      9  N   UNL     1       5.605   6.618  17.461  0.00  0.00    +0.000 N 
ATOM     10  C   UNL     1       4.268   7.029  17.081  0.00  0.00    +0.000 C 
ATOM     11  C   UNL     1       3.102   6.576  17.987  0.00  0.00    +0.000 C 
ATOM     12  C   UNL     1       3.508   5.591  19.088  0.00  0.00    +0.000 C 
ENDROOT
BRANCH   2  13
ATOM     13  C   UNL     1       1.598   3.390  19.042  0.00  0.00    +0.000 C 
BRANCH  13  14
ATOM     14  C   UNL     1       1.455   2.657  20.348  0.00  0.00    +0.000 C 
ATOM     15  C   UNL     1       2.662   2.501  21.237  0.00  0.00    +0.000 C 
ATOM     16  C   UNL     1       1.536   3.406  21.656  0.00  0.00    +0.000 C 
ENDBRANCH  13  14
ENDBRANCH   2  13
BRANCH  11  17
ATOM     17  C   UNL     1       2.368   7.760  18.623  0.00  0.00    +0.000 C 
BRANCH  17  18
ATOM     18  O   UNL     1       1.835   8.600  17.598  0.00  0.00    +0.000 OA
BRANCH  18  19
ATOM     19  C   UNL     1       1.059   9.641  18.023  0.00  0.00    +0.000 A 
ATOM     20  C   UNL     1      -0.331   9.713  17.951  0.00  0.00    +0.000 A 
ATOM     21  C   UNL     1      -0.993  10.835  18.447  0.00  0.00    +0.000 A 
ATOM     22  C   UNL     1      -0.236  11.859  18.993  0.00  0.00    +0.000 A 
ATOM     23  N   UNL     1       1.111  11.833  19.070  0.00  0.00    +0.000 NA
ATOM     24  C   UNL     1       1.725  10.728  18.578  0.00  0.00    +0.000 A 
ENDBRANCH  18  19
ENDBRANCH  17  18
ENDBRANCH  11  17
TORSDOF 5
ENDMDL
MODEL 8
REMARK VINA RESULT:      -7.2      4.064      6.365
REMARK  Name = 
REMARK  5 active torsions:
REMARK  status: ('A' for Active; 'I' for Inactive)
REMARK    1  A    between atoms: C_2  and  C_3
REMARK    2  A    between atoms: C_3  and  C_4
REMARK    3  A    between atoms: C_15  and  C_16
REMARK    4  A    between atoms: C_16  and  O_17
REMARK    5  A    between atoms: O_17  and  C_18
REMARK                            x       y       z     vdW  Elec       q    Type
REMARK                         _______ _______ _______ _____ _____    ______ ____
ROOT
ATOM      1  O   UNL     1       2.410   2.257  17.245  0.00  0.00    +0.000 OA
ATOM      2  C   UNL     1       2.368   3.130  18.114  0.00  0.00    +0.000 C 
ATOM      3  N   UNL     1       3.386   4.079  18.243  0.00  0.00    +0.000 N 
ATOM      4  C   UNL     1       4.483   3.984  17.275  0.00  0.00    +0.000 C 
ATOM      5  C   UNL     1       5.451   5.128  17.276  0.00  0.00    +0.000 A 
ATOM      6  N   UNL     1       6.764   5.004  17.201  0.00  0.00    +0.000 NA
ATOM      7  C   UNL     1       7.266   6.274  17.117  0.00  0.00    +0.000 A 
ATOM      8  C   UNL     1       6.252   7.196  17.185  0.00  0.00    +0.000 A 
ATOM      9  N   UNL     1       5.101   6.461  17.296  0.00  0.00    +0.000 N 
ATOM     10  C   UNL     1       3.766   7.024  17.341  0.00  0.00    +0.000 C 
ATOM     11  C   UNL     1       2.789   6.452  18.391  0.00  0.00    +0.000 C 
ATOM     12  C   UNL     1       3.319   5.226  19.140  0.00  0.00    +0.000 C 
ENDROOT
BRANCH   2  13
ATOM     13  C   UNL     1       1.218   3.207  19.116  0.00  0.00    +0.000 C 
BRANCH  13  14
ATOM     14  C   UNL     1       1.373   2.331  20.329  0.00  0.00    +0.000 C 
ATOM     15  C   UNL     1       2.602   2.480  21.188  0.00  0.00    +0.000 C 
ATOM     16  C   UNL     1       1.263   2.919  21.715  0.00  0.00    +0.000 C 
ENDBRANCH  13  14
ENDBRANCH   2  13
BRANCH  11  17
ATOM     17  C   UNL     1       2.350   7.507  19.410  0.00  0.00    +0.000 C 
BRANCH  17  18
ATOM     18  O   UNL     1       2.065   8.734  18.737  0.00  0.00    +0.000 OA
BRANCH  18  19
ATOM     19  C   UNL     1       1.063   9.492  19.275  0.00  0.00    +0.000 A 
ATOM     20  C   UNL     1       0.753   9.603  20.629  0.00  0.00    +0.000 A 
ATOM     21  C   UNL     1      -0.289  10.436  21.034  0.00  0.00    +0.000 A 
ATOM     22  C   UNL     1      -0.997  11.126  20.064  0.00  0.00    +0.000 A 
ATOM     23  N   UNL     1      -0.737  11.035  18.743  0.00  0.00    +0.000 NA
ATOM     24  C   UNL     1       0.282  10.216  18.381  0.00  0.00    +0.000 A 
ENDBRANCH  18  19
ENDBRANCH  17  18
ENDBRANCH  11  17
TORSDOF 5
ENDMDL
MODEL 9
REMARK VINA RESULT:      -7.2      4.105      6.126
REMARK  Name = 
REMARK  5 active torsions:
REMARK  status: ('A' for Active; 'I' for Inactive)
REMARK    1  A    between atoms: C_2  and  C_3
REMARK    2  A    between atoms: C_3  and  C_4
REMARK    3  A    between atoms: C_15  and  C_16
REMARK    4  A    between atoms: C_16  and  O_17
REMARK    5  A    between atoms: O_17  and  C_18
REMARK                            x       y       z     vdW  Elec       q    Type
REMARK                         _______ _______ _______ _____ _____    ______ ____
ROOT
ATOM      1  O   UNL     1       7.210   4.263  18.115  0.00  0.00    +0.000 OA
ATOM      2  C   UNL     1       6.340   5.015  17.674  0.00  0.00    +0.000 C 
ATOM      3  N   UNL     1       4.983   4.690  17.760  0.00  0.00    +0.000 N 
ATOM      4  C   UNL     1       4.665   3.420  18.421  0.00  0.00    +0.000 C 
ATOM      5  C   UNL     1       3.214   3.183  18.707  0.00  0.00    +0.000 A 
ATOM      6  N   UNL     1       2.585   2.037  18.513  0.00  0.00    +0.000 NA
ATOM      7  C   UNL     1       1.318   2.206  19.000  0.00  0.00    +0.000 A 
ATOM      8  C   UNL     1       1.150   3.486  19.464  0.00  0.00    +0.000 A 
ATOM      9  N   UNL     1       2.356   4.106  19.265  0.00  0.00    +0.000 N 
ATOM     10  C   UNL     1       2.657   5.467  19.662  0.00  0.00    +0.000 C 
ATOM     11  C   UNL     1       3.415   6.351  18.648  0.00  0.00    +0.000 C 
ATOM     12  C   UNL     1       3.904   5.602  17.405  0.00  0.00    +0.000 C 
ENDROOT
BRANCH   2  13
ATOM     13  C   UNL     1       6.695   6.331  16.985  0.00  0.00    +0.000 C 
BRANCH  13  14
ATOM     14  C   UNL     1       6.965   7.482  17.915  0.00  0.00    +0.000 C 
ATOM     15  C   UNL     1       8.296   7.559  18.617  0.00  0.00    +0.000 C 
ATOM     16  C   UNL     1       7.961   8.551  17.537  0.00  0.00    +0.000 C 
ENDBRANCH  13  14
ENDBRANCH   2  13
BRANCH  11  17
ATOM     17  C   UNL     1       2.590   7.564  18.207  0.00  0.00    +0.000 C 
BRANCH  17  18
ATOM     18  O   UNL     1       2.244   8.349  19.348  0.00  0.00    +0.000 OA
BRANCH  18  19
ATOM     19  C   UNL     1       1.137   9.139  19.217  0.00  0.00    +0.000 A 
ATOM     20  C   UNL     1       0.539   9.523  18.019  0.00  0.00    +0.000 A 
ATOM     21  C   UNL     1      -0.606  10.318  18.040  0.00  0.00    +0.000 A 
ATOM     22  C   UNL     1      -1.111  10.713  19.268  0.00  0.00    +0.000 A 
ATOM     23  N   UNL     1      -0.554  10.375  20.449  0.00  0.00    +0.000 NA
ATOM     24  C   UNL     1       0.559   9.602  20.394  0.00  0.00    +0.000 A 
ENDBRANCH  18  19
ENDBRANCH  17  18
ENDBRANCH  11  17
TORSDOF 5
ENDMDL
