MODEL 1
REMARK VINA RESULT:      -7.6      0.000      0.000
REMARK  Name = 
REMARK  10 active torsions:
REMARK  status: ('A' for Active; 'I' for Inactive)
REMARK    1  A    between atoms: C_1  and  C_2
REMARK    2  A    between atoms: C_8  and  C_9
REMARK    3  A    between atoms: N_11  and  C_12
REMARK    4  A    between atoms: C_12  and  C_13
REMARK    5  A    between atoms: C_13  and  C_14
REMARK    6  A    between atoms: C_14  and  C_15
REMARK    7  A    between atoms: C_15  and  C_17
REMARK    8  A    between atoms: C_26  and  C_27
REMARK    9  A    between atoms: C_28  and  C_29
REMARK   10  A    between atoms: C_29  and  C_30
REMARK                            x       y       z     vdW  Elec       q    Type
REMARK                         _______ _______ _______ _____ _____    ______ ____
ROOT
ATOM      1  C   UNL     1      12.210  13.513  16.333  0.00  0.00    +0.000 C 
ATOM      2  C   UNL     1      12.156  13.400  17.829  0.00  0.00    +0.000 A 
ATOM      3  C   UNL     1      12.036  12.142  18.467  0.00  0.00    +0.000 A 
ATOM      4  C   UNL     1      11.460  12.043  19.740  0.00  0.00    +0.000 A 
ATOM      5  C   UNL     1      10.822  13.152  20.265  0.00  0.00    +0.000 A 
ATOM      6  C   UNL     1      10.990  14.374  19.629  0.00  0.00    +0.000 A 
ATOM      7  C   UNL     1      11.849  14.540  18.544  0.00  0.00    +0.000 A 
ATOM      8  C   UNL     1       9.744  15.253  19.780  0.00  0.00    +0.000 C 
ATOM      9  C   UNL     1      10.190  16.721  19.928  0.00  0.00    +0.000 C 
ATOM     10  C   UNL     1       9.009  15.035  18.382  0.00  0.00    +0.000 C 
ATOM     11  N   UNL     1       7.723  14.367  18.230  0.00  0.00    +0.000 NA
ATOM     12  C   UNL     1       6.893  14.469  19.389  0.00  0.00    +0.000 C 
ATOM     13  C   UNL     1       7.502  14.451  20.801  0.00  0.00    +0.000 C 
ATOM     14  C   UNL     1       9.032  14.621  21.038  0.00  0.00    +0.000 C 
ATOM     15  C   UNL     1       9.165  15.530  22.306  0.00  0.00    +0.000 C 
ATOM     16  C   UNL     1       9.866  13.288  21.420  0.00  0.00    +0.000 C 
ENDROOT
BRANCH  11  17
ATOM     17  C   UNL     1       7.732  13.164  17.378  0.00  0.00    +0.000 C 
BRANCH  17  18
ATOM     18  C   UNL     1       8.447  11.848  17.820  0.00  0.00    +0.000 C 
BRANCH  18  19
ATOM     19  C   UNL     1       7.861  10.463  17.515  0.00  0.00    +0.000 C 
BRANCH  19  20
ATOM     20  C   UNL     1       8.373   9.299  18.353  0.00  0.00    +0.000 C 
ATOM     21  O   UNL     1       9.253   9.472  19.203  0.00  0.00    +0.000 OA
BRANCH  20  22
ATOM     22  C   UNL     1       7.839   7.920  18.102  0.00  0.00    +0.000 A 
ATOM     23  C   UNL     1       7.229   7.578  16.879  0.00  0.00    +0.000 A 
ATOM     24  C   UNL     1       7.009   6.237  16.559  0.00  0.00    +0.000 A 
ATOM     25  C   UNL     1       7.395   5.245  17.448  0.00  0.00    +0.000 A 
ATOM     26  F   UNL     1       7.304   3.964  17.071  0.00  0.00    +0.000 F 
ATOM     27  C   UNL     1       7.938   5.561  18.688  0.00  0.00    +0.000 A 
ATOM     28  C   UNL     1       8.151   6.901  19.021  0.00  0.00    +0.000 A 
ENDBRANCH  20  22
ENDBRANCH  19  20
ENDBRANCH  18  19
ENDBRANCH  17  18
ENDBRANCH  11  17
BRANCH  16  29
ATOM     29  C   UNL     1       9.061  12.042  21.841  0.00  0.00    +0.000 C 
BRANCH  29  30
ATOM     30  C   UNL     1       8.304  12.187  23.151  0.00  0.00    +0.000 A 
ATOM     31  C   UNL     1       8.957  12.570  24.332  0.00  0.00    +0.000 A 
ATOM     32  C   UNL     1       8.311  12.453  25.566  0.00  0.00    +0.000 A 
ATOM     33  C   UNL     1       6.999  11.992  25.628  0.00  0.00    +0.000 A 
ATOM     34  C   UNL     1       6.306  11.711  24.452  0.00  0.00    +0.000 A 
ATOM     35  C   UNL     1       6.948  11.829  23.217  0.00  0.00    +0.000 A 
ENDBRANCH  29  30
ENDBRANCH  16  29
TORSDOF 7
ENDMDL
MODEL 2
REMARK VINA RESULT:      -7.5      2.215      4.802
REMARK  Name = 
REMARK  10 active torsions:
REMARK  status: ('A' for Active; 'I' for Inactive)
REMARK    1  A    between atoms: C_1  and  C_2
REMARK    2  A    between atoms: C_8  and  C_9
REMARK    3  A    between atoms: N_11  and  C_12
REMARK    4  A    between atoms: C_12  and  C_13
REMARK    5  A    between atoms: C_13  and  C_14
REMARK    6  A    between atoms: C_14  and  C_15
REMARK    7  A    between atoms: C_15  and  C_17
REMARK    8  A    between atoms: C_26  and  C_27
REMARK    9  A    between atoms: C_28  and  C_29
REMARK   10  A    between atoms: C_29  and  C_30
REMARK                            x       y       z     vdW  Elec       q    Type
REMARK                         _______ _______ _______ _____ _____    ______ ____
ROOT
ATOM      1  C   UNL     1       8.862  11.850  23.619  0.00  0.00    +0.000 C 
ATOM      2  C   UNL     1       8.585  13.030  22.731  0.00  0.00    +0.000 A 
ATOM      3  C   UNL     1       7.300  13.251  22.181  0.00  0.00    +0.000 A 
ATOM      4  C   UNL     1       7.152  13.968  20.988  0.00  0.00    +0.000 A 
ATOM      5  C   UNL     1       8.284  14.268  20.252  0.00  0.00    +0.000 A 
ATOM      6  C   UNL     1       9.525  14.068  20.838  0.00  0.00    +0.000 A 
ATOM      7  C   UNL     1       9.670  13.669  22.165  0.00  0.00    +0.000 A 
ATOM      8  C   UNL     1      10.578  13.690  19.789  0.00  0.00    +0.000 C 
ATOM      9  C   UNL     1      11.923  14.330  20.186  0.00  0.00    +0.000 C 
ATOM     10  C   UNL     1      10.650  12.104  19.945  0.00  0.00    +0.000 C 
ATOM     11  N   UNL     1      10.231  11.163  18.916  0.00  0.00    +0.000 NA
ATOM     12  C   UNL     1      10.335  11.688  17.592  0.00  0.00    +0.000 C 
ATOM     13  C   UNL     1      10.051  13.172  17.306  0.00  0.00    +0.000 C 
ATOM     14  C   UNL     1       9.933  14.221  18.452  0.00  0.00    +0.000 C 
ATOM     15  C   UNL     1      10.652  15.507  17.923  0.00  0.00    +0.000 C 
ATOM     16  C   UNL     1       8.443  14.730  18.828  0.00  0.00    +0.000 C 
ENDROOT
BRANCH  11  17
ATOM     17  C   UNL     1       9.150  10.238  19.307  0.00  0.00    +0.000 C 
BRANCH  17  18
ATOM     18  C   UNL     1       8.459   9.295  18.272  0.00  0.00    +0.000 C 
BRANCH  18  19
ATOM     19  C   UNL     1       8.218   7.808  18.563  0.00  0.00    +0.000 C 
BRANCH  19  20
ATOM     20  C   UNL     1       7.472   7.011  17.501  0.00  0.00    +0.000 C 
ATOM     21  O   UNL     1       7.851   7.017  16.324  0.00  0.00    +0.000 OA
BRANCH  20  22
ATOM     22  C   UNL     1       6.232   6.258  17.882  0.00  0.00    +0.000 A 
ATOM     23  C   UNL     1       5.131   6.161  17.007  0.00  0.00    +0.000 A 
ATOM     24  C   UNL     1       4.124   5.227  17.253  0.00  0.00    +0.000 A 
ATOM     25  C   UNL     1       4.212   4.395  18.360  0.00  0.00    +0.000 A 
ATOM     26  F   UNL     1       3.312   3.415  18.508  0.00  0.00    +0.000 F 
ATOM     27  C   UNL     1       5.254   4.518  19.272  0.00  0.00    +0.000 A 
ATOM     28  C   UNL     1       6.261   5.458  19.039  0.00  0.00    +0.000 A 
ENDBRANCH  20  22
ENDBRANCH  19  20
ENDBRANCH  18  19
ENDBRANCH  17  18
ENDBRANCH  11  17
BRANCH  16  29
ATOM     29  C   UNL     1       7.309  14.407  17.833  0.00  0.00    +0.000 C 
BRANCH  29  30
ATOM     30  C   UNL     1       6.013  15.162  18.080  0.00  0.00    +0.000 A 
ATOM     31  C   UNL     1       6.015  16.457  18.619  0.00  0.00    +0.000 A 
ATOM     32  C   UNL     1       4.827  17.033  19.076  0.00  0.00    +0.000 A 
ATOM     33  C   UNL     1       3.624  16.340  18.964  0.00  0.00    +0.000 A 
ATOM     34  C   UNL     1       3.597  15.099  18.333  0.00  0.00    +0.000 A 
ATOM     35  C   UNL     1       4.782  14.520  17.874  0.00  0.00    +0.000 A 
ENDBRANCH  29  30
ENDBRANCH  16  29
TORSDOF 7
ENDMDL
MODEL 3
REMARK VINA RESULT:      -7.2     10.389     12.650
REMARK  Name = 
REMARK  10 active torsions:
REMARK  status: ('A' for Active; 'I' for Inactive)
REMARK    1  A    between atoms: C_1  and  C_2
REMARK    2  A    between atoms: C_8  and  C_9
REMARK    3  A    between atoms: N_11  and  C_12
REMARK    4  A    between atoms: C_12  and  C_13
REMARK    5  A    between atoms: C_13  and  C_14
REMARK    6  A    between atoms: C_14  and  C_15
REMARK    7  A    between atoms: C_15  and  C_17
REMARK    8  A    between atoms: C_26  and  C_27
REMARK    9  A    between atoms: C_28  and  C_29
REMARK   10  A    between atoms: C_29  and  C_30
REMARK                            x       y       z     vdW  Elec       q    Type
REMARK                         _______ _______ _______ _____ _____    ______ ____
ROOT
ATOM      1  C   UNL     1      -3.433  18.070  19.680  0.00  0.00    +0.000 C 
ATOM      2  C   UNL     1      -2.601  17.120  20.492  0.00  0.00    +0.000 A 
ATOM      3  C   UNL     1      -2.067  15.940  19.923  0.00  0.00    +0.000 A 
ATOM      4  C   UNL     1      -1.780  14.829  20.728  0.00  0.00    +0.000 A 
ATOM      5  C   UNL     1      -2.224  14.831  22.038  0.00  0.00    +0.000 A 
ATOM      6  C   UNL     1      -2.711  16.016  22.570  0.00  0.00    +0.000 A 
ATOM      7  C   UNL     1      -2.680  17.219  21.867  0.00  0.00    +0.000 A 
ATOM      8  C   UNL     1      -3.802  15.748  23.612  0.00  0.00    +0.000 C 
ATOM      9  C   UNL     1      -3.674  16.791  24.740  0.00  0.00    +0.000 C 
ATOM     10  C   UNL     1      -5.135  15.998  22.773  0.00  0.00    +0.000 C 
ATOM     11  N   UNL     1      -6.101  14.959  22.447  0.00  0.00    +0.000 NA
ATOM     12  C   UNL     1      -6.124  13.890  23.395  0.00  0.00    +0.000 C 
ATOM     13  C   UNL     1      -4.834  13.420  24.087  0.00  0.00    +0.000 C 
ATOM     14  C   UNL     1      -3.519  14.253  24.025  0.00  0.00    +0.000 C 
ATOM     15  C   UNL     1      -2.885  14.147  25.453  0.00  0.00    +0.000 C 
ATOM     16  C   UNL     1      -2.356  13.713  23.037  0.00  0.00    +0.000 C 
ENDROOT
BRANCH  11  17
ATOM     17  C   UNL     1      -6.323  14.731  21.007  0.00  0.00    +0.000 C 
BRANCH  17  18
ATOM     18  C   UNL     1      -5.261  14.016  20.113  0.00  0.00    +0.000 C 
BRANCH  18  19
ATOM     19  C   UNL     1      -5.200  12.488  19.989  0.00  0.00    +0.000 C 
BRANCH  19  20
ATOM     20  C   UNL     1      -5.067  11.916  18.584  0.00  0.00    +0.000 C 
ATOM     21  O   UNL     1      -6.060  11.783  17.859  0.00  0.00    +0.000 OA
BRANCH  20  22
ATOM     22  C   UNL     1      -3.723  11.460  18.099  0.00  0.00    +0.000 A 
ATOM     23  C   UNL     1      -2.535  11.841  18.753  0.00  0.00    +0.000 A 
ATOM     24  C   UNL     1      -1.339  11.180  18.471  0.00  0.00    +0.000 A 
ATOM     25  C   UNL     1      -1.326  10.147  17.545  0.00  0.00    +0.000 A 
ATOM     26  F   UNL     1      -0.204   9.433  17.385  0.00  0.00    +0.000 F 
ATOM     27  C   UNL     1      -2.470   9.798  16.838  0.00  0.00    +0.000 A 
ATOM     28  C   UNL     1      -3.670  10.462  17.107  0.00  0.00    +0.000 A 
ENDBRANCH  20  22
ENDBRANCH  19  20
ENDBRANCH  18  19
ENDBRANCH  17  18
ENDBRANCH  11  17
BRANCH  16  29
ATOM     29  C   UNL     1      -2.492  12.274  22.498  0.00  0.00    +0.000 C 
BRANCH  29  30
ATOM     30  C   UNL     1      -1.192  11.488  22.452  0.00  0.00    +0.000 A 
ATOM     31  C   UNL     1      -0.178  11.808  21.537  0.00  0.00    +0.000 A 
ATOM     32  C   UNL     1       0.890  10.931  21.331  0.00  0.00    +0.000 A 
ATOM     33  C   UNL     1       0.976   9.749  22.061  0.00  0.00    +0.000 A 
ATOM     34  C   UNL     1       0.032   9.474  23.048  0.00  0.00    +0.000 A 
ATOM     35  C   UNL     1      -1.036  10.349  23.258  0.00  0.00    +0.000 A 
ENDBRANCH  29  30
ENDBRANCH  16  29
TORSDOF 7
ENDMDL
MODEL 4
REMARK VINA RESULT:      -7.1      6.708     10.576
REMARK  Name = 
REMARK  10 active torsions:
REMARK  status: ('A' for Active; 'I' for Inactive)
REMARK    1  A    between atoms: C_1  and  C_2
REMARK    2  A    between atoms: C_8  and  C_9
REMARK    3  A    between atoms: N_11  and  C_12
REMARK    4  A    between atoms: C_12  and  C_13
REMARK    5  A    between atoms: C_13  and  C_14
REMARK    6  A    between atoms: C_14  and  C_15
REMARK    7  A    between atoms: C_15  and  C_17
REMARK    8  A    between atoms: C_26  and  C_27
REMARK    9  A    between atoms: C_28  and  C_29
REMARK   10  A    between atoms: C_29  and  C_30
REMARK                            x       y       z     vdW  Elec       q    Type
REMARK                         _______ _______ _______ _____ _____    ______ ____
ROOT
ATOM      1  C   UNL     1      -1.818  13.532  23.004  0.00  0.00    +0.000 C 
ATOM      2  C   UNL     1      -1.694  12.143  22.447  0.00  0.00    +0.000 A 
ATOM      3  C   UNL     1      -0.938  11.149  23.113  0.00  0.00    +0.000 A 
ATOM      4  C   UNL     1      -0.377  10.084  22.396  0.00  0.00    +0.000 A 
ATOM      5  C   UNL     1      -0.392  10.137  21.014  0.00  0.00    +0.000 A 
ATOM      6  C   UNL     1      -1.172  11.105  20.398  0.00  0.00    +0.000 A 
ATOM      7  C   UNL     1      -2.008  11.960  21.115  0.00  0.00    +0.000 A 
ATOM      8  C   UNL     1      -0.551  11.553  19.070  0.00  0.00    +0.000 C 
ATOM      9  C   UNL     1      -1.686  11.833  18.065  0.00  0.00    +0.000 C 
ATOM     10  C   UNL     1       0.174  12.913  19.481  0.00  0.00    +0.000 C 
ATOM     11  N   UNL     1       1.618  13.103  19.472  0.00  0.00    +0.000 NA
ATOM     12  C   UNL     1       2.293  12.270  18.527  0.00  0.00    +0.000 C 
ATOM     13  C   UNL     1       1.797  10.843  18.238  0.00  0.00    +0.000 C 
ATOM     14  C   UNL     1       0.400  10.346  18.714  0.00  0.00    +0.000 C 
ATOM     15  C   UNL     1      -0.165   9.481  17.538  0.00  0.00    +0.000 C 
ATOM     16  C   UNL     1       0.373   9.346  19.987  0.00  0.00    +0.000 C 
ENDROOT
BRANCH  11  17
ATOM     17  C   UNL     1       2.217  13.455  20.772  0.00  0.00    +0.000 C 
BRANCH  17  18
ATOM     18  C   UNL     1       1.721  14.681  21.603  0.00  0.00    +0.000 C 
BRANCH  18  19
ATOM     19  C   UNL     1       1.237  15.974  20.933  0.00  0.00    +0.000 C 
BRANCH  19  20
ATOM     20  C   UNL     1       2.307  16.965  20.496  0.00  0.00    +0.000 C 
ATOM     21  O   UNL     1       2.238  18.155  20.826  0.00  0.00    +0.000 OA
BRANCH  20  22
ATOM     22  C   UNL     1       3.425  16.500  19.611  0.00  0.00    +0.000 A 
ATOM     23  C   UNL     1       4.697  16.192  20.132  0.00  0.00    +0.000 A 
ATOM     24  C   UNL     1       5.620  15.492  19.353  0.00  0.00    +0.000 A 
ATOM     25  C   UNL     1       5.279  15.101  18.067  0.00  0.00    +0.000 A 
ATOM     26  F   UNL     1       6.119  14.314  17.383  0.00  0.00    +0.000 F 
ATOM     27  C   UNL     1       4.055  15.452  17.508  0.00  0.00    +0.000 A 
ATOM     28  C   UNL     1       3.129  16.162  18.277  0.00  0.00    +0.000 A 
ENDBRANCH  20  22
ENDBRANCH  19  20
ENDBRANCH  18  19
ENDBRANCH  17  18
ENDBRANCH  11  17
BRANCH  16  29
ATOM     29  C   UNL     1       1.708   8.706  20.416  0.00  0.00    +0.000 C 
BRANCH  29  30
ATOM     30  C   UNL     1       1.968   7.326  19.834  0.00  0.00    +0.000 A 
ATOM     31  C   UNL     1       1.718   6.162  20.576  0.00  0.00    +0.000 A 
ATOM     32  C   UNL     1       2.194   4.926  20.134  0.00  0.00    +0.000 A 
ATOM     33  C   UNL     1       2.888   4.833  18.930  0.00  0.00    +0.000 A 
ATOM     34  C   UNL     1       3.048   5.965  18.134  0.00  0.00    +0.000 A 
ATOM     35  C   UNL     1       2.572   7.202  18.573  0.00  0.00    +0.000 A 
ENDBRANCH  29  30
ENDBRANCH  16  29
TORSDOF 7
ENDMDL
MODEL 5
REMARK VINA RESULT:      -7.0     10.305     12.348
REMARK  Name = 
REMARK  10 active torsions:
REMARK  status: ('A' for Active; 'I' for Inactive)
REMARK    1  A    between atoms: C_1  and  C_2
REMARK    2  A    between atoms: C_8  and  C_9
REMARK    3  A    between atoms: N_11  and  C_12
REMARK    4  A    between atoms: C_12  and  C_13
REMARK    5  A    between atoms: C_13  and  C_14
REMARK    6  A    between atoms: C_14  and  C_15
REMARK    7  A    between atoms: C_15  and  C_17
REMARK    8  A    between atoms: C_26  and  C_27
REMARK    9  A    between atoms: C_28  and  C_29
REMARK   10  A    between atoms: C_29  and  C_30
REMARK                            x       y       z     vdW  Elec       q    Type
REMARK                         _______ _______ _______ _____ _____    ______ ____
ROOT
ATOM      1  C   UNL     1       1.264   7.879  21.108  0.00  0.00    +0.000 C 
ATOM      2  C   UNL     1       0.857   9.072  21.925  0.00  0.00    +0.000 A 
ATOM      3  C   UNL     1      -0.363   9.089  22.643  0.00  0.00    +0.000 A 
ATOM      4  C   UNL     1      -0.996  10.303  22.939  0.00  0.00    +0.000 A 
ATOM      5  C   UNL     1      -0.526  11.457  22.338  0.00  0.00    +0.000 A 
ATOM      6  C   UNL     1       0.690  11.407  21.672  0.00  0.00    +0.000 A 
ATOM      7  C   UNL     1       1.494  10.269  21.667  0.00  0.00    +0.000 A 
ATOM      8  C   UNL     1       0.715  12.386  20.493  0.00  0.00    +0.000 C 
ATOM      9  C   UNL     1       2.134  12.978  20.373  0.00  0.00    +0.000 C 
ATOM     10  C   UNL     1       0.408  11.428  19.255  0.00  0.00    +0.000 C 
ATOM     11  N   UNL     1      -0.801  11.501  18.447  0.00  0.00    +0.000 NA
ATOM     12  C   UNL     1      -1.383  12.805  18.415  0.00  0.00    +0.000 C 
ATOM     13  C   UNL     1      -1.341  13.719  19.652  0.00  0.00    +0.000 C 
ATOM     14  C   UNL     1      -0.425  13.407  20.872  0.00  0.00    +0.000 C 
ATOM     15  C   UNL     1       0.152  14.788  21.332  0.00  0.00    +0.000 C 
ATOM     16  C   UNL     1      -1.146  12.821  22.198  0.00  0.00    +0.000 C 
ENDROOT
BRANCH  11  17
ATOM     17  C   UNL     1      -1.624  10.277  18.429  0.00  0.00    +0.000 C 
BRANCH  17  18
ATOM     18  C   UNL     1      -2.721  10.038  17.343  0.00  0.00    +0.000 C 
BRANCH  18  19
ATOM     19  C   UNL     1      -4.212   9.969  17.695  0.00  0.00    +0.000 C 
BRANCH  19  20
ATOM     20  C   UNL     1      -4.992  11.276  17.648  0.00  0.00    +0.000 C 
ATOM     21  O   UNL     1      -4.876  12.047  16.688  0.00  0.00    +0.000 OA
BRANCH  20  22
ATOM     22  C   UNL     1      -5.866  11.655  18.807  0.00  0.00    +0.000 A 
ATOM     23  C   UNL     1      -6.986  10.882  19.168  0.00  0.00    +0.000 A 
ATOM     24  C   UNL     1      -7.603  11.080  20.404  0.00  0.00    +0.000 A 
ATOM     25  C   UNL     1      -7.107  12.039  21.274  0.00  0.00    +0.000 A 
ATOM     26  F   UNL     1      -7.621  12.125  22.508  0.00  0.00    +0.000 F 
ATOM     27  C   UNL     1      -6.045  12.860  20.913  0.00  0.00    +0.000 A 
ATOM     28  C   UNL     1      -5.428  12.675  19.673  0.00  0.00    +0.000 A 
ENDBRANCH  20  22
ENDBRANCH  19  20
ENDBRANCH  18  19
ENDBRANCH  17  18
ENDBRANCH  11  17
BRANCH  16  29
ATOM     29  C   UNL     1      -2.683  12.927  22.276  0.00  0.00    +0.000 C 
BRANCH  29  30
ATOM     30  C   UNL     1      -3.200  14.195  22.936  0.00  0.00    +0.000 A 
ATOM     31  C   UNL     1      -3.501  15.339  22.181  0.00  0.00    +0.000 A 
ATOM     32  C   UNL     1      -3.726  16.564  22.814  0.00  0.00    +0.000 A 
ATOM     33  C   UNL     1      -3.693  16.650  24.204  0.00  0.00    +0.000 A 
ATOM     34  C   UNL     1      -3.502  15.499  24.965  0.00  0.00    +0.000 A 
ATOM     35  C   UNL     1      -3.277  14.273  24.335  0.00  0.00    +0.000 A 
ENDBRANCH  29  30
ENDBRANCH  16  29
TORSDOF 7
ENDMDL
MODEL 6
REMARK VINA RESULT:      -7.0      6.526     10.424
REMARK  Name = 
REMARK  10 active torsions:
REMARK  status: ('A' for Active; 'I' for Inactive)
REMARK    1  A    between atoms: C_1  and  C_2
REMARK    2  A    between atoms: C_8  and  C_9
REMARK    3  A    between atoms: N_11  and  C_12
REMARK    4  A    between atoms: C_12  and  C_13
REMARK    5  A    between atoms: C_13  and  C_14
REMARK    6  A    between atoms: C_14  and  C_15
REMARK    7  A    between atoms: C_15  and  C_17
REMARK    8  A    between atoms: C_26  and  C_27
REMARK    9  A    between atoms: C_28  and  C_29
REMARK   10  A    between atoms: C_29  and  C_30
REMARK                            x       y       z     vdW  Elec       q    Type
REMARK                         _______ _______ _______ _____ _____    ______ ____
ROOT
ATOM      1  C   UNL     1      -1.567  13.357  23.242  0.00  0.00    +0.000 C 
ATOM      2  C   UNL     1      -1.488  11.992  22.623  0.00  0.00    +0.000 A 
ATOM      3  C   UNL     1      -0.711  10.964  23.207  0.00  0.00    +0.000 A 
ATOM      4  C   UNL     1      -0.199   9.925  22.420  0.00  0.00    +0.000 A 
ATOM      5  C   UNL     1      -0.282  10.036  21.044  0.00  0.00    +0.000 A 
ATOM      6  C   UNL     1      -1.079  11.037  20.509  0.00  0.00    +0.000 A 
ATOM      7  C   UNL     1      -1.869  11.868  21.301  0.00  0.00    +0.000 A 
ATOM      8  C   UNL     1      -0.520  11.535  19.171  0.00  0.00    +0.000 C 
ATOM      9  C   UNL     1      -1.700  11.868  18.236  0.00  0.00    +0.000 C 
ATOM     10  C   UNL     1       0.240  12.869  19.602  0.00  0.00    +0.000 C 
ATOM     11  N   UNL     1       1.684  13.046  19.529  0.00  0.00    +0.000 NA
ATOM     12  C   UNL     1       2.301  12.247  18.518  0.00  0.00    +0.000 C 
ATOM     13  C   UNL     1       1.776  10.838  18.193  0.00  0.00    +0.000 C 
ATOM     14  C   UNL     1       0.398  10.335  18.718  0.00  0.00    +0.000 C 
ATOM     15  C   UNL     1      -0.234   9.526  17.536  0.00  0.00    +0.000 C 
ATOM     16  C   UNL     1       0.422   9.282  19.947  0.00  0.00    +0.000 C 
ENDROOT
BRANCH  11  17
ATOM     17  C   UNL     1       2.351  13.336  20.811  0.00  0.00    +0.000 C 
BRANCH  17  18
ATOM     18  C   UNL     1       2.787  14.784  21.203  0.00  0.00    +0.000 C 
BRANCH  18  19
ATOM     19  C   UNL     1       2.375  16.008  20.374  0.00  0.00    +0.000 C 
BRANCH  19  20
ATOM     20  C   UNL     1       3.023  16.163  19.005  0.00  0.00    +0.000 C 
ATOM     21  O   UNL     1       2.344  16.460  18.015  0.00  0.00    +0.000 OA
BRANCH  20  22
ATOM     22  C   UNL     1       4.491  15.896  18.850  0.00  0.00    +0.000 A 
ATOM     23  C   UNL     1       4.964  14.744  18.191  0.00  0.00    +0.000 A 
ATOM     24  C   UNL     1       6.302  14.662  17.805  0.00  0.00    +0.000 A 
ATOM     25  C   UNL     1       7.162  15.717  18.071  0.00  0.00    +0.000 A 
ATOM     26  F   UNL     1       8.406  15.683  17.575  0.00  0.00    +0.000 F 
ATOM     27  C   UNL     1       6.734  16.834  18.778  0.00  0.00    +0.000 A 
ATOM     28  C   UNL     1       5.397  16.920  19.179  0.00  0.00    +0.000 A 
ENDBRANCH  20  22
ENDBRANCH  19  20
ENDBRANCH  18  19
ENDBRANCH  17  18
ENDBRANCH  11  17
BRANCH  16  29
ATOM     29  C   UNL     1       1.770   8.611  20.282  0.00  0.00    +0.000 C 
BRANCH  29  30
ATOM     30  C   UNL     1       1.940   7.211  19.717  0.00  0.00    +0.000 A 
ATOM     31  C   UNL     1       1.634   6.074  20.480  0.00  0.00    +0.000 A 
ATOM     32  C   UNL     1       2.032   4.806  20.049  0.00  0.00    +0.000 A 
ATOM     33  C   UNL     1       2.702   4.657  18.837  0.00  0.00    +0.000 A 
ATOM     34  C   UNL     1       2.915   5.767  18.022  0.00  0.00    +0.000 A 
ATOM     35  C   UNL     1       2.518   7.035  18.449  0.00  0.00    +0.000 A 
ENDBRANCH  29  30
ENDBRANCH  16  29
TORSDOF 7
ENDMDL
MODEL 7
REMARK VINA RESULT:      -6.9      7.141     11.114
REMARK  Name = 
REMARK  10 active torsions:
REMARK  status: ('A' for Active; 'I' for Inactive)
REMARK    1  A    between atoms: C_1  and  C_2
REMARK    2  A    between atoms: C_8  and  C_9
REMARK    3  A    between atoms: N_11  and  C_12
REMARK    4  A    between atoms: C_12  and  C_13
REMARK    5  A    between atoms: C_13  and  C_14
REMARK    6  A    between atoms: C_14  and  C_15
REMARK    7  A    between atoms: C_15  and  C_17
REMARK    8  A    between atoms: C_26  and  C_27
REMARK    9  A    between atoms: C_28  and  C_29
REMARK   10  A    between atoms: C_29  and  C_30
REMARK                            x       y       z     vdW  Elec       q    Type
REMARK                         _______ _______ _______ _____ _____    ______ ____
ROOT
ATOM      1  C   UNL     1      -1.438  12.944  23.275  0.00  0.00    +0.000 C 
ATOM      2  C   UNL     1      -1.314  11.591  22.635  0.00  0.00    +0.000 A 
ATOM      3  C   UNL     1      -0.458  10.600  23.170  0.00  0.00    +0.000 A 
ATOM      4  C   UNL     1       0.073   9.599  22.347  0.00  0.00    +0.000 A 
ATOM      5  C   UNL     1      -0.078   9.721  20.978  0.00  0.00    +0.000 A 
ATOM      6  C   UNL     1      -0.951  10.684  20.492  0.00  0.00    +0.000 A 
ATOM      7  C   UNL     1      -1.747  11.462  21.330  0.00  0.00    +0.000 A 
ATOM      8  C   UNL     1      -0.480  11.225  19.137  0.00  0.00    +0.000 C 
ATOM      9  C   UNL     1      -1.717  11.505  18.261  0.00  0.00    +0.000 C 
ATOM     10  C   UNL     1       0.227  12.594  19.552  0.00  0.00    +0.000 C 
ATOM     11  N   UNL     1       1.654  12.849  19.417  0.00  0.00    +0.000 NA
ATOM     12  C   UNL     1       2.267  12.096  18.369  0.00  0.00    +0.000 C 
ATOM     13  C   UNL     1       1.803  10.664  18.050  0.00  0.00    +0.000 C 
ATOM     14  C   UNL     1       0.479  10.082  18.628  0.00  0.00    +0.000 C 
ATOM     15  C   UNL     1      -0.162   9.253  17.465  0.00  0.00    +0.000 C 
ATOM     16  C   UNL     1       0.615   9.019  19.841  0.00  0.00    +0.000 C 
ENDROOT
BRANCH  11  17
ATOM     17  C   UNL     1       2.362  13.161  20.672  0.00  0.00    +0.000 C 
BRANCH  17  18
ATOM     18  C   UNL     1       3.560  14.162  20.714  0.00  0.00    +0.000 C 
BRANCH  18  19
ATOM     19  C   UNL     1       3.400  15.637  20.321  0.00  0.00    +0.000 C 
BRANCH  19  20
ATOM     20  C   UNL     1       3.243  15.940  18.837  0.00  0.00    +0.000 C 
ATOM     21  O   UNL     1       4.027  15.464  18.008  0.00  0.00    +0.000 OA
BRANCH  20  22
ATOM     22  C   UNL     1       2.156  16.871  18.387  0.00  0.00    +0.000 A 
ATOM     23  C   UNL     1       2.286  17.642  17.215  0.00  0.00    +0.000 A 
ATOM     24  C   UNL     1       1.168  18.268  16.663  0.00  0.00    +0.000 A 
ATOM     25  C   UNL     1      -0.070  18.126  17.272  0.00  0.00    +0.000 A 
ATOM     26  F   UNL     1      -1.156  18.616  16.659  0.00  0.00    +0.000 F 
ATOM     27  C   UNL     1      -0.211  17.426  18.465  0.00  0.00    +0.000 A 
ATOM     28  C   UNL     1       0.907  16.806  19.030  0.00  0.00    +0.000 A 
ENDBRANCH  20  22
ENDBRANCH  19  20
ENDBRANCH  18  19
ENDBRANCH  17  18
ENDBRANCH  11  17
BRANCH  16  29
ATOM     29  C   UNL     1       2.011   8.418  20.106  0.00  0.00    +0.000 C 
BRANCH  29  30
ATOM     30  C   UNL     1       2.281   7.100  19.398  0.00  0.00    +0.000 A 
ATOM     31  C   UNL     1       1.895   5.876  19.963  0.00  0.00    +0.000 A 
ATOM     32  C   UNL     1       2.370   4.673  19.435  0.00  0.00    +0.000 A 
ATOM     33  C   UNL     1       3.200   4.679  18.316  0.00  0.00    +0.000 A 
ATOM     34  C   UNL     1       3.501   5.883  17.683  0.00  0.00    +0.000 A 
ATOM     35  C   UNL     1       3.027   7.087  18.209  0.00  0.00    +0.000 A 
ENDBRANCH  29  30
ENDBRANCH  16  29
TORSDOF 7
ENDMDL
MODEL 8
REMARK VINA RESULT:      -6.8      7.200      9.768
REMARK  Name = 
REMARK  10 active torsions:
REMARK  status: ('A' for Active; 'I' for Inactive)
REMARK    1  A    between atoms: C_1  and  C_2
REMARK    2  A    between atoms: C_8  and  C_9
REMARK    3  A    between atoms: N_11  and  C_12
REMARK    4  A    between atoms: C_12  and  C_13
REMARK    5  A    between atoms: C_13  and  C_14
REMARK    6  A    between atoms: C_14  and  C_15
REMARK    7  A    between atoms: C_15  and  C_17
REMARK    8  A    between atoms: C_26  and  C_27
REMARK    9  A    between atoms: C_28  and  C_29
REMARK   10  A    between atoms: C_29  and  C_30
REMARK                            x       y       z     vdW  Elec       q    Type
REMARK                         _______ _______ _______ _____ _____    ______ ____
ROOT
ATOM      1  C   UNL     1      -3.643   9.462  17.907  0.00  0.00    +0.000 C 
ATOM      2  C   UNL     1      -3.059  10.844  17.839  0.00  0.00    +0.000 A 
ATOM      3  C   UNL     1      -2.127  11.199  16.836  0.00  0.00    +0.000 A 
ATOM      4  C   UNL     1      -1.203  12.229  17.057  0.00  0.00    +0.000 A 
ATOM      5  C   UNL     1      -1.077  12.741  18.336  0.00  0.00    +0.000 A 
ATOM      6  C   UNL     1      -2.030  12.394  19.283  0.00  0.00    +0.000 A 
ATOM      7  C   UNL     1      -3.154  11.632  18.969  0.00  0.00    +0.000 A 
ATOM      8  C   UNL     1      -1.422  12.346  20.689  0.00  0.00    +0.000 C 
ATOM      9  C   UNL     1      -2.468  12.860  21.698  0.00  0.00    +0.000 C 
ATOM     10  C   UNL     1      -1.174  10.784  20.893  0.00  0.00    +0.000 C 
ATOM     11  N   UNL     1       0.143  10.174  21.008  0.00  0.00    +0.000 NA
ATOM     12  C   UNL     1       1.133  11.060  21.535  0.00  0.00    +0.000 C 
ATOM     13  C   UNL     1       1.110  12.560  21.197  0.00  0.00    +0.000 C 
ATOM     14  C   UNL     1      -0.127  13.233  20.531  0.00  0.00    +0.000 C 
ATOM     15  C   UNL     1      -0.279  14.625  21.231  0.00  0.00    +0.000 C 
ATOM     16  C   UNL     1      -0.005  13.595  18.958  0.00  0.00    +0.000 C 
ENDROOT
BRANCH  11  17
ATOM     17  C   UNL     1       0.464   9.164  19.983  0.00  0.00    +0.000 C 
BRANCH  17  18
ATOM     18  C   UNL     1       1.506   9.441  18.852  0.00  0.00    +0.000 C 
BRANCH  18  19
ATOM     19  C   UNL     1       1.776   8.429  17.731  0.00  0.00    +0.000 C 
BRANCH  19  20
ATOM     20  C   UNL     1       2.848   7.379  17.995  0.00  0.00    +0.000 C 
ATOM     21  O   UNL     1       4.013   7.560  17.625  0.00  0.00    +0.000 OA
BRANCH  20  22
ATOM     22  C   UNL     1       2.468   6.091  18.663  0.00  0.00    +0.000 A 
ATOM     23  C   UNL     1       2.266   6.014  20.055  0.00  0.00    +0.000 A 
ATOM     24  C   UNL     1       1.638   4.898  20.608  0.00  0.00    +0.000 A 
ATOM     25  C   UNL     1       1.213   3.867  19.783  0.00  0.00    +0.000 A 
ATOM     26  F   UNL     1       0.492   2.869  20.309  0.00  0.00    +0.000 F 
ATOM     27  C   UNL     1       1.461   3.890  18.416  0.00  0.00    +0.000 A 
ATOM     28  C   UNL     1       2.099   5.000  17.854  0.00  0.00    +0.000 A 
ENDBRANCH  20  22
ENDBRANCH  19  20
ENDBRANCH  18  19
ENDBRANCH  17  18
ENDBRANCH  11  17
BRANCH  16  29
ATOM     29  C   UNL     1       1.402  13.560  18.327  0.00  0.00    +0.000 C 
BRANCH  29  30
ATOM     30  C   UNL     1       2.288  14.742  18.685  0.00  0.00    +0.000 A 
ATOM     31  C   UNL     1       3.565  14.555  19.236  0.00  0.00    +0.000 A 
ATOM     32  C   UNL     1       4.258  15.633  19.792  0.00  0.00    +0.000 A 
ATOM     33  C   UNL     1       3.703  16.910  19.768  0.00  0.00    +0.000 A 
ATOM     34  C   UNL     1       2.485  17.124  19.128  0.00  0.00    +0.000 A 
ATOM     35  C   UNL     1       1.790  16.049  18.570  0.00  0.00    +0.000 A 
ENDBRANCH  29  30
ENDBRANCH  16  29
TORSDOF 7
ENDMDL
MODEL 9
REMARK VINA RESULT:      -6.8      6.584     10.313
REMARK  Name = 
REMARK  10 active torsions:
REMARK  status: ('A' for Active; 'I' for Inactive)
REMARK    1  A    between atoms: C_1  and  C_2
REMARK    2  A    between atoms: C_8  and  C_9
REMARK    3  A    between atoms: N_11  and  C_12
REMARK    4  A    between atoms: C_12  and  C_13
REMARK    5  A    between atoms: C_13  and  C_14
REMARK    6  A    between atoms: C_14  and  C_15
REMARK    7  A    between atoms: C_15  and  C_17
REMARK    8  A    between atoms: C_26  and  C_27
REMARK    9  A    between atoms: C_28  and  C_29
REMARK   10  A    between atoms: C_29  and  C_30
REMARK                            x       y       z     vdW  Elec       q    Type
REMARK                         _______ _______ _______ _____ _____    ______ ____
ROOT
ATOM      1  C   UNL     1      -2.167  13.960  22.728  0.00  0.00    +0.000 C 
ATOM      2  C   UNL     1      -1.996  12.540  22.272  0.00  0.00    +0.000 A 
ATOM      3  C   UNL     1      -1.264  11.604  23.041  0.00  0.00    +0.000 A 
ATOM      4  C   UNL     1      -0.651  10.505  22.427  0.00  0.00    +0.000 A 
ATOM      5  C   UNL     1      -0.592  10.467  21.045  0.00  0.00    +0.000 A 
ATOM      6  C   UNL     1      -1.349  11.380  20.326  0.00  0.00    +0.000 A 
ATOM      7  C   UNL     1      -2.234  12.265  20.940  0.00  0.00    +0.000 A 
ATOM      8  C   UNL     1      -0.663  11.751  19.007  0.00  0.00    +0.000 C 
ATOM      9  C   UNL     1      -1.745  11.946  17.926  0.00  0.00    +0.000 C 
ATOM     10  C   UNL     1       0.021  13.146  19.365  0.00  0.00    +0.000 C 
ATOM     11  N   UNL     1       1.460  13.360  19.421  0.00  0.00    +0.000 NA
ATOM     12  C   UNL     1       2.196  12.478  18.571  0.00  0.00    +0.000 C 
ATOM     13  C   UNL     1       1.736  11.027  18.349  0.00  0.00    +0.000 C 
ATOM     14  C   UNL     1       0.321  10.540  18.782  0.00  0.00    +0.000 C 
ATOM     15  C   UNL     1      -0.167   9.590  17.637  0.00  0.00    +0.000 C 
ATOM     16  C   UNL     1       0.238   9.624  20.114  0.00  0.00    +0.000 C 
ENDROOT
BRANCH  11  17
ATOM     17  C   UNL     1       1.984  13.805  20.725  0.00  0.00    +0.000 C 
BRANCH  17  18
ATOM     18  C   UNL     1       1.911  15.299  21.175  0.00  0.00    +0.000 C 
BRANCH  18  19
ATOM     19  C   UNL     1       2.902  16.351  20.659  0.00  0.00    +0.000 C 
BRANCH  19  20
ATOM     20  C   UNL     1       3.461  16.142  19.258  0.00  0.00    +0.000 C 
ATOM     21  O   UNL     1       2.736  16.267  18.264  0.00  0.00    +0.000 OA
BRANCH  20  22
ATOM     22  C   UNL     1       4.892  15.726  19.089  0.00  0.00    +0.000 A 
ATOM     23  C   UNL     1       5.782  15.692  20.181  0.00  0.00    +0.000 A 
ATOM     24  C   UNL     1       7.006  15.032  20.063  0.00  0.00    +0.000 A 
ATOM     25  C   UNL     1       7.341  14.411  18.869  0.00  0.00    +0.000 A 
ATOM     26  F   UNL     1       8.454  13.668  18.813  0.00  0.00    +0.000 F 
ATOM     27  C   UNL     1       6.509  14.489  17.758  0.00  0.00    +0.000 A 
ATOM     28  C   UNL     1       5.286  15.156  17.864  0.00  0.00    +0.000 A 
ENDBRANCH  20  22
ENDBRANCH  19  20
ENDBRANCH  18  19
ENDBRANCH  17  18
ENDBRANCH  11  17
BRANCH  16  29
ATOM     29  C   UNL     1       1.557   9.035  20.656  0.00  0.00    +0.000 C 
BRANCH  29  30
ATOM     30  C   UNL     1       1.904   7.656  20.119  0.00  0.00    +0.000 A 
ATOM     31  C   UNL     1       2.465   7.489  18.844  0.00  0.00    +0.000 A 
ATOM     32  C   UNL     1       2.540   6.219  18.266  0.00  0.00    +0.000 A 
ATOM     33  C   UNL     1       2.095   5.103  18.969  0.00  0.00    +0.000 A 
ATOM     34  C   UNL     1       1.636   5.245  20.277  0.00  0.00    +0.000 A 
ATOM     35  C   UNL     1       1.560   6.513  20.858  0.00  0.00    +0.000 A 
ENDBRANCH  29  30
ENDBRANCH  16  29
TORSDOF 7
ENDMDL
