MODEL 1
REMARK VINA RESULT:      -7.7      0.000      0.000
REMARK  Name = 
REMARK  12 active torsions:
REMARK  status: ('A' for Active; 'I' for Inactive)
REMARK    1  A    between atoms: C_1  and  C_2
REMARK    2  A    between atoms: C_2  and  C_3
REMARK    3  A    between atoms: C_3  and  C_4
REMARK    4  A    between atoms: C_4  and  C_5
REMARK    5  A    between atoms: C_5  and  N_6
REMARK    6  A    between atoms: C_7  and  C_9
REMARK    7  A    between atoms: C_9  and  C_10
REMARK    8  A    between atoms: C_10  and  N_11
REMARK    9  A    between atoms: C_10  and  C_22
REMARK   10  A    between atoms: C_12  and  C_14
REMARK   11  A    between atoms: C_15  and  C_16
REMARK   12  A    between atoms: C_22  and  O_24
REMARK                            x       y       z     vdW  Elec       q    Type
REMARK                         _______ _______ _______ _____ _____    ______ ____
ROOT
ATOM      1  C   UNK A   1       6.580   5.545  18.077  0.00  0.00    +0.000 C 
ENDROOT
BRANCH   1   2
ATOM      2  N   UNK A   1       7.402   6.761  18.271  0.00  0.00    +0.000 N 
ATOM      3  C   UNK A   0       7.239   7.851  17.462  0.00  0.00    +0.000 C 
ATOM      4  O   UNK A   0       6.388   7.861  16.574  0.00  0.00    +0.000 OA
ATOM      5  H   UNK A   1       8.224   6.699  18.867  0.00  0.00    +0.000 HD
BRANCH   3   6
ATOM      6  C   UNK A   0       8.240   8.929  17.624  0.00  0.00    +0.000 C 
ATOM      7  C   UNK A   0       8.604   9.299  18.865  0.00  0.00    +0.000 C 
BRANCH   7   8
ATOM      8  C   UNK A   0       9.496  10.430  19.157  0.00  0.00    +0.000 A 
ATOM      9  C   UNK A   0      10.162  11.119  18.133  0.00  0.00    +0.000 A 
ATOM     10  C   UNK A   0      11.001  12.196  18.427  0.00  0.00    +0.000 A 
ATOM     11  C   UNK A   0      11.169  12.610  19.746  0.00  0.00    +0.000 A 
ATOM     12  C   UNK A   0      10.479  11.963  20.770  0.00  0.00    +0.000 A 
ATOM     13  C   UNK A   0       9.638  10.885  20.475  0.00  0.00    +0.000 A 
ENDBRANCH   7   8
ENDBRANCH   3   6
ENDBRANCH   1   2
BRANCH   1  14
ATOM     14  C   UNK A   1       7.413   4.439  17.391  0.00  0.00    +0.000 C 
ATOM     15  O   UNK A   1       8.517   4.067  17.769  0.00  0.00    +0.000 OA
BRANCH  14  16
ATOM     16  O   UNK A   1       6.812   3.895  16.305  0.00  0.00    +0.000 OA
ATOM     17  H   UNK A   1       6.502   4.578  15.661  0.00  0.00    +0.000 HD
ENDBRANCH  14  16
ENDBRANCH   1  14
BRANCH   1  18
ATOM     18  C   UNK A   1       6.023   5.032  19.406  0.00  0.00    +0.000 C 
BRANCH  18  20
ATOM     19  N   UNK A   1       4.121   4.249  18.121  0.00  0.00    +0.000 N 
ATOM     20  C   UNK A   1       4.966   3.966  19.173  0.00  0.00    +0.000 C 
ATOM     21  O   UNK A   1       4.917   2.933  19.830  0.00  0.00    +0.000 OA
ATOM     22  H   UNK A   1       4.199   5.140  17.651  0.00  0.00    +0.000 HD
BRANCH  19  23
ATOM     23  C   UNK A   1       2.971   3.422  17.812  0.00  0.00    +0.000 C 
BRANCH  23  24
ATOM     24  C   UNK A   1       1.647   4.156  18.041  0.00  0.00    +0.000 C 
BRANCH  24  25
ATOM     25  C   UNK A   1       1.255   4.121  19.521  0.00  0.00    +0.000 C 
BRANCH  25  27
ATOM     26  C   UNK A   1       1.687   2.748  21.591  0.00  0.00    +0.000 C 
ATOM     27  C   UNK A   1       1.347   2.712  20.107  0.00  0.00    +0.000 C 
ENDBRANCH  25  27
ENDBRANCH  24  25
ENDBRANCH  23  24
ENDBRANCH  19  23
ENDBRANCH  18  20
ENDBRANCH   1  18
TORSDOF 11
ENDMDL
MODEL 2
REMARK VINA RESULT:      -7.5      1.056      1.106
REMARK  Name = 
REMARK  12 active torsions:
REMARK  status: ('A' for Active; 'I' for Inactive)
REMARK    1  A    between atoms: C_1  and  C_2
REMARK    2  A    between atoms: C_2  and  C_3
REMARK    3  A    between atoms: C_3  and  C_4
REMARK    4  A    between atoms: C_4  and  C_5
REMARK    5  A    between atoms: C_5  and  N_6
REMARK    6  A    between atoms: C_7  and  C_9
REMARK    7  A    between atoms: C_9  and  C_10
REMARK    8  A    between atoms: C_10  and  N_11
REMARK    9  A    between atoms: C_10  and  C_22
REMARK   10  A    between atoms: C_12  and  C_14
REMARK   11  A    between atoms: C_15  and  C_16
REMARK   12  A    between atoms: C_22  and  O_24
REMARK                            x       y       z     vdW  Elec       q    Type
REMARK                         _______ _______ _______ _____ _____    ______ ____
ROOT
ATOM      1  C   UNK A   1       6.570   5.767  17.788  0.00  0.00    +0.000 C 
ENDROOT
BRANCH   1   2
ATOM      2  N   UNK A   1       7.444   6.749  18.471  0.00  0.00    +0.000 N 
ATOM      3  C   UNK A   0       7.642   7.994  17.942  0.00  0.00    +0.000 C 
ATOM      4  O   UNK A   0       7.078   8.341  16.905  0.00  0.00    +0.000 OA
ATOM      5  H   UNK A   1       8.055   6.418  19.214  0.00  0.00    +0.000 HD
BRANCH   3   6
ATOM      6  C   UNK A   0       8.680   8.817  18.603  0.00  0.00    +0.000 C 
ATOM      7  C   UNK A   0       8.846  10.093  18.211  0.00  0.00    +0.000 C 
BRANCH   7   8
ATOM      8  C   UNK A   0       9.915  10.973  18.706  0.00  0.00    +0.000 A 
ATOM      9  C   UNK A   0      10.785  11.631  17.825  0.00  0.00    +0.000 A 
ATOM     10  C   UNK A   0      11.792  12.469  18.310  0.00  0.00    +0.000 A 
ATOM     11  C   UNK A   0      11.927  12.675  19.681  0.00  0.00    +0.000 A 
ATOM     12  C   UNK A   0      11.042  12.062  20.565  0.00  0.00    +0.000 A 
ATOM     13  C   UNK A   0      10.033  11.224  20.079  0.00  0.00    +0.000 A 
ENDBRANCH   7   8
ENDBRANCH   3   6
ENDBRANCH   1   2
BRANCH   1  14
ATOM     14  C   UNK A   1       7.356   5.029  16.682  0.00  0.00    +0.000 C 
ATOM     15  O   UNK A   1       8.116   4.090  16.879  0.00  0.00    +0.000 OA
BRANCH  14  16
ATOM     16  O   UNK A   1       7.135   5.516  15.437  0.00  0.00    +0.000 OA
ATOM     17  H   UNK A   1       7.462   4.910  14.728  0.00  0.00    +0.000 HD
ENDBRANCH  14  16
ENDBRANCH   1  14
BRANCH   1  18
ATOM     18  C   UNK A   1       5.988   4.758  18.780  0.00  0.00    +0.000 C 
BRANCH  18  20
ATOM     19  N   UNK A   1       3.801   3.995  18.065  0.00  0.00    +0.000 N 
ATOM     20  C   UNK A   1       4.478   4.893  18.863  0.00  0.00    +0.000 C 
ATOM     21  O   UNK A   1       3.929   5.691  19.612  0.00  0.00    +0.000 OA
ATOM     22  H   UNK A   1       4.323   3.394  17.444  0.00  0.00    +0.000 HD
BRANCH  19  23
ATOM     23  C   UNK A   1       2.360   4.039  17.906  0.00  0.00    +0.000 C 
BRANCH  23  24
ATOM     24  C   UNK A   1       1.644   3.021  18.796  0.00  0.00    +0.000 C 
BRANCH  24  25
ATOM     25  C   UNK A   1       0.842   3.726  19.894  0.00  0.00    +0.000 C 
BRANCH  25  27
ATOM     26  C   UNK A   1       2.622   2.618  21.293  0.00  0.00    +0.000 C 
ATOM     27  C   UNK A   1       1.578   3.725  21.234  0.00  0.00    +0.000 C 
ENDBRANCH  25  27
ENDBRANCH  24  25
ENDBRANCH  23  24
ENDBRANCH  19  23
ENDBRANCH  18  20
ENDBRANCH   1  18
TORSDOF 11
ENDMDL
MODEL 3
REMARK VINA RESULT:      -7.3      0.911      1.270
REMARK  Name = 
REMARK  12 active torsions:
REMARK  status: ('A' for Active; 'I' for Inactive)
REMARK    1  A    between atoms: C_1  and  C_2
REMARK    2  A    between atoms: C_2  and  C_3
REMARK    3  A    between atoms: C_3  and  C_4
REMARK    4  A    between atoms: C_4  and  C_5
REMARK    5  A    between atoms: C_5  and  N_6
REMARK    6  A    between atoms: C_7  and  C_9
REMARK    7  A    between atoms: C_9  and  C_10
REMARK    8  A    between atoms: C_10  and  N_11
REMARK    9  A    between atoms: C_10  and  C_22
REMARK   10  A    between atoms: C_12  and  C_14
REMARK   11  A    between atoms: C_15  and  C_16
REMARK   12  A    between atoms: C_22  and  O_24
REMARK                            x       y       z     vdW  Elec       q    Type
REMARK                         _______ _______ _______ _____ _____    ______ ____
ROOT
ATOM      1  C   UNK A   1       6.607   5.603  18.145  0.00  0.00    +0.000 C 
ENDROOT
BRANCH   1   2
ATOM      2  N   UNK A   1       7.482   6.789  18.293  0.00  0.00    +0.000 N 
ATOM      3  C   UNK A   0       7.330   7.875  17.477  0.00  0.00    +0.000 C 
ATOM      4  O   UNK A   0       6.448   7.909  16.620  0.00  0.00    +0.000 OA
ATOM      5  H   UNK A   1       8.322   6.703  18.860  0.00  0.00    +0.000 HD
BRANCH   3   6
ATOM      6  C   UNK A   0       8.377   8.916  17.589  0.00  0.00    +0.000 C 
ATOM      7  C   UNK A   0       8.687   9.401  18.804  0.00  0.00    +0.000 C 
BRANCH   7   8
ATOM      8  C   UNK A   0       9.620  10.514  19.033  0.00  0.00    +0.000 A 
ATOM      9  C   UNK A   0      10.280  11.144  17.969  0.00  0.00    +0.000 A 
ATOM     10  C   UNK A   0      11.158  12.204  18.202  0.00  0.00    +0.000 A 
ATOM     11  C   UNK A   0      11.372  12.660  19.500  0.00  0.00    +0.000 A 
ATOM     12  C   UNK A   0      10.689  12.073  20.563  0.00  0.00    +0.000 A 
ATOM     13  C   UNK A   0       9.808  11.011  20.329  0.00  0.00    +0.000 A 
ENDBRANCH   7   8
ENDBRANCH   3   6
ENDBRANCH   1   2
BRANCH   1  14
ATOM     14  C   UNK A   1       7.333   4.501  17.342  0.00  0.00    +0.000 C 
ATOM     15  O   UNK A   1       8.488   4.146  17.538  0.00  0.00    +0.000 OA
BRANCH  14  16
ATOM     16  O   UNK A   1       6.571   3.938  16.373  0.00  0.00    +0.000 OA
ATOM     17  H   UNK A   1       7.055   3.243  15.864  0.00  0.00    +0.000 HD
ENDBRANCH  14  16
ENDBRANCH   1  14
BRANCH   1  18
ATOM     18  C   UNK A   1       6.172   5.060  19.506  0.00  0.00    +0.000 C 
BRANCH  18  20
ATOM     19  N   UNK A   1       3.822   5.575  19.810  0.00  0.00    +0.000 N 
ATOM     20  C   UNK A   1       4.726   4.594  19.464  0.00  0.00    +0.000 C 
ATOM     21  O   UNK A   1       4.409   3.467  19.103  0.00  0.00    +0.000 OA
ATOM     22  H   UNK A   1       4.162   6.469  20.134  0.00  0.00    +0.000 HD
BRANCH  19  23
ATOM     23  C   UNK A   1       2.405   5.302  19.952  0.00  0.00    +0.000 C 
BRANCH  23  24
ATOM     24  C   UNK A   1       2.082   4.563  21.253  0.00  0.00    +0.000 C 
BRANCH  24  25
ATOM     25  C   UNK A   1       1.343   3.253  20.966  0.00  0.00    +0.000 C 
BRANCH  25  27
ATOM     26  C   UNK A   1       1.161   2.048  18.759  0.00  0.00    +0.000 C 
ATOM     27  C   UNK A   1       0.703   3.247  19.577  0.00  0.00    +0.000 C 
ENDBRANCH  25  27
ENDBRANCH  24  25
ENDBRANCH  23  24
ENDBRANCH  19  23
ENDBRANCH  18  20
ENDBRANCH   1  18
TORSDOF 11
ENDMDL
MODEL 4
REMARK VINA RESULT:      -7.3      1.186      1.721
REMARK  Name = 
REMARK  12 active torsions:
REMARK  status: ('A' for Active; 'I' for Inactive)
REMARK    1  A    between atoms: C_1  and  C_2
REMARK    2  A    between atoms: C_2  and  C_3
REMARK    3  A    between atoms: C_3  and  C_4
REMARK    4  A    between atoms: C_4  and  C_5
REMARK    5  A    between atoms: C_5  and  N_6
REMARK    6  A    between atoms: C_7  and  C_9
REMARK    7  A    between atoms: C_9  and  C_10
REMARK    8  A    between atoms: C_10  and  N_11
REMARK    9  A    between atoms: C_10  and  C_22
REMARK   10  A    between atoms: C_12  and  C_14
REMARK   11  A    between atoms: C_15  and  C_16
REMARK   12  A    between atoms: C_22  and  O_24
REMARK                            x       y       z     vdW  Elec       q    Type
REMARK                         _______ _______ _______ _____ _____    ______ ____
ROOT
ATOM      1  C   UNK A   1       6.748   5.522  16.336  0.00  0.00    +0.000 C 
ENDROOT
BRANCH   1   2
ATOM      2  N   UNK A   1       7.636   6.649  16.702  0.00  0.00    +0.000 N 
ATOM      3  C   UNK A   0       7.153   7.719  17.403  0.00  0.00    +0.000 C 
ATOM      4  O   UNK A   0       5.981   7.760  17.773  0.00  0.00    +0.000 OA
ATOM      5  H   UNK A   1       8.544   6.717  16.248  0.00  0.00    +0.000 HD
BRANCH   3   6
ATOM      6  C   UNK A   0       8.078   8.867  17.544  0.00  0.00    +0.000 C 
ATOM      7  C   UNK A   0       8.576   9.155  18.760  0.00  0.00    +0.000 C 
BRANCH   7   8
ATOM      8  C   UNK A   0       9.407  10.334  19.050  0.00  0.00    +0.000 A 
ATOM      9  C   UNK A   0       9.626  10.766  20.366  0.00  0.00    +0.000 A 
ATOM     10  C   UNK A   0      10.422  11.883  20.625  0.00  0.00    +0.000 A 
ATOM     11  C   UNK A   0      11.025  12.570  19.574  0.00  0.00    +0.000 A 
ATOM     12  C   UNK A   0      10.852  12.125  18.265  0.00  0.00    +0.000 A 
ATOM     13  C   UNK A   0      10.055  11.005  18.005  0.00  0.00    +0.000 A 
ENDBRANCH   7   8
ENDBRANCH   3   6
ENDBRANCH   1   2
BRANCH   1  14
ATOM     14  C   UNK A   1       7.115   4.984  14.935  0.00  0.00    +0.000 C 
ATOM     15  O   UNK A   1       7.886   5.536  14.160  0.00  0.00    +0.000 OA
BRANCH  14  16
ATOM     16  O   UNK A   1       6.499   3.820  14.617  0.00  0.00    +0.000 OA
ATOM     17  H   UNK A   1       6.917   3.368  13.844  0.00  0.00    +0.000 HD
ENDBRANCH  14  16
ENDBRANCH   1  14
BRANCH   1  18
ATOM     18  C   UNK A   1       6.827   4.395  17.367  0.00  0.00    +0.000 C 
BRANCH  18  20
ATOM     19  N   UNK A   1       4.404   4.372  17.301  0.00  0.00    +0.000 N 
ATOM     20  C   UNK A   1       5.512   4.252  18.113  0.00  0.00    +0.000 C 
ATOM     21  O   UNK A   1       5.458   4.002  19.311  0.00  0.00    +0.000 OA
ATOM     22  H   UNK A   1       4.527   4.618  16.329  0.00  0.00    +0.000 HD
BRANCH  19  23
ATOM     23  C   UNK A   1       3.055   4.390  17.835  0.00  0.00    +0.000 C 
BRANCH  23  24
ATOM     24  C   UNK A   1       2.573   2.997  18.248  0.00  0.00    +0.000 C 
BRANCH  24  25
ATOM     25  C   UNK A   1       1.106   3.036  18.684  0.00  0.00    +0.000 C 
BRANCH  25  27
ATOM     26  C   UNK A   1       2.084   2.665  20.977  0.00  0.00    +0.000 C 
ATOM     27  C   UNK A   1       0.958   3.310  20.181  0.00  0.00    +0.000 C 
ENDBRANCH  25  27
ENDBRANCH  24  25
ENDBRANCH  23  24
ENDBRANCH  19  23
ENDBRANCH  18  20
ENDBRANCH   1  18
TORSDOF 11
ENDMDL
MODEL 5
REMARK VINA RESULT:      -7.3      1.189      1.531
REMARK  Name = 
REMARK  12 active torsions:
REMARK  status: ('A' for Active; 'I' for Inactive)
REMARK    1  A    between atoms: C_1  and  C_2
REMARK    2  A    between atoms: C_2  and  C_3
REMARK    3  A    between atoms: C_3  and  C_4
REMARK    4  A    between atoms: C_4  and  C_5
REMARK    5  A    between atoms: C_5  and  N_6
REMARK    6  A    between atoms: C_7  and  C_9
REMARK    7  A    between atoms: C_9  and  C_10
REMARK    8  A    between atoms: C_10  and  N_11
REMARK    9  A    between atoms: C_10  and  C_22
REMARK   10  A    between atoms: C_12  and  C_14
REMARK   11  A    between atoms: C_15  and  C_16
REMARK   12  A    between atoms: C_22  and  O_24
REMARK                            x       y       z     vdW  Elec       q    Type
REMARK                         _______ _______ _______ _____ _____    ______ ____
ROOT
ATOM      1  C   UNK A   1       6.262   5.934  16.982  0.00  0.00    +0.000 C 
ENDROOT
BRANCH   1   2
ATOM      2  N   UNK A   1       6.946   7.246  16.912  0.00  0.00    +0.000 N 
ATOM      3  C   UNK A   0       7.820   7.630  17.890  0.00  0.00    +0.000 C 
ATOM      4  O   UNK A   0       8.085   6.887  18.834  0.00  0.00    +0.000 OA
ATOM      5  H   UNK A   1       6.601   7.937  16.250  0.00  0.00    +0.000 HD
BRANCH   3   6
ATOM      6  C   UNK A   0       8.294   9.031  17.817  0.00  0.00    +0.000 C 
ATOM      7  C   UNK A   0       8.939   9.556  18.874  0.00  0.00    +0.000 C 
BRANCH   7   8
ATOM      8  C   UNK A   0       9.352  10.965  18.969  0.00  0.00    +0.000 A 
ATOM      9  C   UNK A   0      10.132  11.426  20.039  0.00  0.00    +0.000 A 
ATOM     10  C   UNK A   0      10.522  12.765  20.112  0.00  0.00    +0.000 A 
ATOM     11  C   UNK A   0      10.154  13.654  19.105  0.00  0.00    +0.000 A 
ATOM     12  C   UNK A   0       9.417  13.200  18.014  0.00  0.00    +0.000 A 
ATOM     13  C   UNK A   0       9.027  11.859  17.941  0.00  0.00    +0.000 A 
ENDBRANCH   7   8
ENDBRANCH   3   6
ENDBRANCH   1   2
BRANCH   1  14
ATOM     14  C   UNK A   1       7.188   4.819  16.446  0.00  0.00    +0.000 C 
ATOM     15  O   UNK A   1       8.097   4.305  17.086  0.00  0.00    +0.000 OA
BRANCH  14  16
ATOM     16  O   UNK A   1       6.911   4.442  15.174  0.00  0.00    +0.000 OA
ATOM     17  H   UNK A   1       7.484   4.898  14.510  0.00  0.00    +0.000 HD
ENDBRANCH  14  16
ENDBRANCH   1  14
BRANCH   1  18
ATOM     18  C   UNK A   1       5.825   5.610  18.411  0.00  0.00    +0.000 C 
BRANCH  18  20
ATOM     19  N   UNK A   1       3.851   4.530  17.508  0.00  0.00    +0.000 N 
ATOM     20  C   UNK A   1       4.872   4.427  18.429  0.00  0.00    +0.000 C 
ATOM     21  O   UNK A   1       5.039   3.458  19.159  0.00  0.00    +0.000 OA
ATOM     22  H   UNK A   1       3.756   5.378  16.967  0.00  0.00    +0.000 HD
BRANCH  19  23
ATOM     23  C   UNK A   1       2.767   3.568  17.448  0.00  0.00    +0.000 C 
BRANCH  23  24
ATOM     24  C   UNK A   1       1.527   4.040  18.211  0.00  0.00    +0.000 C 
BRANCH  24  25
ATOM     25  C   UNK A   1       1.099   2.999  19.250  0.00  0.00    +0.000 C 
BRANCH  25  27
ATOM     26  C   UNK A   1       1.926   4.874  20.718  0.00  0.00    +0.000 C 
ATOM     27  C   UNK A   1       1.191   3.541  20.677  0.00  0.00    +0.000 C 
ENDBRANCH  25  27
ENDBRANCH  24  25
ENDBRANCH  23  24
ENDBRANCH  19  23
ENDBRANCH  18  20
ENDBRANCH   1  18
TORSDOF 11
ENDMDL
MODEL 6
REMARK VINA RESULT:      -7.3      1.160      1.389
REMARK  Name = 
REMARK  12 active torsions:
REMARK  status: ('A' for Active; 'I' for Inactive)
REMARK    1  A    between atoms: C_1  and  C_2
REMARK    2  A    between atoms: C_2  and  C_3
REMARK    3  A    between atoms: C_3  and  C_4
REMARK    4  A    between atoms: C_4  and  C_5
REMARK    5  A    between atoms: C_5  and  N_6
REMARK    6  A    between atoms: C_7  and  C_9
REMARK    7  A    between atoms: C_9  and  C_10
REMARK    8  A    between atoms: C_10  and  N_11
REMARK    9  A    between atoms: C_10  and  C_22
REMARK   10  A    between atoms: C_12  and  C_14
REMARK   11  A    between atoms: C_15  and  C_16
REMARK   12  A    between atoms: C_22  and  O_24
REMARK                            x       y       z     vdW  Elec       q    Type
REMARK                         _______ _______ _______ _____ _____    ______ ____
ROOT
ATOM      1  C   UNK A   1       6.818   5.989  17.582  0.00  0.00    +0.000 C 
ENDROOT
BRANCH   1   2
ATOM      2  N   UNK A   1       7.708   6.936  18.292  0.00  0.00    +0.000 N 
ATOM      3  C   UNK A   0       7.708   8.266  17.976  0.00  0.00    +0.000 C 
ATOM      4  O   UNK A   0       6.949   8.715  17.118  0.00  0.00    +0.000 OA
ATOM      5  H   UNK A   1       8.461   6.557  18.861  0.00  0.00    +0.000 HD
BRANCH   3   6
ATOM      6  C   UNK A   0       8.768   9.079  18.612  0.00  0.00    +0.000 C 
ATOM      7  C   UNK A   0       9.044  10.297  18.111  0.00  0.00    +0.000 C 
BRANCH   7   8
ATOM      8  C   UNK A   0      10.148  11.148  18.578  0.00  0.00    +0.000 A 
ATOM      9  C   UNK A   0      10.984  11.821  17.675  0.00  0.00    +0.000 A 
ATOM     10  C   UNK A   0      12.024  12.630  18.135  0.00  0.00    +0.000 A 
ATOM     11  C   UNK A   0      12.229  12.794  19.502  0.00  0.00    +0.000 A 
ATOM     12  C   UNK A   0      11.379  12.168  20.411  0.00  0.00    +0.000 A 
ATOM     13  C   UNK A   0      10.336  11.357  19.951  0.00  0.00    +0.000 A 
ENDBRANCH   7   8
ENDBRANCH   3   6
ENDBRANCH   1   2
BRANCH   1  14
ATOM     14  C   UNK A   1       7.623   4.768  17.085  0.00  0.00    +0.000 C 
ATOM     15  O   UNK A   1       7.779   4.473  15.907  0.00  0.00    +0.000 OA
BRANCH  14  16
ATOM     16  O   UNK A   1       8.158   4.023  18.082  0.00  0.00    +0.000 OA
ATOM     17  H   UNK A   1       7.815   3.096  18.090  0.00  0.00    +0.000 HD
ENDBRANCH  14  16
ENDBRANCH   1  14
BRANCH   1  18
ATOM     18  C   UNK A   1       5.668   5.528  18.479  0.00  0.00    +0.000 C 
BRANCH  18  20
ATOM     19  N   UNK A   1       3.781   4.011  18.352  0.00  0.00    +0.000 N 
ATOM     20  C   UNK A   1       4.549   4.917  17.652  0.00  0.00    +0.000 C 
ATOM     21  O   UNK A   1       4.331   5.249  16.494  0.00  0.00    +0.000 OA
ATOM     22  H   UNK A   1       4.048   3.759  19.293  0.00  0.00    +0.000 HD
BRANCH  19  23
ATOM     23  C   UNK A   1       2.743   3.226  17.713  0.00  0.00    +0.000 C 
BRANCH  23  24
ATOM     24  C   UNK A   1       1.377   3.412  18.380  0.00  0.00    +0.000 C 
BRANCH  24  25
ATOM     25  C   UNK A   1       1.521   4.142  19.718  0.00  0.00    +0.000 C 
BRANCH  25  27
ATOM     26  C   UNK A   1       2.341   2.610  21.544  0.00  0.00    +0.000 C 
ATOM     27  C   UNK A   1       1.123   3.258  20.901  0.00  0.00    +0.000 C 
ENDBRANCH  25  27
ENDBRANCH  24  25
ENDBRANCH  23  24
ENDBRANCH  19  23
ENDBRANCH  18  20
ENDBRANCH   1  18
TORSDOF 11
ENDMDL
MODEL 7
REMARK VINA RESULT:      -7.1      2.198      2.703
REMARK  Name = 
REMARK  12 active torsions:
REMARK  status: ('A' for Active; 'I' for Inactive)
REMARK    1  A    between atoms: C_1  and  C_2
REMARK    2  A    between atoms: C_2  and  C_3
REMARK    3  A    between atoms: C_3  and  C_4
REMARK    4  A    between atoms: C_4  and  C_5
REMARK    5  A    between atoms: C_5  and  N_6
REMARK    6  A    between atoms: C_7  and  C_9
REMARK    7  A    between atoms: C_9  and  C_10
REMARK    8  A    between atoms: C_10  and  N_11
REMARK    9  A    between atoms: C_10  and  C_22
REMARK   10  A    between atoms: C_12  and  C_14
REMARK   11  A    between atoms: C_15  and  C_16
REMARK   12  A    between atoms: C_22  and  O_24
REMARK                            x       y       z     vdW  Elec       q    Type
REMARK                         _______ _______ _______ _____ _____    ______ ____
ROOT
ATOM      1  C   UNK A   1       6.472   5.443  16.378  0.00  0.00    +0.000 C 
ENDROOT
BRANCH   1   2
ATOM      2  N   UNK A   1       7.456   6.235  17.152  0.00  0.00    +0.000 N 
ATOM      3  C   UNK A   0       7.227   7.553  17.432  0.00  0.00    +0.000 C 
ATOM      4  O   UNK A   0       6.188   8.108  17.075  0.00  0.00    +0.000 OA
ATOM      5  H   UNK A   1       8.388   5.850  17.288  0.00  0.00    +0.000 HD
BRANCH   3   6
ATOM      6  C   UNK A   0       8.358   8.289  18.041  0.00  0.00    +0.000 C 
ATOM      7  C   UNK A   0       8.261   9.622  18.192  0.00  0.00    +0.000 C 
BRANCH   7   8
ATOM      8  C   UNK A   0       9.357  10.477  18.673  0.00  0.00    +0.000 A 
ATOM      9  C   UNK A   0      10.289  11.037  17.787  0.00  0.00    +0.000 A 
ATOM     10  C   UNK A   0      11.320  11.852  18.259  0.00  0.00    +0.000 A 
ATOM     11  C   UNK A   0      11.420  12.133  19.619  0.00  0.00    +0.000 A 
ATOM     12  C   UNK A   0      10.475  11.620  20.505  0.00  0.00    +0.000 A 
ATOM     13  C   UNK A   0       9.442  10.804  20.033  0.00  0.00    +0.000 A 
ENDBRANCH   7   8
ENDBRANCH   3   6
ENDBRANCH   1   2
BRANCH   1  14
ATOM     14  C   UNK A   1       7.133   4.865  15.107  0.00  0.00    +0.000 C 
ATOM     15  O   UNK A   1       7.979   5.446  14.439  0.00  0.00    +0.000 OA
BRANCH  14  16
ATOM     16  O   UNK A   1       6.690   3.628  14.775  0.00  0.00    +0.000 OA
ATOM     17  H   UNK A   1       7.410   3.047  14.427  0.00  0.00    +0.000 HD
ENDBRANCH  14  16
ENDBRANCH   1  14
BRANCH   1  18
ATOM     18  C   UNK A   1       5.882   4.313  17.222  0.00  0.00    +0.000 C 
BRANCH  18  20
ATOM     19  N   UNK A   1       4.035   5.325  18.423  0.00  0.00    +0.000 N 
ATOM     20  C   UNK A   1       5.325   4.850  18.529  0.00  0.00    +0.000 C 
ATOM     21  O   UNK A   1       5.954   4.808  19.579  0.00  0.00    +0.000 OA
ATOM     22  H   UNK A   1       3.595   5.363  17.514  0.00  0.00    +0.000 HD
BRANCH  19  23
ATOM     23  C   UNK A   1       3.366   5.992  19.524  0.00  0.00    +0.000 C 
BRANCH  23  24
ATOM     24  C   UNK A   1       2.241   6.916  19.048  0.00  0.00    +0.000 C 
BRANCH  24  25
ATOM     25  C   UNK A   1       2.723   7.817  17.908  0.00  0.00    +0.000 C 
BRANCH  25  27
ATOM     26  C   UNK A   1       1.178   9.350  19.180  0.00  0.00    +0.000 C 
ATOM     27  C   UNK A   1       2.111   9.216  17.985  0.00  0.00    +0.000 C 
ENDBRANCH  25  27
ENDBRANCH  24  25
ENDBRANCH  23  24
ENDBRANCH  19  23
ENDBRANCH  18  20
ENDBRANCH   1  18
TORSDOF 11
ENDMDL
MODEL 8
REMARK VINA RESULT:      -7.1      1.217      1.617
REMARK  Name = 
REMARK  12 active torsions:
REMARK  status: ('A' for Active; 'I' for Inactive)
REMARK    1  A    between atoms: C_1  and  C_2
REMARK    2  A    between atoms: C_2  and  C_3
REMARK    3  A    between atoms: C_3  and  C_4
REMARK    4  A    between atoms: C_4  and  C_5
REMARK    5  A    between atoms: C_5  and  N_6
REMARK    6  A    between atoms: C_7  and  C_9
REMARK    7  A    between atoms: C_9  and  C_10
REMARK    8  A    between atoms: C_10  and  N_11
REMARK    9  A    between atoms: C_10  and  C_22
REMARK   10  A    between atoms: C_12  and  C_14
REMARK   11  A    between atoms: C_15  and  C_16
REMARK   12  A    between atoms: C_22  and  O_24
REMARK                            x       y       z     vdW  Elec       q    Type
REMARK                         _______ _______ _______ _____ _____    ______ ____
ROOT
ATOM      1  C   UNK A   1       7.002   6.072  18.153  0.00  0.00    +0.000 C 
ENDROOT
BRANCH   1   2
ATOM      2  N   UNK A   1       7.979   7.108  18.559  0.00  0.00    +0.000 N 
ATOM      3  C   UNK A   0       7.911   8.373  18.046  0.00  0.00    +0.000 C 
ATOM      4  O   UNK A   0       7.021   8.692  17.259  0.00  0.00    +0.000 OA
ATOM      5  H   UNK A   1       8.818   6.814  19.054  0.00  0.00    +0.000 HD
BRANCH   3   6
ATOM      6  C   UNK A   0       9.047   9.264  18.373  0.00  0.00    +0.000 C 
ATOM      7  C   UNK A   0       8.931  10.582  18.135  0.00  0.00    +0.000 C 
BRANCH   7   8
ATOM      8  C   UNK A   0      10.025  11.549  18.307  0.00  0.00    +0.000 A 
ATOM      9  C   UNK A   0      10.131  12.684  17.490  0.00  0.00    +0.000 A 
ATOM     10  C   UNK A   0      11.173  13.596  17.669  0.00  0.00    +0.000 A 
ATOM     11  C   UNK A   0      12.109  13.396  18.681  0.00  0.00    +0.000 A 
ATOM     12  C   UNK A   0      11.990  12.297  19.529  0.00  0.00    +0.000 A 
ATOM     13  C   UNK A   0      10.946  11.383  19.349  0.00  0.00    +0.000 A 
ENDBRANCH   7   8
ENDBRANCH   3   6
ENDBRANCH   1   2
BRANCH   1  14
ATOM     14  C   UNK A   1       7.495   5.338  16.886  0.00  0.00    +0.000 C 
ATOM     15  O   UNK A   1       7.389   5.773  15.747  0.00  0.00    +0.000 OA
BRANCH  14  16
ATOM     16  O   UNK A   1       8.070   4.138  17.139  0.00  0.00    +0.000 OA
ATOM     17  H   UNK A   1       8.322   4.029  18.089  0.00  0.00    +0.000 HD
ENDBRANCH  14  16
ENDBRANCH   1  14
BRANCH   1  18
ATOM     18  C   UNK A   1       6.757   5.067  19.279  0.00  0.00    +0.000 C 
BRANCH  18  20
ATOM     19  N   UNK A   1       4.413   5.683  19.209  0.00  0.00    +0.000 N 
ATOM     20  C   UNK A   1       5.301   4.633  19.308  0.00  0.00    +0.000 C 
ATOM     21  O   UNK A   1       4.967   3.456  19.361  0.00  0.00    +0.000 OA
ATOM     22  H   UNK A   1       4.764   6.630  19.210  0.00  0.00    +0.000 HD
BRANCH  19  23
ATOM     23  C   UNK A   1       2.981   5.495  19.342  0.00  0.00    +0.000 C 
BRANCH  23  24
ATOM     24  C   UNK A   1       2.276   5.411  17.985  0.00  0.00    +0.000 C 
BRANCH  24  25
ATOM     25  C   UNK A   1       1.951   3.957  17.630  0.00  0.00    +0.000 C 
BRANCH  25  27
ATOM     26  C   UNK A   1       1.756   1.978  19.179  0.00  0.00    +0.000 C 
ATOM     27  C   UNK A   1       1.112   3.276  18.712  0.00  0.00    +0.000 C 
ENDBRANCH  25  27
ENDBRANCH  24  25
ENDBRANCH  23  24
ENDBRANCH  19  23
ENDBRANCH  18  20
ENDBRANCH   1  18
TORSDOF 11
ENDMDL
MODEL 9
REMARK VINA RESULT:      -7.1      4.148      7.443
REMARK  Name = 
REMARK  12 active torsions:
REMARK  status: ('A' for Active; 'I' for Inactive)
REMARK    1  A    between atoms: C_1  and  C_2
REMARK    2  A    between atoms: C_2  and  C_3
REMARK    3  A    between atoms: C_3  and  C_4
REMARK    4  A    between atoms: C_4  and  C_5
REMARK    5  A    between atoms: C_5  and  N_6
REMARK    6  A    between atoms: C_7  and  C_9
REMARK    7  A    between atoms: C_9  and  C_10
REMARK    8  A    between atoms: C_10  and  N_11
REMARK    9  A    between atoms: C_10  and  C_22
REMARK   10  A    between atoms: C_12  and  C_14
REMARK   11  A    between atoms: C_15  and  C_16
REMARK   12  A    between atoms: C_22  and  O_24
REMARK                            x       y       z     vdW  Elec       q    Type
REMARK                         _______ _______ _______ _____ _____    ______ ____
ROOT
ATOM      1  C   UNK A   1       2.367   4.106  20.009  0.00  0.00    +0.000 C 
ENDROOT
BRANCH   1   2
ATOM      2  N   UNK A   1       1.795   5.465  20.139  0.00  0.00    +0.000 N 
ATOM      3  C   UNK A   0       2.489   6.560  19.702  0.00  0.00    +0.000 C 
ATOM      4  O   UNK A   0       3.589   6.442  19.164  0.00  0.00    +0.000 OA
ATOM      5  H   UNK A   1       0.985   5.595  20.740  0.00  0.00    +0.000 HD
BRANCH   3   6
ATOM      6  C   UNK A   0       1.907   7.874  20.054  0.00  0.00    +0.000 C 
ATOM      7  C   UNK A   0       1.133   7.972  21.150  0.00  0.00    +0.000 C 
BRANCH   7   8
ATOM      8  C   UNK A   0       0.406   9.190  21.538  0.00  0.00    +0.000 A 
ATOM      9  C   UNK A   0       0.207  10.241  20.632  0.00  0.00    +0.000 A 
ATOM     10  C   UNK A   0      -0.491  11.389  21.015  0.00  0.00    +0.000 A 
ATOM     11  C   UNK A   0      -1.015  11.490  22.300  0.00  0.00    +0.000 A 
ATOM     12  C   UNK A   0      -0.864  10.434  23.197  0.00  0.00    +0.000 A 
ATOM     13  C   UNK A   0      -0.165   9.285  22.814  0.00  0.00    +0.000 A 
ENDBRANCH   7   8
ENDBRANCH   3   6
ENDBRANCH   1   2
BRANCH   1  14
ATOM     14  C   UNK A   1       1.879   3.207  21.168  0.00  0.00    +0.000 C 
ATOM     15  O   UNK A   1       2.572   2.860  22.115  0.00  0.00    +0.000 OA
BRANCH  14  16
ATOM     16  O   UNK A   1       0.586   2.820  21.052  0.00  0.00    +0.000 OA
ATOM     17  H   UNK A   1       0.274   2.298  21.831  0.00  0.00    +0.000 HD
ENDBRANCH  14  16
ENDBRANCH   1  14
BRANCH   1  18
ATOM     18  C   UNK A   1       2.000   3.474  18.666  0.00  0.00    +0.000 C 
BRANCH  18  20
ATOM     19  N   UNK A   1       3.930   4.185  17.382  0.00  0.00    +0.000 N 
ATOM     20  C   UNK A   1       3.249   3.098  17.887  0.00  0.00    +0.000 C 
ATOM     21  O   UNK A   1       3.629   1.939  17.773  0.00  0.00    +0.000 OA
ATOM     22  H   UNK A   1       3.532   5.108  17.484  0.00  0.00    +0.000 HD
BRANCH  19  23
ATOM     23  C   UNK A   1       5.077   4.038  16.507  0.00  0.00    +0.000 C 
BRANCH  23  24
ATOM     24  C   UNK A   1       6.371   4.542  17.151  0.00  0.00    +0.000 C 
BRANCH  24  25
ATOM     25  C   UNK A   1       6.716   5.948  16.651  0.00  0.00    +0.000 C 
BRANCH  25  27
ATOM     26  C   UNK A   1       7.766   5.937  18.942  0.00  0.00    +0.000 C 
ATOM     27  C   UNK A   1       7.438   6.775  17.715  0.00  0.00    +0.000 C 
ENDBRANCH  25  27
ENDBRANCH  24  25
ENDBRANCH  23  24
ENDBRANCH  19  23
ENDBRANCH  18  20
ENDBRANCH   1  18
TORSDOF 11
ENDMDL
