MODEL 1
REMARK VINA RESULT:      -7.8      0.000      0.000
REMARK  Name = 
REMARK  6 active torsions:
REMARK  status: ('A' for Active; 'I' for Inactive)
REMARK    1  A    between atoms: C_1  and  N_2
REMARK    2  A    between atoms: C_3  and  C_5
REMARK    3  A    between atoms: C_6  and  C_7
REMARK    4  A    between atoms: C_19  and  C_20
REMARK    5  A    between atoms: C_21  and  C_22
REMARK    6  A    between atoms: C_22  and  O_23
REMARK                            x       y       z     vdW  Elec       q    Type
REMARK                         _______ _______ _______ _____ _____    ______ ____
ROOT
ATOM      1  C   UNL     1       5.826   5.124  16.839  0.00  0.00    +0.000 A 
ATOM      2  C   UNL     1       6.302   6.112  17.692  0.00  0.00    +0.000 A 
ATOM      3  N   UNL     1       5.388   6.361  18.705  0.00  0.00    +0.000 NA
ATOM      4  C   UNL     1       4.362   5.563  18.486  0.00  0.00    +0.000 A 
ATOM      5  N   UNL     1       4.591   4.801  17.364  0.00  0.00    +0.000 N 
ATOM      6  C   UNL     1       3.670   3.765  16.940  0.00  0.00    +0.000 C 
ATOM      7  C   UNL     1       3.494   2.736  18.039  0.00  0.00    +0.000 C 
ATOM      8  O   UNL     1       2.616   3.076  19.106  0.00  0.00    +0.000 OA
ATOM      9  C   UNL     1       2.374   4.356  19.503  0.00  0.00    +0.000 A 
ATOM     10  C   UNL     1       1.197   4.436  20.265  0.00  0.00    +0.000 A 
ATOM     11  C   UNL     1       0.726   5.656  20.750  0.00  0.00    +0.000 A 
ATOM     12  C   UNL     1       1.448   6.817  20.497  0.00  0.00    +0.000 A 
ATOM     13  C   UNL     1       2.640   6.746  19.775  0.00  0.00    +0.000 A 
ATOM     14  C   UNL     1       3.119   5.520  19.262  0.00  0.00    +0.000 A 
ENDROOT
BRANCH   1  17
ATOM     15  C   UNL     1       6.419   3.804  13.404  0.00  0.00    +0.000 C 
ATOM     16  N   UNL     1       5.845   4.449  14.558  0.00  0.00    +0.000 N 
ATOM     17  C   UNL     1       6.532   4.488  15.753  0.00  0.00    +0.000 C 
ATOM     18  O   UNL     1       7.640   3.978  15.881  0.00  0.00    +0.000 OA
ATOM     19  H   UNL     1       5.079   5.093  14.421  0.00  0.00    +0.000 HD
ENDBRANCH   1  17
BRANCH   2  20
ATOM     20  C   UNL     1       7.570   6.840  17.587  0.00  0.00    +0.000 C 
ATOM     21  N   UNL     1       8.228   6.973  18.775  0.00  0.00    +0.000 N 
ATOM     22  O   UNL     1       8.011   7.316  16.549  0.00  0.00    +0.000 OA
ATOM     23  H   UNL     1       7.828   6.587  19.622  0.00  0.00    +0.000 HD
ATOM     24  H   UNL     1       9.114   7.455  18.789  0.00  0.00    +0.000 HD
ENDBRANCH   2  20
BRANCH  12  25
ATOM     25  C   UNL     1       0.952   8.071  20.972  0.00  0.00    +0.000 C 
ATOM     26  C   UNL     1       0.557   9.145  21.356  0.00  0.00    +0.000 C 
BRANCH  26  27
ATOM     27  C   UNL     1       0.086  10.449  21.773  0.00  0.00    +0.000 C 
ATOM     28  C   UNL     1      -1.235  10.915  21.100  0.00  0.00    +0.000 C 
ATOM     29  C   UNL     1      -1.661  11.485  22.466  0.00  0.00    +0.000 C 
ATOM     30  C   UNL     1      -0.688  10.481  23.119  0.00  0.00    +0.000 C 
BRANCH  27  31
ATOM     31  O   UNL     1       1.185  11.380  21.685  0.00  0.00    +0.000 OA
ATOM     32  H   UNL     1       0.886  12.163  22.180  0.00  0.00    +0.000 HD
ENDBRANCH  27  31
ENDBRANCH  26  27
ENDBRANCH  12  25
TORSDOF 5
ENDMDL
MODEL 2
REMARK VINA RESULT:      -7.6      3.725      9.051
REMARK  Name = 
REMARK  6 active torsions:
REMARK  status: ('A' for Active; 'I' for Inactive)
REMARK    1  A    between atoms: C_1  and  N_2
REMARK    2  A    between atoms: C_3  and  C_5
REMARK    3  A    between atoms: C_6  and  C_7
REMARK    4  A    between atoms: C_19  and  C_20
REMARK    5  A    between atoms: C_21  and  C_22
REMARK    6  A    between atoms: C_22  and  O_23
REMARK                            x       y       z     vdW  Elec       q    Type
REMARK                         _______ _______ _______ _____ _____    ______ ____
ROOT
ATOM      1  C   UNL     1       0.352  12.071  20.783  0.00  0.00    +0.000 A 
ATOM      2  C   UNL     1       0.384  12.070  19.394  0.00  0.00    +0.000 A 
ATOM      3  N   UNL     1       0.698  10.808  18.915  0.00  0.00    +0.000 NA
ATOM      4  C   UNL     1       0.872  10.041  19.973  0.00  0.00    +0.000 A 
ATOM      5  N   UNL     1       0.672  10.772  21.121  0.00  0.00    +0.000 N 
ATOM      6  C   UNL     1       0.703  10.160  22.435  0.00  0.00    +0.000 C 
ATOM      7  C   UNL     1      -0.336   9.061  22.527  0.00  0.00    +0.000 C 
ATOM      8  O   UNL     1      -0.004   7.808  21.940  0.00  0.00    +0.000 OA
ATOM      9  C   UNL     1       0.851   7.673  20.888  0.00  0.00    +0.000 A 
ATOM     10  C   UNL     1       1.313   6.351  20.778  0.00  0.00    +0.000 A 
ATOM     11  C   UNL     1       2.231   5.982  19.795  0.00  0.00    +0.000 A 
ATOM     12  C   UNL     1       2.683   6.934  18.888  0.00  0.00    +0.000 A 
ATOM     13  C   UNL     1       2.201   8.241  18.962  0.00  0.00    +0.000 A 
ATOM     14  C   UNL     1       1.284   8.634  19.963  0.00  0.00    +0.000 A 
ENDROOT
BRANCH   1  17
ATOM     15  C   UNL     1      -1.990  14.322  22.611  0.00  0.00    +0.000 C 
ATOM     16  N   UNL     1      -1.434  13.264  21.805  0.00  0.00    +0.000 N 
ATOM     17  C   UNL     1      -0.069  13.145  21.650  0.00  0.00    +0.000 C 
ATOM     18  O   UNL     1       0.714  13.927  22.178  0.00  0.00    +0.000 OA
ATOM     19  H   UNL     1      -2.016  12.469  21.583  0.00  0.00    +0.000 HD
ENDBRANCH   1  17
BRANCH   2  20
ATOM     20  C   UNL     1       0.148  13.209  18.500  0.00  0.00    +0.000 C 
ATOM     21  N   UNL     1      -0.905  13.031  17.651  0.00  0.00    +0.000 N 
ATOM     22  O   UNL     1       0.829  14.225  18.479  0.00  0.00    +0.000 OA
ATOM     23  H   UNL     1      -1.439  12.171  17.678  0.00  0.00    +0.000 HD
ATOM     24  H   UNL     1      -1.141  13.772  17.007  0.00  0.00    +0.000 HD
ENDBRANCH   2  20
BRANCH  12  25
ATOM     25  C   UNL     1       3.643   6.561  17.897  0.00  0.00    +0.000 C 
ATOM     26  C   UNL     1       4.441   6.268  17.039  0.00  0.00    +0.000 C 
BRANCH  26  27
ATOM     27  C   UNL     1       5.403   5.962  16.003  0.00  0.00    +0.000 C 
ATOM     28  C   UNL     1       6.855   5.728  16.504  0.00  0.00    +0.000 C 
ATOM     29  C   UNL     1       6.961   4.581  15.483  0.00  0.00    +0.000 C 
ATOM     30  C   UNL     1       5.422   4.485  15.523  0.00  0.00    +0.000 C 
BRANCH  27  31
ATOM     31  O   UNL     1       5.264   6.938  14.949  0.00  0.00    +0.000 OA
ATOM     32  H   UNL     1       4.455   6.677  14.475  0.00  0.00    +0.000 HD
ENDBRANCH  27  31
ENDBRANCH  26  27
ENDBRANCH  12  25
TORSDOF 5
ENDMDL
MODEL 3
REMARK VINA RESULT:      -7.6      6.908     11.144
REMARK  Name = 
REMARK  6 active torsions:
REMARK  status: ('A' for Active; 'I' for Inactive)
REMARK    1  A    between atoms: C_1  and  N_2
REMARK    2  A    between atoms: C_3  and  C_5
REMARK    3  A    between atoms: C_6  and  C_7
REMARK    4  A    between atoms: C_19  and  C_20
REMARK    5  A    between atoms: C_21  and  C_22
REMARK    6  A    between atoms: C_22  and  O_23
REMARK                            x       y       z     vdW  Elec       q    Type
REMARK                         _______ _______ _______ _____ _____    ______ ____
ROOT
ATOM      1  C   UNL     1       8.538  14.015  23.276  0.00  0.00    +0.000 A 
ATOM      2  C   UNL     1       8.425  12.702  23.717  0.00  0.00    +0.000 A 
ATOM      3  N   UNL     1       8.796  11.819  22.715  0.00  0.00    +0.000 NA
ATOM      4  C   UNL     1       9.119  12.554  21.670  0.00  0.00    +0.000 A 
ATOM      5  N   UNL     1       8.974  13.889  21.972  0.00  0.00    +0.000 N 
ATOM      6  C   UNL     1       9.351  14.932  21.039  0.00  0.00    +0.000 C 
ATOM      7  C   UNL     1      10.818  14.806  20.677  0.00  0.00    +0.000 C 
ATOM      8  O   UNL     1      11.161  13.821  19.709  0.00  0.00    +0.000 OA
ATOM      9  C   UNL     1      10.444  12.681  19.508  0.00  0.00    +0.000 A 
ATOM     10  C   UNL     1      10.742  12.107  18.262  0.00  0.00    +0.000 A 
ATOM     11  C   UNL     1      10.099  10.951  17.820  0.00  0.00    +0.000 A 
ATOM     12  C   UNL     1       9.158  10.337  18.639  0.00  0.00    +0.000 A 
ATOM     13  C   UNL     1       8.881  10.874  19.896  0.00  0.00    +0.000 A 
ATOM     14  C   UNL     1       9.512  12.054  20.349  0.00  0.00    +0.000 A 
ENDROOT
BRANCH   1  17
ATOM     15  C   UNL     1       6.928  17.132  24.536  0.00  0.00    +0.000 C 
ATOM     16  N   UNL     1       7.194  15.891  23.852  0.00  0.00    +0.000 N 
ATOM     17  C   UNL     1       8.381  15.219  24.055  0.00  0.00    +0.000 C 
ATOM     18  O   UNL     1       9.247  15.647  24.811  0.00  0.00    +0.000 OA
ATOM     19  H   UNL     1       6.419  15.388  23.443  0.00  0.00    +0.000 HD
ENDBRANCH   1  17
BRANCH   2  20
ATOM     20  C   UNL     1       7.969  12.245  25.034  0.00  0.00    +0.000 C 
ATOM     21  N   UNL     1       8.715  12.724  26.070  0.00  0.00    +0.000 N 
ATOM     22  O   UNL     1       7.026  11.486  25.214  0.00  0.00    +0.000 OA
ATOM     23  H   UNL     1       9.503  13.334  25.889  0.00  0.00    +0.000 HD
ATOM     24  H   UNL     1       8.463  12.463  27.012  0.00  0.00    +0.000 HD
ENDBRANCH   2  20
BRANCH  12  25
ATOM     25  C   UNL     1       8.480   9.167  18.175  0.00  0.00    +0.000 C 
ATOM     26  C   UNL     1       7.927   8.160  17.803  0.00  0.00    +0.000 C 
BRANCH  26  27
ATOM     27  C   UNL     1       7.263   6.939  17.401  0.00  0.00    +0.000 C 
ATOM     28  C   UNL     1       7.182   5.844  18.501  0.00  0.00    +0.000 C 
ATOM     29  C   UNL     1       5.752   5.544  18.015  0.00  0.00    +0.000 C 
ATOM     30  C   UNL     1       5.711   6.977  17.445  0.00  0.00    +0.000 C 
BRANCH  27  31
ATOM     31  O   UNL     1       7.822   6.508  16.142  0.00  0.00    +0.000 OA
ATOM     32  H   UNL     1       8.784   6.496  16.290  0.00  0.00    +0.000 HD
ENDBRANCH  27  31
ENDBRANCH  26  27
ENDBRANCH  12  25
TORSDOF 5
ENDMDL
MODEL 4
REMARK VINA RESULT:      -7.4      1.078      1.262
REMARK  Name = 
REMARK  6 active torsions:
REMARK  status: ('A' for Active; 'I' for Inactive)
REMARK    1  A    between atoms: C_1  and  N_2
REMARK    2  A    between atoms: C_3  and  C_5
REMARK    3  A    between atoms: C_6  and  C_7
REMARK    4  A    between atoms: C_19  and  C_20
REMARK    5  A    between atoms: C_21  and  C_22
REMARK    6  A    between atoms: C_22  and  O_23
REMARK                            x       y       z     vdW  Elec       q    Type
REMARK                         _______ _______ _______ _____ _____    ______ ____
ROOT
ATOM      1  C   UNL     1       5.228   4.786  16.397  0.00  0.00    +0.000 A 
ATOM      2  C   UNL     1       5.836   5.906  16.949  0.00  0.00    +0.000 A 
ATOM      3  N   UNL     1       5.119   6.359  18.046  0.00  0.00    +0.000 NA
ATOM      4  C   UNL     1       4.083   5.555  18.171  0.00  0.00    +0.000 A 
ATOM      5  N   UNL     1       4.115   4.591  17.190  0.00  0.00    +0.000 N 
ATOM      6  C   UNL     1       3.148   3.512  17.142  0.00  0.00    +0.000 C 
ATOM      7  C   UNL     1       3.191   2.712  18.429  0.00  0.00    +0.000 C 
ATOM      8  O   UNL     1       2.517   3.262  19.555  0.00  0.00    +0.000 OA
ATOM      9  C   UNL     1       2.333   4.598  19.742  0.00  0.00    +0.000 A 
ATOM     10  C   UNL     1       1.313   4.843  20.676  0.00  0.00    +0.000 A 
ATOM     11  C   UNL     1       0.921   6.141  21.001  0.00  0.00    +0.000 A 
ATOM     12  C   UNL     1       1.566   7.220  20.408  0.00  0.00    +0.000 A 
ATOM     13  C   UNL     1       2.608   6.991  19.507  0.00  0.00    +0.000 A 
ATOM     14  C   UNL     1       3.004   5.682  19.155  0.00  0.00    +0.000 A 
ENDROOT
BRANCH   1  17
ATOM     15  C   UNL     1       5.922   3.650  12.916  0.00  0.00    +0.000 C 
ATOM     16  N   UNL     1       5.506   4.416  14.064  0.00  0.00    +0.000 N 
ATOM     17  C   UNL     1       5.733   3.944  15.340  0.00  0.00    +0.000 C 
ATOM     18  O   UNL     1       6.285   2.869  15.545  0.00  0.00    +0.000 OA
ATOM     19  H   UNL     1       5.298   5.396  13.942  0.00  0.00    +0.000 HD
ENDBRANCH   1  17
BRANCH   2  20
ATOM     20  C   UNL     1       7.053   6.577  16.480  0.00  0.00    +0.000 C 
ATOM     21  N   UNL     1       7.305   7.762  17.108  0.00  0.00    +0.000 N 
ATOM     22  O   UNL     1       7.781   6.150  15.594  0.00  0.00    +0.000 OA
ATOM     23  H   UNL     1       6.673   8.100  17.824  0.00  0.00    +0.000 HD
ATOM     24  H   UNL     1       8.128   8.284  16.849  0.00  0.00    +0.000 HD
ENDBRANCH   2  20
BRANCH  12  25
ATOM     25  C   UNL     1       1.146   8.550  20.721  0.00  0.00    +0.000 C 
ATOM     26  C   UNL     1       0.762   9.662  20.994  0.00  0.00    +0.000 C 
BRANCH  26  27
ATOM     27  C   UNL     1       0.282  10.977  21.361  0.00  0.00    +0.000 C 
ATOM     28  C   UNL     1       1.118  12.161  20.799  0.00  0.00    +0.000 C 
ATOM     29  C   UNL     1      -0.209  12.898  20.540  0.00  0.00    +0.000 C 
ATOM     30  C   UNL     1      -0.899  11.518  20.511  0.00  0.00    +0.000 C 
BRANCH  27  31
ATOM     31  O   UNL     1       0.062  11.001  22.787  0.00  0.00    +0.000 OA
ATOM     32  H   UNL     1       0.954  10.997  23.175  0.00  0.00    +0.000 HD
ENDBRANCH  27  31
ENDBRANCH  26  27
ENDBRANCH  12  25
TORSDOF 5
ENDMDL
MODEL 5
REMARK VINA RESULT:      -7.4      6.942     11.193
REMARK  Name = 
REMARK  6 active torsions:
REMARK  status: ('A' for Active; 'I' for Inactive)
REMARK    1  A    between atoms: C_1  and  N_2
REMARK    2  A    between atoms: C_3  and  C_5
REMARK    3  A    between atoms: C_6  and  C_7
REMARK    4  A    between atoms: C_19  and  C_20
REMARK    5  A    between atoms: C_21  and  C_22
REMARK    6  A    between atoms: C_22  and  O_23
REMARK                            x       y       z     vdW  Elec       q    Type
REMARK                         _______ _______ _______ _____ _____    ______ ____
ROOT
ATOM      1  C   UNL     1       8.564  14.136  23.073  0.00  0.00    +0.000 A 
ATOM      2  C   UNL     1       8.435  12.836  23.548  0.00  0.00    +0.000 A 
ATOM      3  N   UNL     1       8.804  11.923  22.572  0.00  0.00    +0.000 NA
ATOM      4  C   UNL     1       9.141  12.628  21.510  0.00  0.00    +0.000 A 
ATOM      5  N   UNL     1       9.007  13.971  21.777  0.00  0.00    +0.000 N 
ATOM      6  C   UNL     1       9.401  14.986  20.820  0.00  0.00    +0.000 C 
ATOM      7  C   UNL     1      10.868  14.837  20.471  0.00  0.00    +0.000 C 
ATOM      8  O   UNL     1      11.209  13.823  19.531  0.00  0.00    +0.000 OA
ATOM      9  C   UNL     1      10.481  12.686  19.355  0.00  0.00    +0.000 A 
ATOM     10  C   UNL     1      10.782  12.077  18.126  0.00  0.00    +0.000 A 
ATOM     11  C   UNL     1      10.130  10.917  17.710  0.00  0.00    +0.000 A 
ATOM     12  C   UNL     1       9.178  10.333  18.537  0.00  0.00    +0.000 A 
ATOM     13  C   UNL     1       8.898  10.905  19.779  0.00  0.00    +0.000 A 
ATOM     14  C   UNL     1       9.537  12.090  20.205  0.00  0.00    +0.000 A 
ENDROOT
BRANCH   1  17
ATOM     15  C   UNL     1       9.385  16.795  25.552  0.00  0.00    +0.000 C 
ATOM     16  N   UNL     1       9.432  15.625  24.712  0.00  0.00    +0.000 N 
ATOM     17  C   UNL     1       8.413  15.361  23.820  0.00  0.00    +0.000 C 
ATOM     18  O   UNL     1       7.439  16.097  23.713  0.00  0.00    +0.000 OA
ATOM     19  H   UNL     1      10.317  15.157  24.585  0.00  0.00    +0.000 HD
ENDBRANCH   1  17
BRANCH   2  20
ATOM     20  C   UNL     1       7.966  12.417  24.873  0.00  0.00    +0.000 C 
ATOM     21  N   UNL     1       6.979  11.476  24.834  0.00  0.00    +0.000 N 
ATOM     22  O   UNL     1       8.386  12.868  25.930  0.00  0.00    +0.000 OA
ATOM     23  H   UNL     1       6.637  11.136  23.943  0.00  0.00    +0.000 HD
ATOM     24  H   UNL     1       6.605  11.128  25.704  0.00  0.00    +0.000 HD
ENDBRANCH   2  20
BRANCH  12  25
ATOM     25  C   UNL     1       8.492   9.158  18.100  0.00  0.00    +0.000 C 
ATOM     26  C   UNL     1       7.918   8.151  17.760  0.00  0.00    +0.000 C 
BRANCH  26  27
ATOM     27  C   UNL     1       7.207   6.945  17.393  0.00  0.00    +0.000 C 
ATOM     28  C   UNL     1       7.107   5.875  18.516  0.00  0.00    +0.000 C 
ATOM     29  C   UNL     1       5.661   5.614  18.059  0.00  0.00    +0.000 C 
ATOM     30  C   UNL     1       5.658   7.036  17.460  0.00  0.00    +0.000 C 
BRANCH  27  31
ATOM     31  O   UNL     1       7.731   6.471  16.135  0.00  0.00    +0.000 OA
ATOM     32  H   UNL     1       8.636   6.176  16.339  0.00  0.00    +0.000 HD
ENDBRANCH  27  31
ENDBRANCH  26  27
ENDBRANCH  12  25
TORSDOF 5
ENDMDL
MODEL 6
REMARK VINA RESULT:      -7.4      2.802      4.754
REMARK  Name = 
REMARK  6 active torsions:
REMARK  status: ('A' for Active; 'I' for Inactive)
REMARK    1  A    between atoms: C_1  and  N_2
REMARK    2  A    between atoms: C_3  and  C_5
REMARK    3  A    between atoms: C_6  and  C_7
REMARK    4  A    between atoms: C_19  and  C_20
REMARK    5  A    between atoms: C_21  and  C_22
REMARK    6  A    between atoms: C_22  and  O_23
REMARK                            x       y       z     vdW  Elec       q    Type
REMARK                         _______ _______ _______ _____ _____    ______ ____
ROOT
ATOM      1  C   UNL     1       3.500   4.674  19.886  0.00  0.00    +0.000 A 
ATOM      2  C   UNL     1       2.255   4.588  20.497  0.00  0.00    +0.000 A 
ATOM      3  N   UNL     1       1.533   5.755  20.297  0.00  0.00    +0.000 NA
ATOM      4  C   UNL     1       2.308   6.556  19.594  0.00  0.00    +0.000 A 
ATOM      5  N   UNL     1       3.507   5.936  19.328  0.00  0.00    +0.000 N 
ATOM      6  C   UNL     1       4.517   6.549  18.488  0.00  0.00    +0.000 C 
ATOM      7  C   UNL     1       3.951   6.836  17.111  0.00  0.00    +0.000 C 
ATOM      8  O   UNL     1       3.139   7.997  16.976  0.00  0.00    +0.000 OA
ATOM      9  C   UNL     1       2.407   8.525  17.995  0.00  0.00    +0.000 A 
ATOM     10  C   UNL     1       2.045   9.855  17.723  0.00  0.00    +0.000 A 
ATOM     11  C   UNL     1       1.323  10.615  18.642  0.00  0.00    +0.000 A 
ATOM     12  C   UNL     1       0.930  10.041  19.846  0.00  0.00    +0.000 A 
ATOM     13  C   UNL     1       1.249   8.709  20.112  0.00  0.00    +0.000 A 
ATOM     14  C   UNL     1       1.995   7.933  19.198  0.00  0.00    +0.000 A 
ENDROOT
BRANCH   1  17
ATOM     15  C   UNL     1       4.934   1.237  20.037  0.00  0.00    +0.000 C 
ATOM     16  N   UNL     1       4.040   2.367  20.090  0.00  0.00    +0.000 N 
ATOM     17  C   UNL     1       4.483   3.627  19.746  0.00  0.00    +0.000 C 
ATOM     18  O   UNL     1       5.638   3.834  19.392  0.00  0.00    +0.000 OA
ATOM     19  H   UNL     1       3.046   2.195  20.116  0.00  0.00    +0.000 HD
ENDBRANCH   1  17
BRANCH   2  20
ATOM     20  C   UNL     1       1.722   3.462  21.272  0.00  0.00    +0.000 C 
ATOM     21  N   UNL     1       0.622   2.882  20.712  0.00  0.00    +0.000 N 
ATOM     22  O   UNL     1       2.187   3.072  22.334  0.00  0.00    +0.000 OA
ATOM     23  H   UNL     1       0.247   3.239  19.842  0.00  0.00    +0.000 HD
ATOM     24  H   UNL     1       0.197   2.094  21.179  0.00  0.00    +0.000 HD
ENDBRANCH   2  20
BRANCH  12  25
ATOM     25  C   UNL     1       0.212  10.829  20.798  0.00  0.00    +0.000 C 
ATOM     26  C   UNL     1      -0.405  11.513  21.579  0.00  0.00    +0.000 C 
BRANCH  26  27
ATOM     27  C   UNL     1      -1.182  12.332  22.484  0.00  0.00    +0.000 C 
ATOM     28  C   UNL     1      -2.423  13.018  21.848  0.00  0.00    +0.000 C 
ATOM     29  C   UNL     1      -3.190  12.702  23.146  0.00  0.00    +0.000 C 
ATOM     30  C   UNL     1      -2.179  11.562  23.393  0.00  0.00    +0.000 C 
BRANCH  27  31
ATOM     31  O   UNL     1      -0.282  13.215  23.187  0.00  0.00    +0.000 OA
ATOM     32  H   UNL     1       0.311  13.562  22.498  0.00  0.00    +0.000 HD
ENDBRANCH  27  31
ENDBRANCH  26  27
ENDBRANCH  12  25
TORSDOF 5
ENDMDL
MODEL 7
REMARK VINA RESULT:      -7.1      3.401      8.712
REMARK  Name = 
REMARK  6 active torsions:
REMARK  status: ('A' for Active; 'I' for Inactive)
REMARK    1  A    between atoms: C_1  and  N_2
REMARK    2  A    between atoms: C_3  and  C_5
REMARK    3  A    between atoms: C_6  and  C_7
REMARK    4  A    between atoms: C_19  and  C_20
REMARK    5  A    between atoms: C_21  and  C_22
REMARK    6  A    between atoms: C_22  and  O_23
REMARK                            x       y       z     vdW  Elec       q    Type
REMARK                         _______ _______ _______ _____ _____    ______ ____
ROOT
ATOM      1  C   UNL     1       0.827  11.732  20.554  0.00  0.00    +0.000 A 
ATOM      2  C   UNL     1       1.126  11.671  19.198  0.00  0.00    +0.000 A 
ATOM      3  N   UNL     1       1.395  10.366  18.817  0.00  0.00    +0.000 NA
ATOM      4  C   UNL     1       1.282   9.629  19.904  0.00  0.00    +0.000 A 
ATOM      5  N   UNL     1       0.941  10.423  20.975  0.00  0.00    +0.000 N 
ATOM      6  C   UNL     1       0.656   9.865  22.282  0.00  0.00    +0.000 C 
ATOM      7  C   UNL     1      -0.489   8.875  22.193  0.00  0.00    +0.000 C 
ATOM      8  O   UNL     1      -0.181   7.573  21.708  0.00  0.00    +0.000 OA
ATOM      9  C   UNL     1       0.842   7.314  20.847  0.00  0.00    +0.000 A 
ATOM     10  C   UNL     1       1.179   5.950  20.857  0.00  0.00    +0.000 A 
ATOM     11  C   UNL     1       2.226   5.455  20.082  0.00  0.00    +0.000 A 
ATOM     12  C   UNL     1       2.939   6.321  19.260  0.00  0.00    +0.000 A 
ATOM     13  C   UNL     1       2.589   7.671  19.211  0.00  0.00    +0.000 A 
ATOM     14  C   UNL     1       1.542   8.190  20.005  0.00  0.00    +0.000 A 
ENDROOT
BRANCH   1  17
ATOM     15  C   UNL     1      -1.611  14.127  22.041  0.00  0.00    +0.000 C 
ATOM     16  N   UNL     1      -1.012  13.004  21.364  0.00  0.00    +0.000 N 
ATOM     17  C   UNL     1       0.360  12.875  21.298  0.00  0.00    +0.000 C 
ATOM     18  O   UNL     1       1.113  13.702  21.802  0.00  0.00    +0.000 OA
ATOM     19  H   UNL     1      -1.582  12.192  21.177  0.00  0.00    +0.000 HD
ENDBRANCH   1  17
BRANCH   2  20
ATOM     20  C   UNL     1       1.184  12.790  18.251  0.00  0.00    +0.000 C 
ATOM     21  N   UNL     1       2.381  12.903  17.608  0.00  0.00    +0.000 N 
ATOM     22  O   UNL     1       0.268  13.577  18.053  0.00  0.00    +0.000 OA
ATOM     23  H   UNL     1       3.128  12.249  17.807  0.00  0.00    +0.000 HD
ATOM     24  H   UNL     1       2.502  13.643  16.932  0.00  0.00    +0.000 HD
ENDBRANCH   2  20
BRANCH  12  25
ATOM     25  C   UNL     1       4.029   5.817  18.485  0.00  0.00    +0.000 C 
ATOM     26  C   UNL     1       4.959   5.373  17.855  0.00  0.00    +0.000 C 
BRANCH  26  27
ATOM     27  C   UNL     1       6.063   4.798  17.117  0.00  0.00    +0.000 C 
ATOM     28  C   UNL     1       5.658   4.011  15.839  0.00  0.00    +0.000 C 
ATOM     29  C   UNL     1       6.882   4.630  15.140  0.00  0.00    +0.000 C 
ATOM     30  C   UNL     1       6.816   5.775  16.173  0.00  0.00    +0.000 C 
BRANCH  27  31
ATOM     31  O   UNL     1       6.906   4.080  18.041  0.00  0.00    +0.000 OA
ATOM     32  H   UNL     1       6.644   3.148  17.943  0.00  0.00    +0.000 HD
ENDBRANCH  27  31
ENDBRANCH  26  27
ENDBRANCH  12  25
TORSDOF 5
ENDMDL
MODEL 8
REMARK VINA RESULT:      -6.9      3.484      8.853
REMARK  Name = 
REMARK  6 active torsions:
REMARK  status: ('A' for Active; 'I' for Inactive)
REMARK    1  A    between atoms: C_1  and  N_2
REMARK    2  A    between atoms: C_3  and  C_5
REMARK    3  A    between atoms: C_6  and  C_7
REMARK    4  A    between atoms: C_19  and  C_20
REMARK    5  A    between atoms: C_21  and  C_22
REMARK    6  A    between atoms: C_22  and  O_23
REMARK                            x       y       z     vdW  Elec       q    Type
REMARK                         _______ _______ _______ _____ _____    ______ ____
ROOT
ATOM      1  C   UNL     1       0.524  11.661  20.520  0.00  0.00    +0.000 A 
ATOM      2  C   UNL     1       0.627  11.664  19.134  0.00  0.00    +0.000 A 
ATOM      3  N   UNL     1       1.007  10.413  18.672  0.00  0.00    +0.000 NA
ATOM      4  C   UNL     1       1.152   9.651  19.738  0.00  0.00    +0.000 A 
ATOM      5  N   UNL     1       0.870  10.374  20.874  0.00  0.00    +0.000 N 
ATOM      6  C   UNL     1       0.856   9.761  22.188  0.00  0.00    +0.000 C 
ATOM      7  C   UNL     1      -0.149   8.627  22.228  0.00  0.00    +0.000 C 
ATOM      8  O   UNL     1       0.254   7.387  21.658  0.00  0.00    +0.000 OA
ATOM      9  C   UNL     1       1.165   7.283  20.652  0.00  0.00    +0.000 A 
ATOM     10  C   UNL     1       1.676   5.977  20.565  0.00  0.00    +0.000 A 
ATOM     11  C   UNL     1       2.654   5.640  19.630  0.00  0.00    +0.000 A 
ATOM     12  C   UNL     1       3.119   6.608  18.746  0.00  0.00    +0.000 A 
ATOM     13  C   UNL     1       2.590   7.899  18.795  0.00  0.00    +0.000 A 
ATOM     14  C   UNL     1       1.612   8.259  19.749  0.00  0.00    +0.000 A 
ENDROOT
BRANCH   1  17
ATOM     15  C   UNL     1       0.517  14.902  22.361  0.00  0.00    +0.000 C 
ATOM     16  N   UNL     1       0.875  13.795  21.510  0.00  0.00    +0.000 N 
ATOM     17  C   UNL     1       0.025  12.719  21.364  0.00  0.00    +0.000 C 
ATOM     18  O   UNL     1      -1.051  12.661  21.948  0.00  0.00    +0.000 OA
ATOM     19  H   UNL     1       1.607  13.928  20.827  0.00  0.00    +0.000 HD
ENDBRANCH   1  17
BRANCH   2  20
ATOM     20  C   UNL     1       0.397  12.795  18.229  0.00  0.00    +0.000 C 
ATOM     21  N   UNL     1       1.543  13.414  17.822  0.00  0.00    +0.000 N 
ATOM     22  O   UNL     1      -0.707  13.183  17.873  0.00  0.00    +0.000 OA
ATOM     23  H   UNL     1       2.442  13.082  18.149  0.00  0.00    +0.000 HD
ATOM     24  H   UNL     1       1.474  14.198  17.190  0.00  0.00    +0.000 HD
ENDBRANCH   2  20
BRANCH  12  25
ATOM     25  C   UNL     1       4.140   6.269  17.805  0.00  0.00    +0.000 C 
ATOM     26  C   UNL     1       5.013   5.958  17.031  0.00  0.00    +0.000 C 
BRANCH  26  27
ATOM     27  C   UNL     1       6.047   5.541  16.108  0.00  0.00    +0.000 C 
ATOM     28  C   UNL     1       6.319   4.011  16.076  0.00  0.00    +0.000 C 
ATOM     29  C   UNL     1       6.464   4.127  14.548  0.00  0.00    +0.000 C 
ATOM     30  C   UNL     1       5.605   5.406  14.626  0.00  0.00    +0.000 C 
BRANCH  27  31
ATOM     31  O   UNL     1       7.209   6.370  16.320  0.00  0.00    +0.000 OA
ATOM     32  H   UNL     1       7.940   5.741  16.451  0.00  0.00    +0.000 HD
ENDBRANCH  27  31
ENDBRANCH  26  27
ENDBRANCH  12  25
TORSDOF 5
ENDMDL
MODEL 9
REMARK VINA RESULT:      -6.9      3.096      7.286
REMARK  Name = 
REMARK  6 active torsions:
REMARK  status: ('A' for Active; 'I' for Inactive)
REMARK    1  A    between atoms: C_1  and  N_2
REMARK    2  A    between atoms: C_3  and  C_5
REMARK    3  A    between atoms: C_6  and  C_7
REMARK    4  A    between atoms: C_19  and  C_20
REMARK    5  A    between atoms: C_21  and  C_22
REMARK    6  A    between atoms: C_22  and  O_23
REMARK                            x       y       z     vdW  Elec       q    Type
REMARK                         _______ _______ _______ _____ _____    ______ ____
ROOT
ATOM      1  C   UNL     1       2.529   4.767  19.933  0.00  0.00    +0.000 A 
ATOM      2  C   UNL     1       2.321   6.140  19.984  0.00  0.00    +0.000 A 
ATOM      3  N   UNL     1       3.268   6.804  19.220  0.00  0.00    +0.000 NA
ATOM      4  C   UNL     1       4.056   5.876  18.714  0.00  0.00    +0.000 A 
ATOM      5  N   UNL     1       3.640   4.631  19.126  0.00  0.00    +0.000 N 
ATOM      6  C   UNL     1       4.266   3.416  18.644  0.00  0.00    +0.000 C 
ATOM      7  C   UNL     1       4.173   3.341  17.133  0.00  0.00    +0.000 C 
ATOM      8  O   UNL     1       5.110   4.113  16.390  0.00  0.00    +0.000 OA
ATOM      9  C   UNL     1       5.670   5.265  16.852  0.00  0.00    +0.000 A 
ATOM     10  C   UNL     1       6.829   5.591  16.129  0.00  0.00    +0.000 A 
ATOM     11  C   UNL     1       7.595   6.711  16.449  0.00  0.00    +0.000 A 
ATOM     12  C   UNL     1       7.194   7.539  17.491  0.00  0.00    +0.000 A 
ATOM     13  C   UNL     1       6.023   7.249  18.192  0.00  0.00    +0.000 A 
ATOM     14  C   UNL     1       5.247   6.108  17.890  0.00  0.00    +0.000 A 
ENDROOT
BRANCH   1  17
ATOM     15  C   UNL     1       1.345   2.179  22.339  0.00  0.00    +0.000 C 
ATOM     16  N   UNL     1       2.078   3.246  21.704  0.00  0.00    +0.000 N 
ATOM     17  C   UNL     1       1.684   3.731  20.475  0.00  0.00    +0.000 C 
ATOM     18  O   UNL     1       0.712   3.277  19.880  0.00  0.00    +0.000 OA
ATOM     19  H   UNL     1       2.700   3.807  22.268  0.00  0.00    +0.000 HD
ENDBRANCH   1  17
BRANCH   2  20
ATOM     20  C   UNL     1       1.281   6.853  20.732  0.00  0.00    +0.000 C 
ATOM     21  N   UNL     1       1.719   8.002  21.324  0.00  0.00    +0.000 N 
ATOM     22  O   UNL     1       0.126   6.466  20.852  0.00  0.00    +0.000 OA
ATOM     23  H   UNL     1       2.686   8.286  21.224  0.00  0.00    +0.000 HD
ATOM     24  H   UNL     1       1.063   8.557  21.852  0.00  0.00    +0.000 HD
ENDBRANCH   2  20
BRANCH  12  25
ATOM     25  C   UNL     1       7.994   8.673  17.835  0.00  0.00    +0.000 C 
ATOM     26  C   UNL     1       8.643   9.650  18.120  0.00  0.00    +0.000 C 
BRANCH  26  27
ATOM     27  C   UNL     1       9.386  10.836  18.489  0.00  0.00    +0.000 C 
ATOM     28  C   UNL     1      10.682  11.081  17.667  0.00  0.00    +0.000 C 
ATOM     29  C   UNL     1      10.326  12.579  17.661  0.00  0.00    +0.000 C 
ATOM     30  C   UNL     1       8.856  12.168  17.890  0.00  0.00    +0.000 C 
BRANCH  27  31
ATOM     31  O   UNL     1       9.554  10.843  19.922  0.00  0.00    +0.000 OA
ATOM     32  H   UNL     1       8.728  10.463  20.269  0.00  0.00    +0.000 HD
ENDBRANCH  27  31
ENDBRANCH  26  27
ENDBRANCH  12  25
TORSDOF 5
ENDMDL
