MODEL 1
REMARK VINA RESULT:      -8.7      0.000      0.000
REMARK  Name = 
REMARK  7 active torsions:
REMARK  status: ('A' for Active; 'I' for Inactive)
REMARK    1  A    between atoms: C_2  and  C_3
REMARK    2  A    between atoms: C_3  and  N_4
REMARK    3  A    between atoms: N_7  and  C_8
REMARK    4  A    between atoms: C_11  and  O_12
REMARK    5  A    between atoms: N_17  and  C_18
REMARK    6  A    between atoms: C_20  and  S_21
REMARK    7  A    between atoms: S_21  and  N_24
REMARK                            x       y       z     vdW  Elec       q    Type
REMARK                         _______ _______ _______ _____ _____    ______ ____
ROOT
ATOM      1  O   UNL     1       1.710   7.643  18.127  0.00  0.00    +0.000 OA
ATOM      2  C   UNL     1       2.171   7.454  19.261  0.00  0.00    +0.000 C 
ATOM      3  N   UNL     1       2.983   6.370  19.596  0.00  0.00    +0.000 N 
ATOM      4  H   UNL     1       3.171   6.212  20.587  0.00  0.00    +0.000 HD
ENDROOT
BRANCH   3   5
ATOM      5  C   UNL     1       3.585   5.486  18.665  0.00  0.00    +0.000 A 
ATOM      6  C   UNL     1       4.813   5.788  18.058  0.00  0.00    +0.000 A 
ATOM      7  C   UNL     1       5.439   4.887  17.192  0.00  0.00    +0.000 A 
ATOM      8  C   UNL     1       4.914   3.611  17.013  0.00  0.00    +0.000 A 
ATOM      9  C   UNL     1       3.663   3.302  17.558  0.00  0.00    +0.000 A 
ATOM     10  C   UNL     1       2.979   4.261  18.327  0.00  0.00    +0.000 A 
ATOM     11 CL   UNL     1       1.305   3.966  18.646  0.00  0.00    +0.000 Cl
BRANCH   7  12
ATOM     12  S   UNL     1       6.967   5.392  16.399  0.00  0.00    +0.000 S 
ATOM     13  O   UNL     1       7.122   6.811  16.589  0.00  0.00    +0.000 OA
ATOM     14  O   UNL     1       7.985   4.470  16.871  0.00  0.00    +0.000 OA
BRANCH  12  15
ATOM     15  N   UNL     1       6.708   5.083  14.724  0.00  0.00    +0.000 NA
ATOM     16  C   UNL     1       7.863   5.364  13.829  0.00  0.00    +0.000 C 
ATOM     17  C   UNL     1       7.541   5.149  12.355  0.00  0.00    +0.000 C 
ATOM     18  C   UNL     1       6.877   3.805  12.111  0.00  0.00    +0.000 C 
ATOM     19  C   UNL     1       5.599   3.722  12.927  0.00  0.00    +0.000 C 
ATOM     20  C   UNL     1       5.871   3.891  14.419  0.00  0.00    +0.000 C 
ENDBRANCH  12  15
ENDBRANCH   7  12
ENDBRANCH   3   5
BRANCH   2  21
ATOM     21  C   UNL     1       1.800   8.431  20.378  0.00  0.00    +0.000 C 
BRANCH  21  22
ATOM     22  N   UNL     1       0.383   8.852  20.298  0.00  0.00    +0.000 NA
ATOM     23  C   UNL     1      -0.300   8.701  21.611  0.00  0.00    +0.000 C 
ATOM     24  C   UNL     1       0.065   9.718  22.718  0.00  0.00    +0.000 C 
ATOM     25  N   UNL     1       0.028  11.099  22.216  0.00  0.00    +0.000 N 
ATOM     26  C   UNL     1       0.706  11.337  20.939  0.00  0.00    +0.000 C 
ATOM     27  C   UNL     1       0.282  10.278  19.884  0.00  0.00    +0.000 C 
BRANCH  25  28
ATOM     28  C   UNL     1      -0.882  12.012  22.718  0.00  0.00    +0.000 A 
ATOM     29  C   UNL     1      -2.126  11.613  23.229  0.00  0.00    +0.000 A 
ATOM     30  C   UNL     1      -3.083  12.549  23.643  0.00  0.00    +0.000 A 
ATOM     31  C   UNL     1      -2.790  13.905  23.562  0.00  0.00    +0.000 A 
ATOM     32  C   UNL     1      -1.558  14.331  23.097  0.00  0.00    +0.000 A 
ATOM     33  C   UNL     1      -0.619  13.391  22.688  0.00  0.00    +0.000 A 
BRANCH  31  34
ATOM     34  O   UNL     1      -3.689  14.858  23.928  0.00  0.00    +0.000 OA
ATOM     35  H   UNL     1      -3.823  14.800  24.887  0.00  0.00    +0.000 HD
ENDBRANCH  31  34
ENDBRANCH  25  28
ENDBRANCH  21  22
ENDBRANCH   2  21
TORSDOF 7
ENDMDL
MODEL 2
REMARK VINA RESULT:      -8.4      2.041      2.586
REMARK  Name = 
REMARK  7 active torsions:
REMARK  status: ('A' for Active; 'I' for Inactive)
REMARK    1  A    between atoms: C_2  and  C_3
REMARK    2  A    between atoms: C_3  and  N_4
REMARK    3  A    between atoms: N_7  and  C_8
REMARK    4  A    between atoms: C_11  and  O_12
REMARK    5  A    between atoms: N_17  and  C_18
REMARK    6  A    between atoms: C_20  and  S_21
REMARK    7  A    between atoms: S_21  and  N_24
REMARK                            x       y       z     vdW  Elec       q    Type
REMARK                         _______ _______ _______ _____ _____    ______ ____
ROOT
ATOM      1  O   UNL     1       2.196   7.968  18.195  0.00  0.00    +0.000 OA
ATOM      2  C   UNL     1       2.035   7.556  19.352  0.00  0.00    +0.000 C 
ATOM      3  N   UNL     1       2.127   6.212  19.714  0.00  0.00    +0.000 N 
ATOM      4  H   UNL     1       1.811   5.955  20.650  0.00  0.00    +0.000 HD
ENDROOT
BRANCH   3   5
ATOM      5  C   UNL     1       2.642   5.180  18.890  0.00  0.00    +0.000 A 
ATOM      6  C   UNL     1       3.682   5.422  17.980  0.00  0.00    +0.000 A 
ATOM      7  C   UNL     1       4.237   4.392  17.215  0.00  0.00    +0.000 A 
ATOM      8  C   UNL     1       3.851   3.074  17.436  0.00  0.00    +0.000 A 
ATOM      9  C   UNL     1       2.778   2.808  18.294  0.00  0.00    +0.000 A 
ATOM     10  C   UNL     1       2.141   3.866  18.966  0.00  0.00    +0.000 A 
ATOM     11 CL   UNL     1       0.611   3.528  19.697  0.00  0.00    +0.000 Cl
BRANCH   7  12
ATOM     12  S   UNL     1       5.508   4.810  16.019  0.00  0.00    +0.000 S 
ATOM     13  O   UNL     1       6.001   3.585  15.445  0.00  0.00    +0.000 OA
ATOM     14  O   UNL     1       4.936   5.843  15.174  0.00  0.00    +0.000 OA
BRANCH  12  15
ATOM     15  N   UNL     1       6.764   5.526  16.957  0.00  0.00    +0.000 NA
ATOM     16  C   UNL     1       6.739   7.012  17.041  0.00  0.00    +0.000 C 
ATOM     17  C   UNL     1       7.921   7.584  17.813  0.00  0.00    +0.000 C 
ATOM     18  C   UNL     1       8.115   6.888  19.149  0.00  0.00    +0.000 C 
ATOM     19  C   UNL     1       8.333   5.404  18.914  0.00  0.00    +0.000 C 
ATOM     20  C   UNL     1       7.156   4.771  18.177  0.00  0.00    +0.000 C 
ENDBRANCH  12  15
ENDBRANCH   7  12
ENDBRANCH   3   5
BRANCH   2  21
ATOM     21  C   UNL     1       1.668   8.560  20.446  0.00  0.00    +0.000 C 
BRANCH  21  22
ATOM     22  N   UNL     1       0.229   8.902  20.425  0.00  0.00    +0.000 NA
ATOM     23  C   UNL     1      -0.382   8.748  21.773  0.00  0.00    +0.000 C 
ATOM     24  C   UNL     1      -0.022   9.811  22.837  0.00  0.00    +0.000 C 
ATOM     25  N   UNL     1      -0.159  11.174  22.307  0.00  0.00    +0.000 N 
ATOM     26  C   UNL     1       0.444  11.416  20.992  0.00  0.00    +0.000 C 
ATOM     27  C   UNL     1       0.029  10.309  19.984  0.00  0.00    +0.000 C 
BRANCH  25  28
ATOM     28  C   UNL     1      -1.094  12.050  22.830  0.00  0.00    +0.000 A 
ATOM     29  C   UNL     1      -2.378  11.625  23.203  0.00  0.00    +0.000 A 
ATOM     30  C   UNL     1      -3.353  12.533  23.638  0.00  0.00    +0.000 A 
ATOM     31  C   UNL     1      -3.037  13.884  23.721  0.00  0.00    +0.000 A 
ATOM     32  C   UNL     1      -1.768  14.330  23.397  0.00  0.00    +0.000 A 
ATOM     33  C   UNL     1      -0.812  13.419  22.963  0.00  0.00    +0.000 A 
BRANCH  31  34
ATOM     34  O   UNL     1      -3.950  14.812  24.116  0.00  0.00    +0.000 OA
ATOM     35  H   UNL     1      -4.737  14.347  24.442  0.00  0.00    +0.000 HD
ENDBRANCH  31  34
ENDBRANCH  25  28
ENDBRANCH  21  22
ENDBRANCH   2  21
TORSDOF 7
ENDMDL
MODEL 3
REMARK VINA RESULT:      -8.4      1.357      1.639
REMARK  Name = 
REMARK  7 active torsions:
REMARK  status: ('A' for Active; 'I' for Inactive)
REMARK    1  A    between atoms: C_2  and  C_3
REMARK    2  A    between atoms: C_3  and  N_4
REMARK    3  A    between atoms: N_7  and  C_8
REMARK    4  A    between atoms: C_11  and  O_12
REMARK    5  A    between atoms: N_17  and  C_18
REMARK    6  A    between atoms: C_20  and  S_21
REMARK    7  A    between atoms: S_21  and  N_24
REMARK                            x       y       z     vdW  Elec       q    Type
REMARK                         _______ _______ _______ _____ _____    ______ ____
ROOT
ATOM      1  O   UNL     1       2.045   8.017  17.822  0.00  0.00    +0.000 OA
ATOM      2  C   UNL     1       1.971   8.146  19.052  0.00  0.00    +0.000 C 
ATOM      3  N   UNL     1       2.404   7.179  19.959  0.00  0.00    +0.000 N 
ATOM      4  H   UNL     1       2.146   7.304  20.939  0.00  0.00    +0.000 HD
ENDROOT
BRANCH   3   5
ATOM      5  C   UNL     1       3.191   6.047  19.628  0.00  0.00    +0.000 A 
ATOM      6  C   UNL     1       4.447   6.183  19.018  0.00  0.00    +0.000 A 
ATOM      7  C   UNL     1       5.253   5.073  18.753  0.00  0.00    +0.000 A 
ATOM      8  C   UNL     1       4.876   3.812  19.206  0.00  0.00    +0.000 A 
ATOM      9  C   UNL     1       3.605   3.637  19.765  0.00  0.00    +0.000 A 
ATOM     10  C   UNL     1       2.748   4.742  19.914  0.00  0.00    +0.000 A 
ATOM     11 CL   UNL     1       1.084   4.408  20.247  0.00  0.00    +0.000 Cl
BRANCH   7  12
ATOM     12  S   UNL     1       6.808   5.335  17.898  0.00  0.00    +0.000 S 
ATOM     13  O   UNL     1       7.215   6.699  18.119  0.00  0.00    +0.000 OA
ATOM     14  O   UNL     1       7.670   4.235  18.291  0.00  0.00    +0.000 OA
BRANCH  12  15
ATOM     15  N   UNL     1       6.423   5.137  16.230  0.00  0.00    +0.000 NA
ATOM     16  C   UNL     1       7.586   5.021  15.309  0.00  0.00    +0.000 C 
ATOM     17  C   UNL     1       7.178   4.932  13.843  0.00  0.00    +0.000 C 
ATOM     18  C   UNL     1       6.099   3.887  13.618  0.00  0.00    +0.000 C 
ATOM     19  C   UNL     1       4.885   4.231  14.463  0.00  0.00    +0.000 C 
ATOM     20  C   UNL     1       5.230   4.293  15.948  0.00  0.00    +0.000 C 
ENDBRANCH  12  15
ENDBRANCH   7  12
ENDBRANCH   3   5
BRANCH   2  21
ATOM     21  C   UNL     1       1.329   9.412  19.621  0.00  0.00    +0.000 C 
BRANCH  21  22
ATOM     22  N   UNL     1      -0.083   9.194  20.006  0.00  0.00    +0.000 NA
ATOM     23  C   UNL     1      -0.255   9.257  21.483  0.00  0.00    +0.000 C 
ATOM     24  C   UNL     1      -0.166  10.651  22.145  0.00  0.00    +0.000 C 
ATOM     25  N   UNL     1      -0.991  11.640  21.436  0.00  0.00    +0.000 N 
ATOM     26  C   UNL     1      -0.855  11.661  19.976  0.00  0.00    +0.000 C 
ATOM     27  C   UNL     1      -0.961  10.226  19.392  0.00  0.00    +0.000 C 
BRANCH  25  28
ATOM     28  C   UNL     1      -2.071  12.240  22.058  0.00  0.00    +0.000 A 
ATOM     29  C   UNL     1      -2.741  13.333  21.486  0.00  0.00    +0.000 A 
ATOM     30  C   UNL     1      -3.770  13.999  22.165  0.00  0.00    +0.000 A 
ATOM     31  C   UNL     1      -4.149  13.559  23.428  0.00  0.00    +0.000 A 
ATOM     32  C   UNL     1      -3.534  12.461  24.004  0.00  0.00    +0.000 A 
ATOM     33  C   UNL     1      -2.513  11.812  23.320  0.00  0.00    +0.000 A 
BRANCH  31  34
ATOM     34  O   UNL     1      -5.125  14.182  24.142  0.00  0.00    +0.000 OA
ATOM     35  H   UNL     1      -5.581  13.517  24.681  0.00  0.00    +0.000 HD
ENDBRANCH  31  34
ENDBRANCH  25  28
ENDBRANCH  21  22
ENDBRANCH   2  21
TORSDOF 7
ENDMDL
MODEL 4
REMARK VINA RESULT:      -8.3      2.219      2.921
REMARK  Name = 
REMARK  7 active torsions:
REMARK  status: ('A' for Active; 'I' for Inactive)
REMARK    1  A    between atoms: C_2  and  C_3
REMARK    2  A    between atoms: C_3  and  N_4
REMARK    3  A    between atoms: N_7  and  C_8
REMARK    4  A    between atoms: C_11  and  O_12
REMARK    5  A    between atoms: N_17  and  C_18
REMARK    6  A    between atoms: C_20  and  S_21
REMARK    7  A    between atoms: S_21  and  N_24
REMARK                            x       y       z     vdW  Elec       q    Type
REMARK                         _______ _______ _______ _____ _____    ______ ____
ROOT
ATOM      1  O   UNL     1       2.130   8.020  18.823  0.00  0.00    +0.000 OA
ATOM      2  C   UNL     1       1.927   7.583  19.964  0.00  0.00    +0.000 C 
ATOM      3  N   UNL     1       2.050   6.237  20.310  0.00  0.00    +0.000 N 
ATOM      4  H   UNL     1       1.699   5.953  21.226  0.00  0.00    +0.000 HD
ENDROOT
BRANCH   3   5
ATOM      5  C   UNL     1       2.643   5.238  19.497  0.00  0.00    +0.000 A 
ATOM      6  C   UNL     1       3.713   5.534  18.639  0.00  0.00    +0.000 A 
ATOM      7  C   UNL     1       4.342   4.538  17.887  0.00  0.00    +0.000 A 
ATOM      8  C   UNL     1       3.998   3.202  18.072  0.00  0.00    +0.000 A 
ATOM      9  C   UNL     1       2.898   2.882  18.876  0.00  0.00    +0.000 A 
ATOM     10  C   UNL     1       2.190   3.905  19.532  0.00  0.00    +0.000 A 
ATOM     11 CL   UNL     1       0.643   3.497  20.187  0.00  0.00    +0.000 Cl
BRANCH   7  12
ATOM     12  S   UNL     1       5.649   5.022  16.758  0.00  0.00    +0.000 S 
ATOM     13  O   UNL     1       6.530   3.896  16.585  0.00  0.00    +0.000 OA
ATOM     14  O   UNL     1       4.985   5.622  15.614  0.00  0.00    +0.000 OA
BRANCH  12  15
ATOM     15  N   UNL     1       6.500   6.267  17.590  0.00  0.00    +0.000 NA
ATOM     16  C   UNL     1       7.659   5.820  18.410  0.00  0.00    +0.000 C 
ATOM     17  C   UNL     1       8.315   6.956  19.184  0.00  0.00    +0.000 C 
ATOM     18  C   UNL     1       8.606   8.153  18.295  0.00  0.00    +0.000 C 
ATOM     19  C   UNL     1       7.310   8.643  17.675  0.00  0.00    +0.000 C 
ATOM     20  C   UNL     1       6.630   7.552  16.852  0.00  0.00    +0.000 C 
ENDBRANCH  12  15
ENDBRANCH   7  12
ENDBRANCH   3   5
BRANCH   2  21
ATOM     21  C   UNL     1       1.471   8.554  21.054  0.00  0.00    +0.000 C 
BRANCH  21  22
ATOM     22  N   UNL     1       0.035   8.889  20.932  0.00  0.00    +0.000 NA
ATOM     23  C   UNL     1      -0.648   8.827  22.253  0.00  0.00    +0.000 C 
ATOM     24  C   UNL     1      -0.345   9.962  23.258  0.00  0.00    +0.000 C 
ATOM     25  N   UNL     1      -0.452  11.285  22.628  0.00  0.00    +0.000 N 
ATOM     26  C   UNL     1       0.220  11.437  21.334  0.00  0.00    +0.000 C 
ATOM     27  C   UNL     1      -0.140  10.262  20.384  0.00  0.00    +0.000 C 
BRANCH  25  28
ATOM     28  C   UNL     1      -1.413  12.192  23.039  0.00  0.00    +0.000 A 
ATOM     29  C   UNL     1      -1.129  13.560  23.177  0.00  0.00    +0.000 A 
ATOM     30  C   UNL     1      -2.077  14.456  23.689  0.00  0.00    +0.000 A 
ATOM     31  C   UNL     1      -3.333  13.987  24.053  0.00  0.00    +0.000 A 
ATOM     32  C   UNL     1      -3.657  12.650  23.895  0.00  0.00    +0.000 A 
ATOM     33  C   UNL     1      -2.706  11.771  23.389  0.00  0.00    +0.000 A 
BRANCH  31  34
ATOM     34  O   UNL     1      -4.282  14.808  24.577  0.00  0.00    +0.000 OA
ATOM     35  H   UNL     1      -4.701  15.294  23.850  0.00  0.00    +0.000 HD
ENDBRANCH  31  34
ENDBRANCH  25  28
ENDBRANCH  21  22
ENDBRANCH   2  21
TORSDOF 7
ENDMDL
MODEL 5
REMARK VINA RESULT:      -8.2      2.157      2.799
REMARK  Name = 
REMARK  7 active torsions:
REMARK  status: ('A' for Active; 'I' for Inactive)
REMARK    1  A    between atoms: C_2  and  C_3
REMARK    2  A    between atoms: C_3  and  N_4
REMARK    3  A    between atoms: N_7  and  C_8
REMARK    4  A    between atoms: C_11  and  O_12
REMARK    5  A    between atoms: N_17  and  C_18
REMARK    6  A    between atoms: C_20  and  S_21
REMARK    7  A    between atoms: S_21  and  N_24
REMARK                            x       y       z     vdW  Elec       q    Type
REMARK                         _______ _______ _______ _____ _____    ______ ____
ROOT
ATOM      1  O   UNL     1       1.636   8.205  17.811  0.00  0.00    +0.000 OA
ATOM      2  C   UNL     1       1.740   8.086  19.040  0.00  0.00    +0.000 C 
ATOM      3  N   UNL     1       2.097   6.896  19.675  0.00  0.00    +0.000 N 
ATOM      4  H   UNL     1       1.990   6.854  20.689  0.00  0.00    +0.000 HD
ENDROOT
BRANCH   3   5
ATOM      5  C   UNL     1       2.617   5.750  19.022  0.00  0.00    +0.000 A 
ATOM      6  C   UNL     1       3.640   5.853  18.068  0.00  0.00    +0.000 A 
ATOM      7  C   UNL     1       4.200   4.719  17.473  0.00  0.00    +0.000 A 
ATOM      8  C   UNL     1       3.837   3.449  17.912  0.00  0.00    +0.000 A 
ATOM      9  C   UNL     1       2.780   3.314  18.819  0.00  0.00    +0.000 A 
ATOM     10  C   UNL     1       2.136   4.460  19.319  0.00  0.00    +0.000 A 
ATOM     11 CL   UNL     1       0.622   4.227  20.120  0.00  0.00    +0.000 Cl
BRANCH   7  12
ATOM     12  S   UNL     1       5.448   4.951  16.205  0.00  0.00    +0.000 S 
ATOM     13  O   UNL     1       5.888   3.651  15.767  0.00  0.00    +0.000 OA
ATOM     14  O   UNL     1       4.884   5.896  15.258  0.00  0.00    +0.000 OA
BRANCH  12  15
ATOM     15  N   UNL     1       6.751   5.730  17.019  0.00  0.00    +0.000 NA
ATOM     16  C   UNL     1       6.788   7.213  16.906  0.00  0.00    +0.000 C 
ATOM     17  C   UNL     1       8.009   7.832  17.578  0.00  0.00    +0.000 C 
ATOM     18  C   UNL     1       8.202   7.310  18.991  0.00  0.00    +0.000 C 
ATOM     19  C   UNL     1       8.355   5.800  18.951  0.00  0.00    +0.000 C 
ATOM     20  C   UNL     1       7.139   5.126  18.323  0.00  0.00    +0.000 C 
ENDBRANCH  12  15
ENDBRANCH   7  12
ENDBRANCH   3   5
BRANCH   2  21
ATOM     21  C   UNL     1       1.416   9.290  19.926  0.00  0.00    +0.000 C 
BRANCH  21  22
ATOM     22  N   UNL     1      -0.041   9.449  20.135  0.00  0.00    +0.000 NA
ATOM     23  C   UNL     1      -0.409   9.221  21.558  0.00  0.00    +0.000 C 
ATOM     24  C   UNL     1      -0.022  10.323  22.572  0.00  0.00    +0.000 C 
ATOM     25  N   UNL     1      -0.409  11.658  22.094  0.00  0.00    +0.000 N 
ATOM     26  C   UNL     1      -0.054  11.971  20.707  0.00  0.00    +0.000 C 
ATOM     27  C   UNL     1      -0.480  10.819  19.755  0.00  0.00    +0.000 C 
BRANCH  25  28
ATOM     28  C   UNL     1      -1.351  12.410  22.773  0.00  0.00    +0.000 A 
ATOM     29  C   UNL     1      -1.123  13.753  23.110  0.00  0.00    +0.000 A 
ATOM     30  C   UNL     1      -2.038  14.479  23.883  0.00  0.00    +0.000 A 
ATOM     31  C   UNL     1      -3.207  13.864  24.314  0.00  0.00    +0.000 A 
ATOM     32  C   UNL     1      -3.480  12.551  23.967  0.00  0.00    +0.000 A 
ATOM     33  C   UNL     1      -2.562  11.842  23.202  0.00  0.00    +0.000 A 
BRANCH  31  34
ATOM     34  O   UNL     1      -4.119  14.514  25.086  0.00  0.00    +0.000 OA
ATOM     35  H   UNL     1      -3.704  15.315  25.441  0.00  0.00    +0.000 HD
ENDBRANCH  31  34
ENDBRANCH  25  28
ENDBRANCH  21  22
ENDBRANCH   2  21
TORSDOF 7
ENDMDL
MODEL 6
REMARK VINA RESULT:      -8.2      1.758      2.125
REMARK  Name = 
REMARK  7 active torsions:
REMARK  status: ('A' for Active; 'I' for Inactive)
REMARK    1  A    between atoms: C_2  and  C_3
REMARK    2  A    between atoms: C_3  and  N_4
REMARK    3  A    between atoms: N_7  and  C_8
REMARK    4  A    between atoms: C_11  and  O_12
REMARK    5  A    between atoms: N_17  and  C_18
REMARK    6  A    between atoms: C_20  and  S_21
REMARK    7  A    between atoms: S_21  and  N_24
REMARK                            x       y       z     vdW  Elec       q    Type
REMARK                         _______ _______ _______ _____ _____    ______ ____
ROOT
ATOM      1  O   UNL     1       2.938   8.403  17.139  0.00  0.00    +0.000 OA
ATOM      2  C   UNL     1       2.379   7.993  18.165  0.00  0.00    +0.000 C 
ATOM      3  N   UNL     1       2.387   6.658  18.571  0.00  0.00    +0.000 N 
ATOM      4  H   UNL     1       1.759   6.394  19.331  0.00  0.00    +0.000 HD
ENDROOT
BRANCH   3   5
ATOM      5  C   UNL     1       3.213   5.646  18.022  0.00  0.00    +0.000 A 
ATOM      6  C   UNL     1       4.479   5.941  17.494  0.00  0.00    +0.000 A 
ATOM      7  C   UNL     1       5.322   4.935  17.014  0.00  0.00    +0.000 A 
ATOM      8  C   UNL     1       4.971   3.598  17.167  0.00  0.00    +0.000 A 
ATOM      9  C   UNL     1       3.692   3.274  17.636  0.00  0.00    +0.000 A 
ATOM     10  C   UNL     1       2.801   4.299  18.000  0.00  0.00    +0.000 A 
ATOM     11 CL   UNL     1       1.139   3.863  18.201  0.00  0.00    +0.000 Cl
BRANCH   7  12
ATOM     12  S   UNL     1       6.890   5.415  16.285  0.00  0.00    +0.000 S 
ATOM     13  O   UNL     1       7.053   6.834  16.469  0.00  0.00    +0.000 OA
ATOM     14  O   UNL     1       7.874   4.485  16.808  0.00  0.00    +0.000 OA
BRANCH  12  15
ATOM     15  N   UNL     1       6.699   5.095  14.602  0.00  0.00    +0.000 NA
ATOM     16  C   UNL     1       7.867   5.434  13.744  0.00  0.00    +0.000 C 
ATOM     17  C   UNL     1       7.603   5.205  12.261  0.00  0.00    +0.000 C 
ATOM     18  C   UNL     1       7.014   3.830  11.997  0.00  0.00    +0.000 C 
ATOM     19  C   UNL     1       5.717   3.682  12.772  0.00  0.00    +0.000 C 
ATOM     20  C   UNL     1       5.933   3.863  14.272  0.00  0.00    +0.000 C 
ENDBRANCH  12  15
ENDBRANCH   7  12
ENDBRANCH   3   5
BRANCH   2  21
ATOM     21  C   UNL     1       1.592   8.987  19.021  0.00  0.00    +0.000 C 
BRANCH  21  22
ATOM     22  N   UNL     1       1.078  10.121  18.222  0.00  0.00    +0.000 NA
ATOM     23  C   UNL     1      -0.399  10.246  18.350  0.00  0.00    +0.000 C 
ATOM     24  C   UNL     1      -0.949  10.786  19.691  0.00  0.00    +0.000 C 
ATOM     25  N   UNL     1      -0.239  12.001  20.116  0.00  0.00    +0.000 N 
ATOM     26  C   UNL     1       1.224  11.948  20.047  0.00  0.00    +0.000 C 
ATOM     27  C   UNL     1       1.691  11.401  18.670  0.00  0.00    +0.000 C 
BRANCH  25  28
ATOM     28  C   UNL     1      -0.902  13.211  20.216  0.00  0.00    +0.000 A 
ATOM     29  C   UNL     1      -0.333  14.407  19.750  0.00  0.00    +0.000 A 
ATOM     30  C   UNL     1      -0.965  15.643  19.944  0.00  0.00    +0.000 A 
ATOM     31  C   UNL     1      -2.190  15.687  20.597  0.00  0.00    +0.000 A 
ATOM     32  C   UNL     1      -2.795  14.522  21.036  0.00  0.00    +0.000 A 
ATOM     33  C   UNL     1      -2.156  13.303  20.840  0.00  0.00    +0.000 A 
BRANCH  31  34
ATOM     34  O   UNL     1      -2.837  16.861  20.833  0.00  0.00    +0.000 OA
ATOM     35  H   UNL     1      -2.219  17.467  21.270  0.00  0.00    +0.000 HD
ENDBRANCH  31  34
ENDBRANCH  25  28
ENDBRANCH  21  22
ENDBRANCH   2  21
TORSDOF 7
ENDMDL
MODEL 7
REMARK VINA RESULT:      -8.2      4.981     12.213
REMARK  Name = 
REMARK  7 active torsions:
REMARK  status: ('A' for Active; 'I' for Inactive)
REMARK    1  A    between atoms: C_2  and  C_3
REMARK    2  A    between atoms: C_3  and  N_4
REMARK    3  A    between atoms: N_7  and  C_8
REMARK    4  A    between atoms: C_11  and  O_12
REMARK    5  A    between atoms: N_17  and  C_18
REMARK    6  A    between atoms: C_20  and  S_21
REMARK    7  A    between atoms: S_21  and  N_24
REMARK                            x       y       z     vdW  Elec       q    Type
REMARK                         _______ _______ _______ _____ _____    ______ ____
ROOT
ATOM      1  O   UNL     1      -1.861  12.631  20.418  0.00  0.00    +0.000 OA
ATOM      2  C   UNL     1      -1.351  12.138  21.433  0.00  0.00    +0.000 C 
ATOM      3  N   UNL     1      -1.738  12.467  22.732  0.00  0.00    +0.000 N 
ATOM      4  H   UNL     1      -1.147  12.138  23.497  0.00  0.00    +0.000 HD
ENDROOT
BRANCH   3   5
ATOM      5  C   UNL     1      -2.899  13.205  23.072  0.00  0.00    +0.000 A 
ATOM      6  C   UNL     1      -4.185  12.714  22.800  0.00  0.00    +0.000 A 
ATOM      7  C   UNL     1      -5.331  13.409  23.194  0.00  0.00    +0.000 A 
ATOM      8  C   UNL     1      -5.218  14.549  23.984  0.00  0.00    +0.000 A 
ATOM      9  C   UNL     1      -3.952  15.095  24.223  0.00  0.00    +0.000 A 
ATOM     10  C   UNL     1      -2.807  14.456  23.714  0.00  0.00    +0.000 A 
ATOM     11 CL   UNL     1      -1.334  15.362  23.712  0.00  0.00    +0.000 Cl
BRANCH   7  12
ATOM     12  S   UNL     1      -6.931  12.743  22.732  0.00  0.00    +0.000 S 
ATOM     13  O   UNL     1      -7.356  11.839  23.769  0.00  0.00    +0.000 OA
ATOM     14  O   UNL     1      -7.749  13.886  22.369  0.00  0.00    +0.000 OA
BRANCH  12  15
ATOM     15  N   UNL     1      -6.624  11.835  21.300  0.00  0.00    +0.000 NA
ATOM     16  C   UNL     1      -7.566  10.716  21.031  0.00  0.00    +0.000 C 
ATOM     17  C   UNL     1      -7.190   9.904  19.797  0.00  0.00    +0.000 C 
ATOM     18  C   UNL     1      -6.920  10.792  18.595  0.00  0.00    +0.000 C 
ATOM     19  C   UNL     1      -5.797  11.759  18.929  0.00  0.00    +0.000 C 
ATOM     20  C   UNL     1      -6.140  12.627  20.136  0.00  0.00    +0.000 C 
ENDBRANCH  12  15
ENDBRANCH   7  12
ENDBRANCH   3   5
BRANCH   2  21
ATOM     21  C   UNL     1      -0.199  11.145  21.269  0.00  0.00    +0.000 C 
BRANCH  21  22
ATOM     22  N   UNL     1      -0.634   9.893  20.611  0.00  0.00    +0.000 NA
ATOM     23  C   UNL     1      -0.063   9.775  19.243  0.00  0.00    +0.000 C 
ATOM     24  C   UNL     1       1.445   9.450  19.132  0.00  0.00    +0.000 C 
ATOM     25  N   UNL     1       1.820   8.324  20.000  0.00  0.00    +0.000 N 
ATOM     26  C   UNL     1       1.319   8.381  21.377  0.00  0.00    +0.000 C 
ATOM     27  C   UNL     1      -0.200   8.707  21.398  0.00  0.00    +0.000 C 
BRANCH  25  28
ATOM     28  C   UNL     1       2.288   7.139  19.463  0.00  0.00    +0.000 A 
ATOM     29  C   UNL     1       2.165   5.918  20.145  0.00  0.00    +0.000 A 
ATOM     30  C   UNL     1       2.729   4.738  19.642  0.00  0.00    +0.000 A 
ATOM     31  C   UNL     1       3.412   4.770  18.433  0.00  0.00    +0.000 A 
ATOM     32  C   UNL     1       3.519   5.951  17.717  0.00  0.00    +0.000 A 
ATOM     33  C   UNL     1       2.957   7.114  18.230  0.00  0.00    +0.000 A 
BRANCH  31  34
ATOM     34  O   UNL     1       4.000   3.661  17.909  0.00  0.00    +0.000 OA
ATOM     35  H   UNL     1       3.939   3.710  16.943  0.00  0.00    +0.000 HD
ENDBRANCH  31  34
ENDBRANCH  25  28
ENDBRANCH  21  22
ENDBRANCH   2  21
TORSDOF 7
ENDMDL
MODEL 8
REMARK VINA RESULT:      -8.0      5.030     12.225
REMARK  Name = 
REMARK  7 active torsions:
REMARK  status: ('A' for Active; 'I' for Inactive)
REMARK    1  A    between atoms: C_2  and  C_3
REMARK    2  A    between atoms: C_3  and  N_4
REMARK    3  A    between atoms: N_7  and  C_8
REMARK    4  A    between atoms: C_11  and  O_12
REMARK    5  A    between atoms: N_17  and  C_18
REMARK    6  A    between atoms: C_20  and  S_21
REMARK    7  A    between atoms: S_21  and  N_24
REMARK                            x       y       z     vdW  Elec       q    Type
REMARK                         _______ _______ _______ _____ _____    ______ ____
ROOT
ATOM      1  O   UNL     1      -0.822  13.071  20.298  0.00  0.00    +0.000 OA
ATOM      2  C   UNL     1      -0.422  12.320  21.198  0.00  0.00    +0.000 C 
ATOM      3  N   UNL     1      -0.784  12.456  22.538  0.00  0.00    +0.000 N 
ATOM      4  H   UNL     1      -0.271  11.898  23.223  0.00  0.00    +0.000 HD
ENDROOT
BRANCH   3   5
ATOM      5  C   UNL     1      -1.822  13.292  23.020  0.00  0.00    +0.000 A 
ATOM      6  C   UNL     1      -3.148  12.840  23.102  0.00  0.00    +0.000 A 
ATOM      7  C   UNL     1      -4.160  13.640  23.639  0.00  0.00    +0.000 A 
ATOM      8  C   UNL     1      -3.846  14.863  24.223  0.00  0.00    +0.000 A 
ATOM      9  C   UNL     1      -2.546  15.366  24.105  0.00  0.00    +0.000 A 
ATOM     10  C   UNL     1      -1.559  14.607  23.451  0.00  0.00    +0.000 A 
ATOM     11 CL   UNL     1      -0.101  15.425  23.007  0.00  0.00    +0.000 Cl
BRANCH   7  12
ATOM     12  S   UNL     1      -5.839  13.008  23.629  0.00  0.00    +0.000 S 
ATOM     13  O   UNL     1      -5.889  11.859  24.495  0.00  0.00    +0.000 OA
ATOM     14  O   UNL     1      -6.697  14.153  23.872  0.00  0.00    +0.000 OA
BRANCH  12  15
ATOM     15  N   UNL     1      -6.095  12.488  22.006  0.00  0.00    +0.000 NA
ATOM     16  C   UNL     1      -7.359  11.742  21.759  0.00  0.00    +0.000 C 
ATOM     17  C   UNL     1      -7.485  11.240  20.326  0.00  0.00    +0.000 C 
ATOM     18  C   UNL     1      -7.202  12.338  19.315  0.00  0.00    +0.000 C 
ATOM     19  C   UNL     1      -5.802  12.881  19.542  0.00  0.00    +0.000 C 
ATOM     20  C   UNL     1      -5.634  13.435  20.955  0.00  0.00    +0.000 C 
ENDBRANCH  12  15
ENDBRANCH   7  12
ENDBRANCH   3   5
BRANCH   2  21
ATOM     21  C   UNL     1       0.563  11.205  20.841  0.00  0.00    +0.000 C 
BRANCH  21  22
ATOM     22  N   UNL     1      -0.127   9.996  20.340  0.00  0.00    +0.000 NA
ATOM     23  C   UNL     1       0.404   9.583  19.013  0.00  0.00    +0.000 C 
ATOM     24  C   UNL     1       1.810   8.939  18.984  0.00  0.00    +0.000 C 
ATOM     25  N   UNL     1       1.942   7.885  19.999  0.00  0.00    +0.000 N 
ATOM     26  C   UNL     1       1.468   8.225  21.344  0.00  0.00    +0.000 C 
ATOM     27  C   UNL     1       0.051   8.860  21.284  0.00  0.00    +0.000 C 
BRANCH  25  28
ATOM     28  C   UNL     1       2.151   6.567  19.632  0.00  0.00    +0.000 A 
ATOM     29  C   UNL     1       1.829   5.501  20.486  0.00  0.00    +0.000 A 
ATOM     30  C   UNL     1       2.134   4.176  20.150  0.00  0.00    +0.000 A 
ATOM     31  C   UNL     1       2.754   3.905  18.936  0.00  0.00    +0.000 A 
ATOM     32  C   UNL     1       3.051   4.931  18.055  0.00  0.00    +0.000 A 
ATOM     33  C   UNL     1       2.746   6.241  18.403  0.00  0.00    +0.000 A 
BRANCH  31  34
ATOM     34  O   UNL     1       3.094   2.640  18.569  0.00  0.00    +0.000 OA
ATOM     35  H   UNL     1       2.305   2.203  18.213  0.00  0.00    +0.000 HD
ENDBRANCH  31  34
ENDBRANCH  25  28
ENDBRANCH  21  22
ENDBRANCH   2  21
TORSDOF 7
ENDMDL
MODEL 9
REMARK VINA RESULT:      -8.0      0.764      1.448
REMARK  Name = 
REMARK  7 active torsions:
REMARK  status: ('A' for Active; 'I' for Inactive)
REMARK    1  A    between atoms: C_2  and  C_3
REMARK    2  A    between atoms: C_3  and  N_4
REMARK    3  A    between atoms: N_7  and  C_8
REMARK    4  A    between atoms: C_11  and  O_12
REMARK    5  A    between atoms: N_17  and  C_18
REMARK    6  A    between atoms: C_20  and  S_21
REMARK    7  A    between atoms: S_21  and  N_24
REMARK                            x       y       z     vdW  Elec       q    Type
REMARK                         _______ _______ _______ _____ _____    ______ ____
ROOT
ATOM      1  O   UNL     1       1.876   8.039  18.505  0.00  0.00    +0.000 OA
ATOM      2  C   UNL     1       2.080   7.651  19.663  0.00  0.00    +0.000 C 
ATOM      3  N   UNL     1       2.689   6.435  19.977  0.00  0.00    +0.000 N 
ATOM      4  H   UNL     1       2.658   6.131  20.951  0.00  0.00    +0.000 HD
ENDROOT
BRANCH   3   5
ATOM      5  C   UNL     1       3.364   5.601  19.051  0.00  0.00    +0.000 A 
ATOM      6  C   UNL     1       4.265   6.127  18.113  0.00  0.00    +0.000 A 
ATOM      7  C   UNL     1       4.981   5.299  17.244  0.00  0.00    +0.000 A 
ATOM      8  C   UNL     1       4.909   3.917  17.381  0.00  0.00    +0.000 A 
ATOM      9  C   UNL     1       3.978   3.363  18.266  0.00  0.00    +0.000 A 
ATOM     10  C   UNL     1       3.169   4.206  19.049  0.00  0.00    +0.000 A 
ATOM     11 CL   UNL     1       1.801   3.487  19.825  0.00  0.00    +0.000 Cl
BRANCH   7  12
ATOM     12  S   UNL     1       6.050   6.067  16.025  0.00  0.00    +0.000 S 
ATOM     13  O   UNL     1       5.369   7.222  15.498  0.00  0.00    +0.000 OA
ATOM     14  O   UNL     1       7.348   6.201  16.660  0.00  0.00    +0.000 OA
BRANCH  12  15
ATOM     15  N   UNL     1       6.190   4.891  14.773  0.00  0.00    +0.000 NA
ATOM     16  C   UNL     1       4.909   4.438  14.167  0.00  0.00    +0.000 C 
ATOM     17  C   UNL     1       5.098   3.340  13.127  0.00  0.00    +0.000 C 
ATOM     18  C   UNL     1       6.173   3.697  12.116  0.00  0.00    +0.000 C 
ATOM     19  C   UNL     1       7.485   3.938  12.843  0.00  0.00    +0.000 C 
ATOM     20  C   UNL     1       7.361   5.059  13.871  0.00  0.00    +0.000 C 
ENDBRANCH  12  15
ENDBRANCH   7  12
ENDBRANCH   3   5
BRANCH   2  21
ATOM     21  C   UNL     1       1.602   8.522  20.826  0.00  0.00    +0.000 C 
BRANCH  21  22
ATOM     22  N   UNL     1       0.166   8.862  20.711  0.00  0.00    +0.000 NA
ATOM     23  C   UNL     1      -0.524   8.743  22.023  0.00  0.00    +0.000 C 
ATOM     24  C   UNL     1      -0.227   9.835  23.077  0.00  0.00    +0.000 C 
ATOM     25  N   UNL     1      -0.332  11.184  22.503  0.00  0.00    +0.000 N 
ATOM     26  C   UNL     1       0.348  11.390  21.220  0.00  0.00    +0.000 C 
ATOM     27  C   UNL     1      -0.007  10.256  20.220  0.00  0.00    +0.000 C 
BRANCH  25  28
ATOM     28  C   UNL     1      -1.296  12.072  22.946  0.00  0.00    +0.000 A 
ATOM     29  C   UNL     1      -1.028  13.442  23.093  0.00  0.00    +0.000 A 
ATOM     30  C   UNL     1      -1.976  14.319  23.637  0.00  0.00    +0.000 A 
ATOM     31  C   UNL     1      -3.217  13.828  24.025  0.00  0.00    +0.000 A 
ATOM     32  C   UNL     1      -3.525  12.488  23.859  0.00  0.00    +0.000 A 
ATOM     33  C   UNL     1      -2.574  11.629  23.321  0.00  0.00    +0.000 A 
BRANCH  31  34
ATOM     34  O   UNL     1      -4.166  14.629  24.580  0.00  0.00    +0.000 OA
ATOM     35  H   UNL     1      -4.052  14.615  25.543  0.00  0.00    +0.000 HD
ENDBRANCH  31  34
ENDBRANCH  25  28
ENDBRANCH  21  22
ENDBRANCH   2  21
TORSDOF 7
ENDMDL
