MODEL 1
REMARK VINA RESULT:      -7.8      0.000      0.000
REMARK  Name = 
REMARK  12 active torsions:
REMARK  status: ('A' for Active; 'I' for Inactive)
REMARK    1  A    between atoms: C_1  and  O_2
REMARK    2  A    between atoms: O_2  and  C_3
REMARK    3  A    between atoms: C_3  and  C_5
REMARK    4  A    between atoms: C_5  and  C_6
REMARK    5  A    between atoms: C_9  and  N_10
REMARK    6  A    between atoms: C_11  and  C_13
REMARK    7  A    between atoms: C_14  and  C_15
REMARK    8  A    between atoms: C_18  and  O_19
REMARK    9  A    between atoms: O_19  and  C_20
REMARK   10  A    between atoms: C_20  and  C_21
REMARK   11  A    between atoms: C_23  and  O_24
REMARK   12  A    between atoms: O_24  and  C_25
REMARK                            x       y       z     vdW  Elec       q    Type
REMARK                         _______ _______ _______ _____ _____    ______ ____
ROOT
ATOM      1  N   UNL     1       1.084   9.802  19.768  0.00  0.00    +0.000 N 
ATOM      2  C   UNL     1       0.769   9.538  18.442  0.00  0.00    +0.000 C 
ATOM      3  O   UNL     1      -0.227   9.906  17.837  0.00  0.00    +0.000 OA
ATOM      4  H   UNL     1       1.970   9.481  20.127  0.00  0.00    +0.000 HD
ENDROOT
BRANCH   1   8
ATOM      5  C   UNL     1      -1.304  11.939  22.554  0.00  0.00    +0.000 A 
ATOM      6  C   UNL     1      -0.883  12.560  21.380  0.00  0.00    +0.000 A 
ATOM      7  C   UNL     1      -0.106  11.861  20.452  0.00  0.00    +0.000 A 
ATOM      8  C   UNL     1       0.266  10.535  20.668  0.00  0.00    +0.000 A 
ATOM      9  C   UNL     1      -0.194   9.898  21.825  0.00  0.00    +0.000 A 
ATOM     10  C   UNL     1      -0.975  10.594  22.763  0.00  0.00    +0.000 A 
BRANCH   5  11
ATOM     11  C   UNL     1      -2.113  12.723  23.555  0.00  0.00    +0.000 C 
BRANCH  11  12
ATOM     12  C   UNL     1      -3.565  12.311  23.631  0.00  0.00    +0.000 C 
ATOM     13  O   UNL     1      -4.185  12.001  24.639  0.00  0.00    +0.000 OA
BRANCH  12  15
ATOM     14  C   UNL     1      -4.651  13.616  22.018  0.00  0.00    +0.000 C 
ATOM     15  O   UNL     1      -4.095  12.349  22.375  0.00  0.00    +0.000 OA
ENDBRANCH  12  15
ENDBRANCH  11  12
ENDBRANCH   5  11
ENDBRANCH   1   8
BRANCH   2  16
ATOM     16  C   UNL     1       1.779   8.690  17.753  0.00  0.00    +0.000 C 
ATOM     17  C   UNL     1       2.259   7.635  18.432  0.00  0.00    +0.000 C 
BRANCH  17  18
ATOM     18  C   UNL     1       3.312   6.732  17.954  0.00  0.00    +0.000 A 
ATOM     19  C   UNL     1       4.466   7.262  17.371  0.00  0.00    +0.000 A 
ATOM     20  C   UNL     1       5.444   6.412  16.848  0.00  0.00    +0.000 A 
ATOM     21  C   UNL     1       5.259   5.024  16.899  0.00  0.00    +0.000 A 
ATOM     22  C   UNL     1       4.088   4.480  17.425  0.00  0.00    +0.000 A 
ATOM     23  C   UNL     1       3.120   5.344  17.952  0.00  0.00    +0.000 A 
BRANCH  22  24
ATOM     24  O   UNL     1       3.886   3.132  17.315  0.00  0.00    +0.000 OA
ATOM     25  C   UNL     1       2.553   2.696  17.580  0.00  0.00    +0.000 C 
ENDBRANCH  22  24
BRANCH  21  26
ATOM     26  O   UNL     1       6.289   4.269  16.292  0.00  0.00    +0.000 OA
BRANCH  26  27
ATOM     27  C   UNL     1       6.793   4.579  15.028  0.00  0.00    +0.000 C 
ATOM     28  C   UNL     1       5.854   4.025  13.992  0.00  0.00    +0.000 C 
ATOM     29  O   UNL     1       7.759   5.278  14.759  0.00  0.00    +0.000 OA
ENDBRANCH  26  27
ENDBRANCH  21  26
ENDBRANCH  17  18
ENDBRANCH   2  16
TORSDOF 9
ENDMDL
MODEL 2
REMARK VINA RESULT:      -7.7      6.843     10.394
REMARK  Name = 
REMARK  12 active torsions:
REMARK  status: ('A' for Active; 'I' for Inactive)
REMARK    1  A    between atoms: C_1  and  O_2
REMARK    2  A    between atoms: O_2  and  C_3
REMARK    3  A    between atoms: C_3  and  C_5
REMARK    4  A    between atoms: C_5  and  C_6
REMARK    5  A    between atoms: C_9  and  N_10
REMARK    6  A    between atoms: C_11  and  C_13
REMARK    7  A    between atoms: C_14  and  C_15
REMARK    8  A    between atoms: C_18  and  O_19
REMARK    9  A    between atoms: O_19  and  C_20
REMARK   10  A    between atoms: C_20  and  C_21
REMARK   11  A    between atoms: C_23  and  O_24
REMARK   12  A    between atoms: O_24  and  C_25
REMARK                            x       y       z     vdW  Elec       q    Type
REMARK                         _______ _______ _______ _____ _____    ______ ____
ROOT
ATOM      1  N   UNL     1       6.443   7.277  17.153  0.00  0.00    +0.000 N 
ATOM      2  C   UNL     1       7.619   7.555  17.837  0.00  0.00    +0.000 C 
ATOM      3  O   UNL     1       8.173   6.846  18.663  0.00  0.00    +0.000 OA
ATOM      4  H   UNL     1       6.124   7.930  16.454  0.00  0.00    +0.000 HD
ENDROOT
BRANCH   1   8
ATOM      5  C   UNL     1       4.171   3.719  17.611  0.00  0.00    +0.000 A 
ATOM      6  C   UNL     1       4.344   4.577  18.694  0.00  0.00    +0.000 A 
ATOM      7  C   UNL     1       5.080   5.756  18.550  0.00  0.00    +0.000 A 
ATOM      8  C   UNL     1       5.657   6.108  17.331  0.00  0.00    +0.000 A 
ATOM      9  C   UNL     1       5.446   5.268  16.232  0.00  0.00    +0.000 A 
ATOM     10  C   UNL     1       4.707   4.082  16.369  0.00  0.00    +0.000 A 
BRANCH   5  11
ATOM     11  C   UNL     1       3.401   2.437  17.799  0.00  0.00    +0.000 C 
BRANCH  11  12
ATOM     12  C   UNL     1       1.960   2.639  18.206  0.00  0.00    +0.000 C 
ATOM     13  O   UNL     1       1.145   3.376  17.669  0.00  0.00    +0.000 OA
BRANCH  12  15
ATOM     14  C   UNL     1       1.754   2.531  20.536  0.00  0.00    +0.000 C 
ATOM     15  O   UNL     1       1.696   1.846  19.284  0.00  0.00    +0.000 OA
ENDBRANCH  12  15
ENDBRANCH  11  12
ENDBRANCH   5  11
ENDBRANCH   1   8
BRANCH   2  16
ATOM     16  C   UNL     1       8.197   8.884  17.499  0.00  0.00    +0.000 C 
ATOM     17  C   UNL     1       8.718   9.600  18.510  0.00  0.00    +0.000 C 
BRANCH  17  18
ATOM     18  C   UNL     1       9.260  10.958  18.390  0.00  0.00    +0.000 A 
ATOM     19  C   UNL     1      10.534  11.242  18.889  0.00  0.00    +0.000 A 
ATOM     20  C   UNL     1      11.032  12.546  18.845  0.00  0.00    +0.000 A 
ATOM     21  C   UNL     1      10.246  13.574  18.310  0.00  0.00    +0.000 A 
ATOM     22  C   UNL     1       8.950  13.319  17.861  0.00  0.00    +0.000 A 
ATOM     23  C   UNL     1       8.467  12.006  17.903  0.00  0.00    +0.000 A 
BRANCH  22  24
ATOM     24  O   UNL     1       8.167  14.378  17.489  0.00  0.00    +0.000 OA
ATOM     25  C   UNL     1       7.006  14.582  18.293  0.00  0.00    +0.000 C 
ENDBRANCH  22  24
BRANCH  21  26
ATOM     26  O   UNL     1      10.833  14.859  18.367  0.00  0.00    +0.000 OA
BRANCH  26  27
ATOM     27  C   UNL     1      10.601  15.737  19.427  0.00  0.00    +0.000 C 
ATOM     28  C   UNL     1      11.793  15.703  20.343  0.00  0.00    +0.000 C 
ATOM     29  O   UNL     1       9.663  16.508  19.567  0.00  0.00    +0.000 OA
ENDBRANCH  26  27
ENDBRANCH  21  26
ENDBRANCH  17  18
ENDBRANCH   2  16
TORSDOF 9
ENDMDL
MODEL 3
REMARK VINA RESULT:      -7.7      6.652     10.147
REMARK  Name = 
REMARK  12 active torsions:
REMARK  status: ('A' for Active; 'I' for Inactive)
REMARK    1  A    between atoms: C_1  and  O_2
REMARK    2  A    between atoms: O_2  and  C_3
REMARK    3  A    between atoms: C_3  and  C_5
REMARK    4  A    between atoms: C_5  and  C_6
REMARK    5  A    between atoms: C_9  and  N_10
REMARK    6  A    between atoms: C_11  and  C_13
REMARK    7  A    between atoms: C_14  and  C_15
REMARK    8  A    between atoms: C_18  and  O_19
REMARK    9  A    between atoms: O_19  and  C_20
REMARK   10  A    between atoms: C_20  and  C_21
REMARK   11  A    between atoms: C_23  and  O_24
REMARK   12  A    between atoms: O_24  and  C_25
REMARK                            x       y       z     vdW  Elec       q    Type
REMARK                         _______ _______ _______ _____ _____    ______ ____
ROOT
ATOM      1  N   UNL     1       6.437   6.707  18.484  0.00  0.00    +0.000 N 
ATOM      2  C   UNL     1       7.448   7.090  17.613  0.00  0.00    +0.000 C 
ATOM      3  O   UNL     1       7.599   6.724  16.457  0.00  0.00    +0.000 OA
ATOM      4  H   UNL     1       6.401   7.130  19.399  0.00  0.00    +0.000 HD
ENDROOT
BRANCH   1   8
ATOM      5  C   UNL     1       3.405   3.855  17.642  0.00  0.00    +0.000 A 
ATOM      6  C   UNL     1       3.089   5.211  17.694  0.00  0.00    +0.000 A 
ATOM      7  C   UNL     1       4.082   6.158  17.959  0.00  0.00    +0.000 A 
ATOM      8  C   UNL     1       5.406   5.780  18.175  0.00  0.00    +0.000 A 
ATOM      9  C   UNL     1       5.732   4.423  18.079  0.00  0.00    +0.000 A 
ATOM     10  C   UNL     1       4.740   3.465  17.813  0.00  0.00    +0.000 A 
BRANCH   5  11
ATOM     11  C   UNL     1       2.311   2.850  17.387  0.00  0.00    +0.000 C 
BRANCH  11  12
ATOM     12  C   UNL     1       1.417   2.598  18.579  0.00  0.00    +0.000 C 
ATOM     13  O   UNL     1       0.229   2.312  18.554  0.00  0.00    +0.000 OA
BRANCH  12  15
ATOM     14  C   UNL     1       1.393   2.658  20.920  0.00  0.00    +0.000 C 
ATOM     15  O   UNL     1       2.159   2.732  19.717  0.00  0.00    +0.000 OA
ENDBRANCH  12  15
ENDBRANCH  11  12
ENDBRANCH   5  11
ENDBRANCH   1   8
BRANCH   2  16
ATOM     16  C   UNL     1       8.431   8.024  18.225  0.00  0.00    +0.000 C 
ATOM     17  C   UNL     1       8.177   9.339  18.116  0.00  0.00    +0.000 C 
BRANCH  17  18
ATOM     18  C   UNL     1       9.064  10.411  18.583  0.00  0.00    +0.000 A 
ATOM     19  C   UNL     1       9.371  10.512  19.943  0.00  0.00    +0.000 A 
ATOM     20  C   UNL     1      10.155  11.569  20.409  0.00  0.00    +0.000 A 
ATOM     21  C   UNL     1      10.625  12.537  19.512  0.00  0.00    +0.000 A 
ATOM     22  C   UNL     1      10.279  12.484  18.162  0.00  0.00    +0.000 A 
ATOM     23  C   UNL     1       9.500  11.414  17.707  0.00  0.00    +0.000 A 
BRANCH  22  24
ATOM     24  O   UNL     1      10.633  13.530  17.354  0.00  0.00    +0.000 OA
ATOM     25  C   UNL     1      11.860  13.360  16.648  0.00  0.00    +0.000 C 
ENDBRANCH  22  24
BRANCH  21  26
ATOM     26  O   UNL     1      11.362  13.586  20.107  0.00  0.00    +0.000 OA
BRANCH  26  27
ATOM     27  C   UNL     1      10.795  14.831  20.383  0.00  0.00    +0.000 C 
ATOM     28  C   UNL     1      10.217  14.793  21.771  0.00  0.00    +0.000 C 
ATOM     29  O   UNL     1      10.841  15.843  19.698  0.00  0.00    +0.000 OA
ENDBRANCH  26  27
ENDBRANCH  21  26
ENDBRANCH  17  18
ENDBRANCH   2  16
TORSDOF 9
ENDMDL
MODEL 4
REMARK VINA RESULT:      -7.6      1.874     11.171
REMARK  Name = 
REMARK  12 active torsions:
REMARK  status: ('A' for Active; 'I' for Inactive)
REMARK    1  A    between atoms: C_1  and  O_2
REMARK    2  A    between atoms: O_2  and  C_3
REMARK    3  A    between atoms: C_3  and  C_5
REMARK    4  A    between atoms: C_5  and  C_6
REMARK    5  A    between atoms: C_9  and  N_10
REMARK    6  A    between atoms: C_11  and  C_13
REMARK    7  A    between atoms: C_14  and  C_15
REMARK    8  A    between atoms: C_18  and  O_19
REMARK    9  A    between atoms: O_19  and  C_20
REMARK   10  A    between atoms: C_20  and  C_21
REMARK   11  A    between atoms: C_23  and  O_24
REMARK   12  A    between atoms: O_24  and  C_25
REMARK                            x       y       z     vdW  Elec       q    Type
REMARK                         _______ _______ _______ _____ _____    ______ ____
ROOT
ATOM      1  N   UNL     1       2.547   6.790  18.999  0.00  0.00    +0.000 N 
ATOM      2  C   UNL     1       2.090   6.362  20.238  0.00  0.00    +0.000 C 
ATOM      3  O   UNL     1       2.378   5.320  20.807  0.00  0.00    +0.000 OA
ATOM      4  H   UNL     1       2.269   7.702  18.670  0.00  0.00    +0.000 HD
ENDROOT
BRANCH   1   8
ATOM      5  C   UNL     1       5.259   4.645  16.535  0.00  0.00    +0.000 A 
ATOM      6  C   UNL     1       4.115   4.016  17.020  0.00  0.00    +0.000 A 
ATOM      7  C   UNL     1       3.211   4.717  17.823  0.00  0.00    +0.000 A 
ATOM      8  C   UNL     1       3.421   6.054  18.156  0.00  0.00    +0.000 A 
ATOM      9  C   UNL     1       4.547   6.698  17.632  0.00  0.00    +0.000 A 
ATOM     10  C   UNL     1       5.460   6.000  16.825  0.00  0.00    +0.000 A 
BRANCH   5  11
ATOM     11  C   UNL     1       6.236   3.858  15.699  0.00  0.00    +0.000 C 
BRANCH  11  12
ATOM     12  C   UNL     1       6.606   4.525  14.394  0.00  0.00    +0.000 C 
ATOM     13  O   UNL     1       7.514   5.324  14.213  0.00  0.00    +0.000 OA
BRANCH  12  15
ATOM     14  C   UNL     1       6.419   3.528  12.283  0.00  0.00    +0.000 C 
ATOM     15  O   UNL     1       5.757   4.081  13.422  0.00  0.00    +0.000 OA
ENDBRANCH  12  15
ENDBRANCH  11  12
ENDBRANCH   5  11
ENDBRANCH   1   8
BRANCH   2  16
ATOM     16  C   UNL     1       1.130   7.306  20.871  0.00  0.00    +0.000 C 
ATOM     17  C   UNL     1       1.457   8.610  20.863  0.00  0.00    +0.000 C 
BRANCH  17  18
ATOM     18  C   UNL     1       0.682   9.678  21.504  0.00  0.00    +0.000 A 
ATOM     19  C   UNL     1      -0.119   9.384  22.610  0.00  0.00    +0.000 A 
ATOM     20  C   UNL     1      -0.916  10.378  23.185  0.00  0.00    +0.000 A 
ATOM     21  C   UNL     1      -0.920  11.669  22.641  0.00  0.00    +0.000 A 
ATOM     22  C   UNL     1      -0.171  11.964  21.502  0.00  0.00    +0.000 A 
ATOM     23  C   UNL     1       0.629  10.961  20.942  0.00  0.00    +0.000 A 
BRANCH  22  24
ATOM     24  O   UNL     1      -0.325  13.192  20.919  0.00  0.00    +0.000 OA
ATOM     25  C   UNL     1       0.194  13.301  19.594  0.00  0.00    +0.000 C 
ENDBRANCH  22  24
BRANCH  21  26
ATOM     26  O   UNL     1      -1.804  12.573  23.273  0.00  0.00    +0.000 OA
BRANCH  26  27
ATOM     27  C   UNL     1      -3.186  12.382  23.277  0.00  0.00    +0.000 C 
ATOM     28  C   UNL     1      -3.724  12.762  21.925  0.00  0.00    +0.000 C 
ATOM     29  O   UNL     1      -3.870  11.881  24.159  0.00  0.00    +0.000 OA
ENDBRANCH  26  27
ENDBRANCH  21  26
ENDBRANCH  17  18
ENDBRANCH   2  16
TORSDOF 9
ENDMDL
MODEL 5
REMARK VINA RESULT:      -7.5      0.996      1.494
REMARK  Name = 
REMARK  12 active torsions:
REMARK  status: ('A' for Active; 'I' for Inactive)
REMARK    1  A    between atoms: C_1  and  O_2
REMARK    2  A    between atoms: O_2  and  C_3
REMARK    3  A    between atoms: C_3  and  C_5
REMARK    4  A    between atoms: C_5  and  C_6
REMARK    5  A    between atoms: C_9  and  N_10
REMARK    6  A    between atoms: C_11  and  C_13
REMARK    7  A    between atoms: C_14  and  C_15
REMARK    8  A    between atoms: C_18  and  O_19
REMARK    9  A    between atoms: O_19  and  C_20
REMARK   10  A    between atoms: C_20  and  C_21
REMARK   11  A    between atoms: C_23  and  O_24
REMARK   12  A    between atoms: O_24  and  C_25
REMARK                            x       y       z     vdW  Elec       q    Type
REMARK                         _______ _______ _______ _____ _____    ______ ____
ROOT
ATOM      1  N   UNL     1       1.017  10.239  20.325  0.00  0.00    +0.000 N 
ATOM      2  C   UNL     1       0.683   9.856  19.033  0.00  0.00    +0.000 C 
ATOM      3  O   UNL     1      -0.363  10.090  18.445  0.00  0.00    +0.000 OA
ATOM      4  H   UNL     1       1.941  10.024  20.668  0.00  0.00    +0.000 HD
ENDROOT
BRANCH   1   8
ATOM      5  C   UNL     1      -1.572  12.449  22.863  0.00  0.00    +0.000 A 
ATOM      6  C   UNL     1      -1.372  11.089  23.089  0.00  0.00    +0.000 A 
ATOM      7  C   UNL     1      -0.513  10.355  22.266  0.00  0.00    +0.000 A 
ATOM      8  C   UNL     1       0.165  10.956  21.206  0.00  0.00    +0.000 A 
ATOM      9  C   UNL     1      -0.001  12.330  21.007  0.00  0.00    +0.000 A 
ATOM     10  C   UNL     1      -0.863  13.074  21.829  0.00  0.00    +0.000 A 
BRANCH   5  11
ATOM     11  C   UNL     1      -2.529  13.211  23.743  0.00  0.00    +0.000 C 
BRANCH  11  12
ATOM     12  C   UNL     1      -3.855  12.518  23.956  0.00  0.00    +0.000 C 
ATOM     13  O   UNL     1      -4.317  12.136  25.022  0.00  0.00    +0.000 OA
BRANCH  12  15
ATOM     14  C   UNL     1      -5.051  13.603  22.260  0.00  0.00    +0.000 C 
ATOM     15  O   UNL     1      -4.478  12.389  22.749  0.00  0.00    +0.000 OA
ENDBRANCH  12  15
ENDBRANCH  11  12
ENDBRANCH   5  11
ENDBRANCH   1   8
BRANCH   2  16
ATOM     16  C   UNL     1       1.742   9.056  18.361  0.00  0.00    +0.000 C 
ATOM     17  C   UNL     1       1.869   7.771  18.733  0.00  0.00    +0.000 C 
BRANCH  17  18
ATOM     18  C   UNL     1       2.901   6.849  18.245  0.00  0.00    +0.000 A 
ATOM     19  C   UNL     1       3.822   7.284  17.289  0.00  0.00    +0.000 A 
ATOM     20  C   UNL     1       4.764   6.396  16.765  0.00  0.00    +0.000 A 
ATOM     21  C   UNL     1       4.775   5.062  17.191  0.00  0.00    +0.000 A 
ATOM     22  C   UNL     1       3.826   4.596  18.101  0.00  0.00    +0.000 A 
ATOM     23  C   UNL     1       2.894   5.500  18.624  0.00  0.00    +0.000 A 
BRANCH  22  24
ATOM     24  O   UNL     1       3.781   3.256  18.371  0.00  0.00    +0.000 OA
ATOM     25  C   UNL     1       4.385   2.867  19.604  0.00  0.00    +0.000 C 
ENDBRANCH  22  24
BRANCH  21  26
ATOM     26  O   UNL     1       5.737   4.245  16.553  0.00  0.00    +0.000 OA
BRANCH  26  27
ATOM     27  C   UNL     1       7.087   4.595  16.490  0.00  0.00    +0.000 C 
ATOM     28  C   UNL     1       7.631   4.645  17.891  0.00  0.00    +0.000 C 
ATOM     29  O   UNL     1       7.780   4.729  15.492  0.00  0.00    +0.000 OA
ENDBRANCH  26  27
ENDBRANCH  21  26
ENDBRANCH  17  18
ENDBRANCH   2  16
TORSDOF 9
ENDMDL
MODEL 6
REMARK VINA RESULT:      -7.5      6.907     10.385
REMARK  Name = 
REMARK  12 active torsions:
REMARK  status: ('A' for Active; 'I' for Inactive)
REMARK    1  A    between atoms: C_1  and  O_2
REMARK    2  A    between atoms: O_2  and  C_3
REMARK    3  A    between atoms: C_3  and  C_5
REMARK    4  A    between atoms: C_5  and  C_6
REMARK    5  A    between atoms: C_9  and  N_10
REMARK    6  A    between atoms: C_11  and  C_13
REMARK    7  A    between atoms: C_14  and  C_15
REMARK    8  A    between atoms: C_18  and  O_19
REMARK    9  A    between atoms: O_19  and  C_20
REMARK   10  A    between atoms: C_20  and  C_21
REMARK   11  A    between atoms: C_23  and  O_24
REMARK   12  A    between atoms: O_24  and  C_25
REMARK                            x       y       z     vdW  Elec       q    Type
REMARK                         _______ _______ _______ _____ _____    ______ ____
ROOT
ATOM      1  N   UNL     1       6.431   7.464  17.176  0.00  0.00    +0.000 N 
ATOM      2  C   UNL     1       7.635   7.688  17.830  0.00  0.00    +0.000 C 
ATOM      3  O   UNL     1       8.235   6.906  18.552  0.00  0.00    +0.000 OA
ATOM      4  H   UNL     1       6.073   8.181  16.564  0.00  0.00    +0.000 HD
ENDROOT
BRANCH   1   8
ATOM      5  C   UNL     1       4.230   3.839  17.385  0.00  0.00    +0.000 A 
ATOM      6  C   UNL     1       4.275   4.689  18.488  0.00  0.00    +0.000 A 
ATOM      7  C   UNL     1       4.987   5.889  18.425  0.00  0.00    +0.000 A 
ATOM      8  C   UNL     1       5.666   6.271  17.268  0.00  0.00    +0.000 A 
ATOM      9  C   UNL     1       5.583   5.440  16.147  0.00  0.00    +0.000 A 
ATOM     10  C   UNL     1       4.869   4.232  16.202  0.00  0.00    +0.000 A 
BRANCH   5  11
ATOM     11  C   UNL     1       3.482   2.534  17.488  0.00  0.00    +0.000 C 
BRANCH  11  12
ATOM     12  C   UNL     1       2.208   2.616  18.295  0.00  0.00    +0.000 C 
ATOM     13  O   UNL     1       1.144   3.100  17.934  0.00  0.00    +0.000 OA
BRANCH  12  15
ATOM     14  C   UNL     1       1.606   2.575  20.558  0.00  0.00    +0.000 C 
ATOM     15  O   UNL     1       2.426   2.046  19.515  0.00  0.00    +0.000 OA
ENDBRANCH  12  15
ENDBRANCH  11  12
ENDBRANCH   5  11
ENDBRANCH   1   8
BRANCH   2  16
ATOM     16  C   UNL     1       8.183   9.052  17.605  0.00  0.00    +0.000 C 
ATOM     17  C   UNL     1       8.850   9.620  18.624  0.00  0.00    +0.000 C 
BRANCH  17  18
ATOM     18  C   UNL     1       9.393  10.984  18.622  0.00  0.00    +0.000 A 
ATOM     19  C   UNL     1      10.764  11.183  18.803  0.00  0.00    +0.000 A 
ATOM     20  C   UNL     1      11.283  12.478  18.874  0.00  0.00    +0.000 A 
ATOM     21  C   UNL     1      10.423  13.579  18.775  0.00  0.00    +0.000 A 
ATOM     22  C   UNL     1       9.045  13.398  18.653  0.00  0.00    +0.000 A 
ATOM     23  C   UNL     1       8.541  12.095  18.575  0.00  0.00    +0.000 A 
BRANCH  22  24
ATOM     24  O   UNL     1       8.234  14.497  18.713  0.00  0.00    +0.000 OA
ATOM     25  C   UNL     1       7.299  14.618  17.642  0.00  0.00    +0.000 C 
ENDBRANCH  22  24
BRANCH  21  26
ATOM     26  O   UNL     1      11.055  14.837  18.914  0.00  0.00    +0.000 OA
BRANCH  26  27
ATOM     27  C   UNL     1      11.451  15.596  17.812  0.00  0.00    +0.000 C 
ATOM     28  C   UNL     1      10.707  16.902  17.841  0.00  0.00    +0.000 C 
ATOM     29  O   UNL     1      12.333  15.339  17.005  0.00  0.00    +0.000 OA
ENDBRANCH  26  27
ENDBRANCH  21  26
ENDBRANCH  17  18
ENDBRANCH   2  16
TORSDOF 9
ENDMDL
MODEL 7
REMARK VINA RESULT:      -7.5      0.570      1.045
REMARK  Name = 
REMARK  12 active torsions:
REMARK  status: ('A' for Active; 'I' for Inactive)
REMARK    1  A    between atoms: C_1  and  O_2
REMARK    2  A    between atoms: O_2  and  C_3
REMARK    3  A    between atoms: C_3  and  C_5
REMARK    4  A    between atoms: C_5  and  C_6
REMARK    5  A    between atoms: C_9  and  N_10
REMARK    6  A    between atoms: C_11  and  C_13
REMARK    7  A    between atoms: C_14  and  C_15
REMARK    8  A    between atoms: C_18  and  O_19
REMARK    9  A    between atoms: O_19  and  C_20
REMARK   10  A    between atoms: C_20  and  C_21
REMARK   11  A    between atoms: C_23  and  O_24
REMARK   12  A    between atoms: O_24  and  C_25
REMARK                            x       y       z     vdW  Elec       q    Type
REMARK                         _______ _______ _______ _____ _____    ______ ____
ROOT
ATOM      1  N   UNL     1       1.472  10.118  19.976  0.00  0.00    +0.000 N 
ATOM      2  C   UNL     1       1.103   9.694  18.707  0.00  0.00    +0.000 C 
ATOM      3  O   UNL     1       0.032   9.888  18.151  0.00  0.00    +0.000 OA
ATOM      4  H   UNL     1       2.412   9.934  20.292  0.00  0.00    +0.000 HD
ENDROOT
BRANCH   1   8
ATOM      5  C   UNL     1      -1.058  12.349  22.554  0.00  0.00    +0.000 A 
ATOM      6  C   UNL     1      -1.049  10.958  22.623  0.00  0.00    +0.000 A 
ATOM      7  C   UNL     1      -0.212  10.215  21.786  0.00  0.00    +0.000 A 
ATOM      8  C   UNL     1       0.634  10.837  20.869  0.00  0.00    +0.000 A 
ATOM      9  C   UNL     1       0.658  12.235  20.831  0.00  0.00    +0.000 A 
ATOM     10  C   UNL     1      -0.181  12.988  21.669  0.00  0.00    +0.000 A 
BRANCH   5  11
ATOM     11  C   UNL     1      -1.995  13.127  23.443  0.00  0.00    +0.000 C 
BRANCH  11  12
ATOM     12  C   UNL     1      -3.442  12.710  23.327  0.00  0.00    +0.000 C 
ATOM     13  O   UNL     1      -4.042  11.939  24.062  0.00  0.00    +0.000 OA
BRANCH  12  15
ATOM     14  C   UNL     1      -5.045  12.614  21.621  0.00  0.00    +0.000 C 
ATOM     15  O   UNL     1      -3.996  13.348  22.255  0.00  0.00    +0.000 OA
ENDBRANCH  12  15
ENDBRANCH  11  12
ENDBRANCH   5  11
ENDBRANCH   1   8
BRANCH   2  16
ATOM     16  C   UNL     1       2.158   8.903  18.018  0.00  0.00    +0.000 C 
ATOM     17  C   UNL     1       2.274   7.609  18.360  0.00  0.00    +0.000 C 
BRANCH  17  18
ATOM     18  C   UNL     1       3.300   6.691  17.852  0.00  0.00    +0.000 A 
ATOM     19  C   UNL     1       4.393   7.197  17.143  0.00  0.00    +0.000 A 
ATOM     20  C   UNL     1       5.339   6.328  16.594  0.00  0.00    +0.000 A 
ATOM     21  C   UNL     1       5.184   4.944  16.745  0.00  0.00    +0.000 A 
ATOM     22  C   UNL     1       4.069   4.420  17.399  0.00  0.00    +0.000 A 
ATOM     23  C   UNL     1       3.133   5.303  17.951  0.00  0.00    +0.000 A 
BRANCH  22  24
ATOM     24  O   UNL     1       3.882   3.065  17.389  0.00  0.00    +0.000 OA
ATOM     25  C   UNL     1       3.583   2.486  18.658  0.00  0.00    +0.000 C 
ENDBRANCH  22  24
BRANCH  21  26
ATOM     26  O   UNL     1       6.173   4.165  16.102  0.00  0.00    +0.000 OA
BRANCH  26  27
ATOM     27  C   UNL     1       6.765   4.558  14.901  0.00  0.00    +0.000 C 
ATOM     28  C   UNL     1       5.990   3.946  13.766  0.00  0.00    +0.000 C 
ATOM     29  O   UNL     1       7.679   5.354  14.742  0.00  0.00    +0.000 OA
ENDBRANCH  26  27
ENDBRANCH  21  26
ENDBRANCH  17  18
ENDBRANCH   2  16
TORSDOF 9
ENDMDL
MODEL 8
REMARK VINA RESULT:      -7.5      6.748      9.975
REMARK  Name = 
REMARK  12 active torsions:
REMARK  status: ('A' for Active; 'I' for Inactive)
REMARK    1  A    between atoms: C_1  and  O_2
REMARK    2  A    between atoms: O_2  and  C_3
REMARK    3  A    between atoms: C_3  and  C_5
REMARK    4  A    between atoms: C_5  and  C_6
REMARK    5  A    between atoms: C_9  and  N_10
REMARK    6  A    between atoms: C_11  and  C_13
REMARK    7  A    between atoms: C_14  and  C_15
REMARK    8  A    between atoms: C_18  and  O_19
REMARK    9  A    between atoms: O_19  and  C_20
REMARK   10  A    between atoms: C_20  and  C_21
REMARK   11  A    between atoms: C_23  and  O_24
REMARK   12  A    between atoms: O_24  and  C_25
REMARK                            x       y       z     vdW  Elec       q    Type
REMARK                         _______ _______ _______ _____ _____    ______ ____
ROOT
ATOM      1  N   UNL     1       6.331   6.394  18.522  0.00  0.00    +0.000 N 
ATOM      2  C   UNL     1       7.312   6.787  17.621  0.00  0.00    +0.000 C 
ATOM      3  O   UNL     1       7.492   6.350  16.495  0.00  0.00    +0.000 OA
ATOM      4  H   UNL     1       6.261   6.879  19.403  0.00  0.00    +0.000 HD
ENDROOT
BRANCH   1   8
ATOM      5  C   UNL     1       3.476   3.306  17.934  0.00  0.00    +0.000 A 
ATOM      6  C   UNL     1       3.318   4.530  17.289  0.00  0.00    +0.000 A 
ATOM      7  C   UNL     1       4.258   5.549  17.467  0.00  0.00    +0.000 A 
ATOM      8  C   UNL     1       5.373   5.373  18.285  0.00  0.00    +0.000 A 
ATOM      9  C   UNL     1       5.555   4.128  18.897  0.00  0.00    +0.000 A 
ATOM     10  C   UNL     1       4.615   3.100  18.723  0.00  0.00    +0.000 A 
BRANCH   5  11
ATOM     11  C   UNL     1       2.432   2.234  17.753  0.00  0.00    +0.000 C 
BRANCH  11  12
ATOM     12  C   UNL     1       1.300   2.303  18.752  0.00  0.00    +0.000 C 
ATOM     13  O   UNL     1       0.115   2.476  18.504  0.00  0.00    +0.000 OA
BRANCH  12  15
ATOM     14  C   UNL     1       1.390   3.113  20.948  0.00  0.00    +0.000 C 
ATOM     15  O   UNL     1       1.813   2.127  20.005  0.00  0.00    +0.000 OA
ENDBRANCH  12  15
ENDBRANCH  11  12
ENDBRANCH   5  11
ENDBRANCH   1   8
BRANCH   2  16
ATOM     16  C   UNL     1       8.221   7.834  18.160  0.00  0.00    +0.000 C 
ATOM     17  C   UNL     1       7.890   9.115  17.922  0.00  0.00    +0.000 C 
BRANCH  17  18
ATOM     18  C   UNL     1       8.698  10.280  18.302  0.00  0.00    +0.000 A 
ATOM     19  C   UNL     1       9.608  10.177  19.357  0.00  0.00    +0.000 A 
ATOM     20  C   UNL     1      10.330  11.297  19.774  0.00  0.00    +0.000 A 
ATOM     21  C   UNL     1      10.132  12.530  19.138  0.00  0.00    +0.000 A 
ATOM     22  C   UNL     1       9.186  12.663  18.122  0.00  0.00    +0.000 A 
ATOM     23  C   UNL     1       8.476  11.530  17.709  0.00  0.00    +0.000 A 
BRANCH  22  24
ATOM     24  O   UNL     1       8.920  13.914  17.637  0.00  0.00    +0.000 OA
ATOM     25  C   UNL     1       7.639  14.437  17.985  0.00  0.00    +0.000 C 
ENDBRANCH  22  24
BRANCH  21  26
ATOM     26  O   UNL     1      10.879  13.601  19.680  0.00  0.00    +0.000 OA
BRANCH  26  27
ATOM     27  C   UNL     1      10.300  14.572  20.499  0.00  0.00    +0.000 C 
ATOM     28  C   UNL     1       9.637  13.882  21.659  0.00  0.00    +0.000 C 
ATOM     29  O   UNL     1      10.392  15.787  20.399  0.00  0.00    +0.000 OA
ENDBRANCH  26  27
ENDBRANCH  21  26
ENDBRANCH  17  18
ENDBRANCH   2  16
TORSDOF 9
ENDMDL
MODEL 9
REMARK VINA RESULT:      -7.4      1.768     11.155
REMARK  Name = 
REMARK  12 active torsions:
REMARK  status: ('A' for Active; 'I' for Inactive)
REMARK    1  A    between atoms: C_1  and  O_2
REMARK    2  A    between atoms: O_2  and  C_3
REMARK    3  A    between atoms: C_3  and  C_5
REMARK    4  A    between atoms: C_5  and  C_6
REMARK    5  A    between atoms: C_9  and  N_10
REMARK    6  A    between atoms: C_11  and  C_13
REMARK    7  A    between atoms: C_14  and  C_15
REMARK    8  A    between atoms: C_18  and  O_19
REMARK    9  A    between atoms: O_19  and  C_20
REMARK   10  A    between atoms: C_20  and  C_21
REMARK   11  A    between atoms: C_23  and  O_24
REMARK   12  A    between atoms: O_24  and  C_25
REMARK                            x       y       z     vdW  Elec       q    Type
REMARK                         _______ _______ _______ _____ _____    ______ ____
ROOT
ATOM      1  N   UNL     1       2.379   7.248  19.375  0.00  0.00    +0.000 N 
ATOM      2  C   UNL     1       1.829   6.724  20.537  0.00  0.00    +0.000 C 
ATOM      3  O   UNL     1       1.948   5.583  20.957  0.00  0.00    +0.000 OA
ATOM      4  H   UNL     1       2.244   8.227  19.175  0.00  0.00    +0.000 HD
ENDROOT
BRANCH   1   8
ATOM      5  C   UNL     1       4.820   5.136  16.615  0.00  0.00    +0.000 A 
ATOM      6  C   UNL     1       3.972   4.436  17.471  0.00  0.00    +0.000 A 
ATOM      7  C   UNL     1       3.157   5.122  18.375  0.00  0.00    +0.000 A 
ATOM      8  C   UNL     1       3.164   6.515  18.446  0.00  0.00    +0.000 A 
ATOM      9  C   UNL     1       3.981   7.219  17.556  0.00  0.00    +0.000 A 
ATOM     10  C   UNL     1       4.803   6.536  16.645  0.00  0.00    +0.000 A 
BRANCH   5  11
ATOM     11  C   UNL     1       5.714   4.373  15.672  0.00  0.00    +0.000 C 
BRANCH  11  12
ATOM     12  C   UNL     1       7.185   4.670  15.843  0.00  0.00    +0.000 C 
ATOM     13  O   UNL     1       7.873   4.419  16.823  0.00  0.00    +0.000 OA
BRANCH  12  15
ATOM     14  C   UNL     1       7.046   4.771  13.508  0.00  0.00    +0.000 C 
ATOM     15  O   UNL     1       7.645   5.268  14.706  0.00  0.00    +0.000 OA
ENDBRANCH  12  15
ENDBRANCH  11  12
ENDBRANCH   5  11
ENDBRANCH   1   8
BRANCH   2  16
ATOM     16  C   UNL     1       0.995   7.702  21.288  0.00  0.00    +0.000 C 
ATOM     17  C   UNL     1       0.606   8.808  20.630  0.00  0.00    +0.000 C 
BRANCH  17  18
ATOM     18  C   UNL     1      -0.149   9.919  21.220  0.00  0.00    +0.000 A 
ATOM     19  C   UNL     1      -0.365   9.953  22.600  0.00  0.00    +0.000 A 
ATOM     20  C   UNL     1      -1.143  10.967  23.165  0.00  0.00    +0.000 A 
ATOM     21  C   UNL     1      -1.716  11.945  22.342  0.00  0.00    +0.000 A 
ATOM     22  C   UNL     1      -1.558  11.893  20.958  0.00  0.00    +0.000 A 
ATOM     23  C   UNL     1      -0.770  10.876  20.406  0.00  0.00    +0.000 A 
BRANCH  22  24
ATOM     24  O   UNL     1      -2.260  12.778  20.186  0.00  0.00    +0.000 OA
ATOM     25  C   UNL     1      -3.060  12.186  19.164  0.00  0.00    +0.000 C 
ENDBRANCH  22  24
BRANCH  21  26
ATOM     26  O   UNL     1      -2.524  12.888  23.020  0.00  0.00    +0.000 OA
BRANCH  26  27
ATOM     27  C   UNL     1      -3.902  12.721  23.160  0.00  0.00    +0.000 C 
ATOM     28  C   UNL     1      -4.214  12.551  24.622  0.00  0.00    +0.000 C 
ATOM     29  O   UNL     1      -4.759  12.810  22.293  0.00  0.00    +0.000 OA
ENDBRANCH  26  27
ENDBRANCH  21  26
ENDBRANCH  17  18
ENDBRANCH   2  16
TORSDOF 9
ENDMDL
