MODEL 1
REMARK VINA RESULT:      -8.4      0.000      0.000
REMARK  Name = 
REMARK  8 active torsions:
REMARK  status: ('A' for Active; 'I' for Inactive)
REMARK    1  A    between atoms: C_1  and  N_2
REMARK    2  A    between atoms: N_2  and  C_3
REMARK    3  A    between atoms: N_2  and  C_4
REMARK    4  A    between atoms: C_4  and  C_5
REMARK    5  A    between atoms: C_14  and  O_15
REMARK    6  A    between atoms: C_14  and  C_16
REMARK    7  A    between atoms: C_16  and  C_17
REMARK    8  A    between atoms: C_17  and  C_18
REMARK                            x       y       z     vdW  Elec       q    Type
REMARK                         _______ _______ _______ _____ _____    ______ ____
ROOT
ATOM      1  C   UNL     1       2.346   5.335  19.327  0.00  0.00    +0.000 C 
ATOM      2  C   UNL     1       1.926   4.817  17.896  0.00  0.00    +0.000 C 
ATOM      3  C   UNL     1       2.414   3.383  17.604  0.00  0.00    +0.000 C 
ATOM      4  C   UNL     1       3.957   3.264  17.681  0.00  0.00    +0.000 C 
ATOM      5  C   UNL     1       4.365   3.730  19.097  0.00  0.00    +0.000 C 
ATOM      6  C   UNL     1       3.910   5.169  19.381  0.00  0.00    +0.000 C 
ENDROOT
BRANCH   1   7
ATOM      7  C   UNL     1       1.983   6.846  19.472  0.00  0.00    +0.000 A 
ATOM      8  C   UNL     1       2.102   7.737  18.372  0.00  0.00    +0.000 A 
ATOM      9  C   UNL     1       1.731   9.077  18.476  0.00  0.00    +0.000 A 
ATOM     10  C   UNL     1       1.237   9.577  19.677  0.00  0.00    +0.000 A 
ATOM     11 BR   UNL     1       0.712  11.409  19.801  0.00  0.00    +0.000 Br
ATOM     12  C   UNL     1       1.124   8.735  20.781  0.00  0.00    +0.000 A 
ATOM     13  C   UNL     1       1.491   7.389  20.686  0.00  0.00    +0.000 A 
ENDBRANCH   1   7
BRANCH   1  15
ATOM     14  C   UNL     1       0.763   3.477  19.910  0.00  0.00    +0.000 C 
ATOM     15  N   UNL     1       1.711   4.498  20.410  0.00  0.00    +0.000 NA
ATOM     16  C   UNL     1       2.666   3.846  21.330  0.00  0.00    +0.000 C 
ENDBRANCH   1  15
BRANCH   4  17
ATOM     17  O   UNL     1       4.328   1.911  17.553  0.00  0.00    +0.000 OA
ATOM     18  H   UNL     1       5.319   1.870  17.496  0.00  0.00    +0.000 HD
ENDBRANCH   4  17
BRANCH   4  19
ATOM     19  C   UNL     1       4.648   4.094  16.544  0.00  0.00    +0.000 C 
BRANCH  19  20
ATOM     20  C   UNL     1       6.182   3.964  16.519  0.00  0.00    +0.000 C 
BRANCH  20  21
ATOM     21  C   UNL     1       6.849   5.116  17.230  0.00  0.00    +0.000 A 
ATOM     22  C   UNL     1       6.771   6.415  16.691  0.00  0.00    +0.000 A 
ATOM     23  C   UNL     1       7.383   7.488  17.343  0.00  0.00    +0.000 A 
ATOM     24  C   UNL     1       8.076   7.278  18.539  0.00  0.00    +0.000 A 
ATOM     25  C   UNL     1       8.160   5.993  19.082  0.00  0.00    +0.000 A 
ATOM     26  C   UNL     1       7.549   4.915  18.432  0.00  0.00    +0.000 A 
ENDBRANCH  20  21
ENDBRANCH  19  20
ENDBRANCH   4  19
TORSDOF 6
ENDMDL
MODEL 2
REMARK VINA RESULT:      -8.3      0.128      1.374
REMARK  Name = 
REMARK  8 active torsions:
REMARK  status: ('A' for Active; 'I' for Inactive)
REMARK    1  A    between atoms: C_1  and  N_2
REMARK    2  A    between atoms: N_2  and  C_3
REMARK    3  A    between atoms: N_2  and  C_4
REMARK    4  A    between atoms: C_4  and  C_5
REMARK    5  A    between atoms: C_14  and  O_15
REMARK    6  A    between atoms: C_14  and  C_16
REMARK    7  A    between atoms: C_16  and  C_17
REMARK    8  A    between atoms: C_17  and  C_18
REMARK                            x       y       z     vdW  Elec       q    Type
REMARK                         _______ _______ _______ _____ _____    ______ ____
ROOT
ATOM      1  C   UNL     1       2.271   5.302  19.351  0.00  0.00    +0.000 C 
ATOM      2  C   UNL     1       1.890   4.805  17.902  0.00  0.00    +0.000 C 
ATOM      3  C   UNL     1       2.409   3.385  17.594  0.00  0.00    +0.000 C 
ATOM      4  C   UNL     1       3.952   3.292  17.700  0.00  0.00    +0.000 C 
ATOM      5  C   UNL     1       4.324   3.737  19.133  0.00  0.00    +0.000 C 
ATOM      6  C   UNL     1       3.837   5.163  19.434  0.00  0.00    +0.000 C 
ENDROOT
BRANCH   1   7
ATOM      7  C   UNL     1       1.879   6.804  19.517  0.00  0.00    +0.000 A 
ATOM      8  C   UNL     1       1.395   7.301  20.757  0.00  0.00    +0.000 A 
ATOM      9  C   UNL     1       1.091   8.651  20.932  0.00  0.00    +0.000 A 
ATOM     10  C   UNL     1       1.253   9.549  19.880  0.00  0.00    +0.000 A 
ATOM     11 BR   UNL     1       0.855  11.398  20.139  0.00  0.00    +0.000 Br
ATOM     12  C   UNL     1       1.709   9.092  18.646  0.00  0.00    +0.000 A 
ATOM     13  C   UNL     1       2.019   7.741  18.462  0.00  0.00    +0.000 A 
ENDBRANCH   1   7
BRANCH   1  15
ATOM     14  C   UNL     1       0.813   3.325  19.862  0.00  0.00    +0.000 C 
ATOM     15  N   UNL     1       1.630   4.434  20.405  0.00  0.00    +0.000 NA
ATOM     16  C   UNL     1       2.565   3.885  21.409  0.00  0.00    +0.000 C 
ENDBRANCH   1  15
BRANCH   4  17
ATOM     17  O   UNL     1       4.350   1.948  17.555  0.00  0.00    +0.000 OA
ATOM     18  H   UNL     1       4.959   1.893  16.772  0.00  0.00    +0.000 HD
ENDBRANCH   4  17
BRANCH   4  19
ATOM     19  C   UNL     1       4.651   4.155  16.593  0.00  0.00    +0.000 C 
BRANCH  19  20
ATOM     20  C   UNL     1       6.185   4.017  16.568  0.00  0.00    +0.000 C 
BRANCH  20  21
ATOM     21  C   UNL     1       6.859   5.181  17.251  0.00  0.00    +0.000 A 
ATOM     22  C   UNL     1       7.556   4.981  18.458  0.00  0.00    +0.000 A 
ATOM     23  C   UNL     1       8.185   6.052  19.097  0.00  0.00    +0.000 A 
ATOM     24  C   UNL     1       8.131   7.332  18.536  0.00  0.00    +0.000 A 
ATOM     25  C   UNL     1       7.443   7.541  17.338  0.00  0.00    +0.000 A 
ATOM     26  C   UNL     1       6.810   6.471  16.696  0.00  0.00    +0.000 A 
ENDBRANCH  20  21
ENDBRANCH  19  20
ENDBRANCH   4  19
TORSDOF 6
ENDMDL
MODEL 3
REMARK VINA RESULT:      -8.0      0.467      1.270
REMARK  Name = 
REMARK  8 active torsions:
REMARK  status: ('A' for Active; 'I' for Inactive)
REMARK    1  A    between atoms: C_1  and  N_2
REMARK    2  A    between atoms: N_2  and  C_3
REMARK    3  A    between atoms: N_2  and  C_4
REMARK    4  A    between atoms: C_4  and  C_5
REMARK    5  A    between atoms: C_14  and  O_15
REMARK    6  A    between atoms: C_14  and  C_16
REMARK    7  A    between atoms: C_16  and  C_17
REMARK    8  A    between atoms: C_17  and  C_18
REMARK                            x       y       z     vdW  Elec       q    Type
REMARK                         _______ _______ _______ _____ _____    ______ ____
ROOT
ATOM      1  C   UNL     1       2.533   4.989  19.219  0.00  0.00    +0.000 C 
ATOM      2  C   UNL     1       2.089   4.630  17.748  0.00  0.00    +0.000 C 
ATOM      3  C   UNL     1       2.630   3.266  17.268  0.00  0.00    +0.000 C 
ATOM      4  C   UNL     1       4.178   3.214  17.287  0.00  0.00    +0.000 C 
ATOM      5  C   UNL     1       4.613   3.523  18.738  0.00  0.00    +0.000 C 
ATOM      6  C   UNL     1       4.104   4.894  19.209  0.00  0.00    +0.000 C 
ENDROOT
BRANCH   1   7
ATOM      7  C   UNL     1       2.109   6.452  19.560  0.00  0.00    +0.000 A 
ATOM      8  C   UNL     1       2.202   7.486  18.590  0.00  0.00    +0.000 A 
ATOM      9  C   UNL     1       1.777   8.785  18.866  0.00  0.00    +0.000 A 
ATOM     10  C   UNL     1       1.252   9.100  20.116  0.00  0.00    +0.000 A 
ATOM     11 BR   UNL     1       0.652  10.877  20.476  0.00  0.00    +0.000 Br
ATOM     12  C   UNL     1       1.162   8.115  21.097  0.00  0.00    +0.000 A 
ATOM     13  C   UNL     1       1.584   6.809  20.828  0.00  0.00    +0.000 A 
ENDBRANCH   1   7
BRANCH   1  15
ATOM     14  C   UNL     1       2.397   4.229  21.607  0.00  0.00    +0.000 C 
ATOM     15  N   UNL     1       1.973   3.997  20.208  0.00  0.00    +0.000 NA
ATOM     16  C   UNL     1       0.503   3.853  20.177  0.00  0.00    +0.000 C 
ENDBRANCH   1  15
BRANCH   4  17
ATOM     17  O   UNL     1       4.605   1.906  16.983  0.00  0.00    +0.000 OA
ATOM     18  H   UNL     1       5.598   1.902  16.977  0.00  0.00    +0.000 HD
ENDBRANCH   4  17
BRANCH   4  19
ATOM     19  C   UNL     1       4.794   4.208  16.241  0.00  0.00    +0.000 C 
BRANCH  19  20
ATOM     20  C   UNL     1       6.331   4.165  16.167  0.00  0.00    +0.000 C 
BRANCH  20  21
ATOM     21  C   UNL     1       6.960   5.235  17.025  0.00  0.00    +0.000 A 
ATOM     22  C   UNL     1       7.622   4.883  18.217  0.00  0.00    +0.000 A 
ATOM     23  C   UNL     1       8.209   5.866  19.017  0.00  0.00    +0.000 A 
ATOM     24  C   UNL     1       8.146   7.209  18.635  0.00  0.00    +0.000 A 
ATOM     25  C   UNL     1       7.491   7.570  17.453  0.00  0.00    +0.000 A 
ATOM     26  C   UNL     1       6.901   6.589  16.650  0.00  0.00    +0.000 A 
ENDBRANCH  20  21
ENDBRANCH  19  20
ENDBRANCH   4  19
TORSDOF 6
ENDMDL
MODEL 4
REMARK VINA RESULT:      -7.8      1.795      2.714
REMARK  Name = 
REMARK  8 active torsions:
REMARK  status: ('A' for Active; 'I' for Inactive)
REMARK    1  A    between atoms: C_1  and  N_2
REMARK    2  A    between atoms: N_2  and  C_3
REMARK    3  A    between atoms: N_2  and  C_4
REMARK    4  A    between atoms: C_4  and  C_5
REMARK    5  A    between atoms: C_14  and  O_15
REMARK    6  A    between atoms: C_14  and  C_16
REMARK    7  A    between atoms: C_16  and  C_17
REMARK    8  A    between atoms: C_17  and  C_18
REMARK                            x       y       z     vdW  Elec       q    Type
REMARK                         _______ _______ _______ _____ _____    ______ ____
ROOT
ATOM      1  C   UNL     1       2.476   5.505  19.340  0.00  0.00    +0.000 C 
ATOM      2  C   UNL     1       1.989   5.020  17.920  0.00  0.00    +0.000 C 
ATOM      3  C   UNL     1       2.548   3.635  17.529  0.00  0.00    +0.000 C 
ATOM      4  C   UNL     1       4.097   3.622  17.492  0.00  0.00    +0.000 C 
ATOM      5  C   UNL     1       4.576   4.055  18.896  0.00  0.00    +0.000 C 
ATOM      6  C   UNL     1       4.048   5.446  19.277  0.00  0.00    +0.000 C 
ENDROOT
BRANCH   1   7
ATOM      7  C   UNL     1       2.026   6.980  19.581  0.00  0.00    +0.000 A 
ATOM      8  C   UNL     1       2.075   7.940  18.535  0.00  0.00    +0.000 A 
ATOM      9  C   UNL     1       1.626   9.247  18.723  0.00  0.00    +0.000 A 
ATOM     10  C   UNL     1       1.120   9.644  19.958  0.00  0.00    +0.000 A 
ATOM     11 BR   UNL     1       0.488  11.430  20.198  0.00  0.00    +0.000 Br
ATOM     12  C   UNL     1       1.074   8.733  21.011  0.00  0.00    +0.000 A 
ATOM     13  C   UNL     1       1.520   7.420  20.830  0.00  0.00    +0.000 A 
ENDBRANCH   1   7
BRANCH   1  15
ATOM     14  C   UNL     1       0.809   3.764  20.037  0.00  0.00    +0.000 C 
ATOM     15  N   UNL     1       1.979   4.582  20.425  0.00  0.00    +0.000 NA
ATOM     16  C   UNL     1       3.008   3.692  21.001  0.00  0.00    +0.000 C 
ENDBRANCH   1  15
BRANCH   4  17
ATOM     17  O   UNL     1       4.547   2.304  17.276  0.00  0.00    +0.000 OA
ATOM     18  H   UNL     1       4.122   1.721  17.959  0.00  0.00    +0.000 HD
ENDBRANCH   4  17
BRANCH   4  19
ATOM     19  C   UNL     1       4.647   4.543  16.349  0.00  0.00    +0.000 C 
BRANCH  19  20
ATOM     20  C   UNL     1       6.163   4.411  16.114  0.00  0.00    +0.000 C 
BRANCH  20  21
ATOM     21  C   UNL     1       6.495   4.361  14.642  0.00  0.00    +0.000 A 
ATOM     22  C   UNL     1       5.778   3.502  13.788  0.00  0.00    +0.000 A 
ATOM     23  C   UNL     1       6.077   3.451  12.424  0.00  0.00    +0.000 A 
ATOM     24  C   UNL     1       7.090   4.258  11.898  0.00  0.00    +0.000 A 
ATOM     25  C   UNL     1       7.808   5.115  12.738  0.00  0.00    +0.000 A 
ATOM     26  C   UNL     1       7.512   5.169  14.104  0.00  0.00    +0.000 A 
ENDBRANCH  20  21
ENDBRANCH  19  20
ENDBRANCH   4  19
TORSDOF 6
ENDMDL
MODEL 5
REMARK VINA RESULT:      -7.8      1.802      2.701
REMARK  Name = 
REMARK  8 active torsions:
REMARK  status: ('A' for Active; 'I' for Inactive)
REMARK    1  A    between atoms: C_1  and  N_2
REMARK    2  A    between atoms: N_2  and  C_3
REMARK    3  A    between atoms: N_2  and  C_4
REMARK    4  A    between atoms: C_4  and  C_5
REMARK    5  A    between atoms: C_14  and  O_15
REMARK    6  A    between atoms: C_14  and  C_16
REMARK    7  A    between atoms: C_16  and  C_17
REMARK    8  A    between atoms: C_17  and  C_18
REMARK                            x       y       z     vdW  Elec       q    Type
REMARK                         _______ _______ _______ _____ _____    ______ ____
ROOT
ATOM      1  C   UNL     1       2.499   5.510  19.242  0.00  0.00    +0.000 C 
ATOM      2  C   UNL     1       1.916   4.889  17.913  0.00  0.00    +0.000 C 
ATOM      3  C   UNL     1       2.451   3.470  17.623  0.00  0.00    +0.000 C 
ATOM      4  C   UNL     1       3.994   3.447  17.481  0.00  0.00    +0.000 C 
ATOM      5  C   UNL     1       4.567   4.015  18.800  0.00  0.00    +0.000 C 
ATOM      6  C   UNL     1       4.062   5.439  19.077  0.00  0.00    +0.000 C 
ENDROOT
BRANCH   1   7
ATOM      7  C   UNL     1       2.062   7.003  19.366  0.00  0.00    +0.000 A 
ATOM      8  C   UNL     1       2.127   7.880  18.251  0.00  0.00    +0.000 A 
ATOM      9  C   UNL     1       1.690   9.202  18.336  0.00  0.00    +0.000 A 
ATOM     10  C   UNL     1       1.181   9.696  19.534  0.00  0.00    +0.000 A 
ATOM     11 BR   UNL     1       0.565  11.501  19.632  0.00  0.00    +0.000 Br
ATOM     12  C   UNL     1       1.119   8.868  20.652  0.00  0.00    +0.000 A 
ATOM     13  C   UNL     1       1.552   7.541  20.575  0.00  0.00    +0.000 A 
ENDBRANCH   1   7
BRANCH   1  15
ATOM     14  C   UNL     1       0.851   3.901  20.240  0.00  0.00    +0.000 C 
ATOM     15  N   UNL     1       2.080   4.700  20.444  0.00  0.00    +0.000 NA
ATOM     16  C   UNL     1       3.131   3.819  20.994  0.00  0.00    +0.000 C 
ENDBRANCH   1  15
BRANCH   4  17
ATOM     17  O   UNL     1       4.432   2.113  17.366  0.00  0.00    +0.000 OA
ATOM     18  H   UNL     1       4.492   1.894  16.399  0.00  0.00    +0.000 HD
ENDBRANCH   4  17
BRANCH   4  19
ATOM     19  C   UNL     1       4.461   4.250  16.217  0.00  0.00    +0.000 C 
BRANCH  19  20
ATOM     20  C   UNL     1       5.990   4.321  16.052  0.00  0.00    +0.000 C 
BRANCH  20  21
ATOM     21  C   UNL     1       6.394   4.316  14.598  0.00  0.00    +0.000 A 
ATOM     22  C   UNL     1       7.436   5.152  14.155  0.00  0.00    +0.000 A 
ATOM     23  C   UNL     1       7.819   5.153  12.811  0.00  0.00    +0.000 A 
ATOM     24  C   UNL     1       7.169   4.318  11.897  0.00  0.00    +0.000 A 
ATOM     25  C   UNL     1       6.132   3.484  12.327  0.00  0.00    +0.000 A 
ATOM     26  C   UNL     1       5.746   3.481  13.672  0.00  0.00    +0.000 A 
ENDBRANCH  20  21
ENDBRANCH  19  20
ENDBRANCH   4  19
TORSDOF 6
ENDMDL
MODEL 6
REMARK VINA RESULT:      -7.7      2.124      3.343
REMARK  Name = 
REMARK  8 active torsions:
REMARK  status: ('A' for Active; 'I' for Inactive)
REMARK    1  A    between atoms: C_1  and  N_2
REMARK    2  A    between atoms: N_2  and  C_3
REMARK    3  A    between atoms: N_2  and  C_4
REMARK    4  A    between atoms: C_4  and  C_5
REMARK    5  A    between atoms: C_14  and  O_15
REMARK    6  A    between atoms: C_14  and  C_16
REMARK    7  A    between atoms: C_16  and  C_17
REMARK    8  A    between atoms: C_17  and  C_18
REMARK                            x       y       z     vdW  Elec       q    Type
REMARK                         _______ _______ _______ _____ _____    ______ ____
ROOT
ATOM      1  C   UNL     1       3.889   6.028  18.237  0.00  0.00    +0.000 C 
ATOM      2  C   UNL     1       4.400   6.357  16.781  0.00  0.00    +0.000 C 
ATOM      3  C   UNL     1       5.565   5.451  16.329  0.00  0.00    +0.000 C 
ATOM      4  C   UNL     1       6.793   5.571  17.266  0.00  0.00    +0.000 C 
ATOM      5  C   UNL     1       6.303   5.206  18.686  0.00  0.00    +0.000 C 
ATOM      6  C   UNL     1       5.165   6.126  19.153  0.00  0.00    +0.000 C 
ENDROOT
BRANCH   1   7
ATOM      7  C   UNL     1       2.848   7.099  18.689  0.00  0.00    +0.000 A 
ATOM      8  C   UNL     1       2.325   7.101  20.010  0.00  0.00    +0.000 A 
ATOM      9  C   UNL     1       1.435   8.084  20.441  0.00  0.00    +0.000 A 
ATOM     10  C   UNL     1       1.031   9.094  19.572  0.00  0.00    +0.000 A 
ATOM     11 BR   UNL     1      -0.171  10.448  20.180  0.00  0.00    +0.000 Br
ATOM     12  C   UNL     1       1.511   9.113  18.264  0.00  0.00    +0.000 A 
ATOM     13  C   UNL     1       2.405   8.132  17.824  0.00  0.00    +0.000 A 
ENDBRANCH   1   7
BRANCH   1  15
ATOM     14  C   UNL     1       3.258   4.070  19.675  0.00  0.00    +0.000 C 
ATOM     15  N   UNL     1       3.323   4.631  18.307  0.00  0.00    +0.000 NA
ATOM     16  C   UNL     1       2.003   4.464  17.663  0.00  0.00    +0.000 C 
ENDBRANCH   1  15
BRANCH   4  17
ATOM     17  O   UNL     1       7.761   4.617  16.891  0.00  0.00    +0.000 OA
ATOM     18  H   UNL     1       8.171   4.918  16.038  0.00  0.00    +0.000 HD
ENDBRANCH   4  17
BRANCH   4  19
ATOM     19  C   UNL     1       7.429   7.002  17.189  0.00  0.00    +0.000 C 
BRANCH  19  20
ATOM     20  C   UNL     1       8.187   7.419  18.463  0.00  0.00    +0.000 C 
BRANCH  20  21
ATOM     21  C   UNL     1       8.490   8.897  18.471  0.00  0.00    +0.000 A 
ATOM     22  C   UNL     1       7.924   9.737  17.493  0.00  0.00    +0.000 A 
ATOM     23  C   UNL     1       8.198  11.107  17.494  0.00  0.00    +0.000 A 
ATOM     24  C   UNL     1       9.034  11.654  18.472  0.00  0.00    +0.000 A 
ATOM     25  C   UNL     1       9.601  10.829  19.448  0.00  0.00    +0.000 A 
ATOM     26  C   UNL     1       9.330   9.457  19.450  0.00  0.00    +0.000 A 
ENDBRANCH  20  21
ENDBRANCH  19  20
ENDBRANCH   4  19
TORSDOF 6
ENDMDL
MODEL 7
REMARK VINA RESULT:      -7.6      1.980      3.097
REMARK  Name = 
REMARK  8 active torsions:
REMARK  status: ('A' for Active; 'I' for Inactive)
REMARK    1  A    between atoms: C_1  and  N_2
REMARK    2  A    between atoms: N_2  and  C_3
REMARK    3  A    between atoms: N_2  and  C_4
REMARK    4  A    between atoms: C_4  and  C_5
REMARK    5  A    between atoms: C_14  and  O_15
REMARK    6  A    between atoms: C_14  and  C_16
REMARK    7  A    between atoms: C_16  and  C_17
REMARK    8  A    between atoms: C_17  and  C_18
REMARK                            x       y       z     vdW  Elec       q    Type
REMARK                         _______ _______ _______ _____ _____    ______ ____
ROOT
ATOM      1  C   UNL     1       2.654   5.421  19.208  0.00  0.00    +0.000 C 
ATOM      2  C   UNL     1       2.328   5.110  17.696  0.00  0.00    +0.000 C 
ATOM      3  C   UNL     1       3.045   3.849  17.169  0.00  0.00    +0.000 C 
ATOM      4  C   UNL     1       4.586   3.970  17.271  0.00  0.00    +0.000 C 
ATOM      5  C   UNL     1       4.911   4.231  18.760  0.00  0.00    +0.000 C 
ATOM      6  C   UNL     1       4.224   5.503  19.281  0.00  0.00    +0.000 C 
ENDROOT
BRANCH   1   7
ATOM      7  C   UNL     1       2.048   6.802  19.609  0.00  0.00    +0.000 A 
ATOM      8  C   UNL     1       1.591   7.045  20.933  0.00  0.00    +0.000 A 
ATOM      9  C   UNL     1       1.097   8.291  21.316  0.00  0.00    +0.000 A 
ATOM     10  C   UNL     1       1.034   9.334  20.396  0.00  0.00    +0.000 A 
ATOM     11 BR   UNL     1       0.376  11.043  20.938  0.00  0.00    +0.000 Br
ATOM     12  C   UNL     1       1.458   9.126  19.085  0.00  0.00    +0.000 A 
ATOM     13  C   UNL     1       1.958   7.880  18.693  0.00  0.00    +0.000 A 
ENDBRANCH   1   7
BRANCH   1  15
ATOM     14  C   UNL     1       2.569   4.450  21.521  0.00  0.00    +0.000 C 
ATOM     15  N   UNL     1       2.164   4.310  20.105  0.00  0.00    +0.000 NA
ATOM     16  C   UNL     1       0.708   4.068  20.051  0.00  0.00    +0.000 C 
ENDBRANCH   1  15
BRANCH   4  17
ATOM     17  O   UNL     1       5.175   2.740  16.916  0.00  0.00    +0.000 OA
ATOM     18  H   UNL     1       4.444   2.088  16.750  0.00  0.00    +0.000 HD
ENDBRANCH   4  17
BRANCH   4  19
ATOM     19  C   UNL     1       5.133   5.092  16.322  0.00  0.00    +0.000 C 
BRANCH  19  20
ATOM     20  C   UNL     1       6.610   4.911  15.926  0.00  0.00    +0.000 C 
BRANCH  20  21
ATOM     21  C   UNL     1       6.763   4.660  14.446  0.00  0.00    +0.000 A 
ATOM     22  C   UNL     1       5.956   3.699  13.808  0.00  0.00    +0.000 A 
ATOM     23  C   UNL     1       6.088   3.461  12.438  0.00  0.00    +0.000 A 
ATOM     24  C   UNL     1       7.023   4.181  11.690  0.00  0.00    +0.000 A 
ATOM     25  C   UNL     1       7.830   5.138  12.313  0.00  0.00    +0.000 A 
ATOM     26  C   UNL     1       7.701   5.379  13.685  0.00  0.00    +0.000 A 
ENDBRANCH  20  21
ENDBRANCH  19  20
ENDBRANCH   4  19
TORSDOF 6
ENDMDL
MODEL 8
REMARK VINA RESULT:      -7.5      2.181      3.403
REMARK  Name = 
REMARK  8 active torsions:
REMARK  status: ('A' for Active; 'I' for Inactive)
REMARK    1  A    between atoms: C_1  and  N_2
REMARK    2  A    between atoms: N_2  and  C_3
REMARK    3  A    between atoms: N_2  and  C_4
REMARK    4  A    between atoms: C_4  and  C_5
REMARK    5  A    between atoms: C_14  and  O_15
REMARK    6  A    between atoms: C_14  and  C_16
REMARK    7  A    between atoms: C_16  and  C_17
REMARK    8  A    between atoms: C_17  and  C_18
REMARK                            x       y       z     vdW  Elec       q    Type
REMARK                         _______ _______ _______ _____ _____    ______ ____
ROOT
ATOM      1  C   UNL     1       3.863   6.209  18.179  0.00  0.00    +0.000 C 
ATOM      2  C   UNL     1       4.384   6.547  16.728  0.00  0.00    +0.000 C 
ATOM      3  C   UNL     1       5.537   5.630  16.270  0.00  0.00    +0.000 C 
ATOM      4  C   UNL     1       6.764   5.722  17.212  0.00  0.00    +0.000 C 
ATOM      5  C   UNL     1       6.264   5.349  18.627  0.00  0.00    +0.000 C 
ATOM      6  C   UNL     1       5.137   6.279  19.100  0.00  0.00    +0.000 C 
ENDROOT
BRANCH   1   7
ATOM      7  C   UNL     1       2.836   7.291  18.640  0.00  0.00    +0.000 A 
ATOM      8  C   UNL     1       2.373   8.290  17.742  0.00  0.00    +0.000 A 
ATOM      9  C   UNL     1       1.416   9.229  18.127  0.00  0.00    +0.000 A 
ATOM     10  C   UNL     1       0.893   9.209  19.417  0.00  0.00    +0.000 A 
ATOM     11 BR   UNL     1      -0.432  10.486  19.926  0.00  0.00    +0.000 Br
ATOM     12  C   UNL     1       1.337   8.254  20.328  0.00  0.00    +0.000 A 
ATOM     13  C   UNL     1       2.295   7.307  19.950  0.00  0.00    +0.000 A 
ENDBRANCH   1   7
BRANCH   1  15
ATOM     14  C   UNL     1       3.346   4.182  19.565  0.00  0.00    +0.000 C 
ATOM     15  N   UNL     1       3.277   4.820  18.231  0.00  0.00    +0.000 NA
ATOM     16  C   UNL     1       1.892   4.712  17.727  0.00  0.00    +0.000 C 
ENDBRANCH   1  15
BRANCH   4  17
ATOM     17  O   UNL     1       7.719   4.759  16.830  0.00  0.00    +0.000 OA
ATOM     18  H   UNL     1       7.903   4.878  15.861  0.00  0.00    +0.000 HD
ENDBRANCH   4  17
BRANCH   4  19
ATOM     19  C   UNL     1       7.421   7.145  17.153  0.00  0.00    +0.000 C 
BRANCH  19  20
ATOM     20  C   UNL     1       8.220   7.517  18.415  0.00  0.00    +0.000 C 
BRANCH  20  21
ATOM     21  C   UNL     1       8.509   8.997  18.474  0.00  0.00    +0.000 A 
ATOM     22  C   UNL     1       9.276   9.522  19.532  0.00  0.00    +0.000 A 
ATOM     23  C   UNL     1       9.551  10.890  19.594  0.00  0.00    +0.000 A 
ATOM     24  C   UNL     1       9.068  11.748  18.601  0.00  0.00    +0.000 A 
ATOM     25  C   UNL     1       8.307  11.236  17.546  0.00  0.00    +0.000 A 
ATOM     26  C   UNL     1       8.029   9.867  17.481  0.00  0.00    +0.000 A 
ENDBRANCH  20  21
ENDBRANCH  19  20
ENDBRANCH   4  19
TORSDOF 6
ENDMDL
MODEL 9
REMARK VINA RESULT:      -7.4      2.266      3.605
REMARK  Name = 
REMARK  8 active torsions:
REMARK  status: ('A' for Active; 'I' for Inactive)
REMARK    1  A    between atoms: C_1  and  N_2
REMARK    2  A    between atoms: N_2  and  C_3
REMARK    3  A    between atoms: N_2  and  C_4
REMARK    4  A    between atoms: C_4  and  C_5
REMARK    5  A    between atoms: C_14  and  O_15
REMARK    6  A    between atoms: C_14  and  C_16
REMARK    7  A    between atoms: C_16  and  C_17
REMARK    8  A    between atoms: C_17  and  C_18
REMARK                            x       y       z     vdW  Elec       q    Type
REMARK                         _______ _______ _______ _____ _____    ______ ____
ROOT
ATOM      1  C   UNL     1       3.821   5.786  18.416  0.00  0.00    +0.000 C 
ATOM      2  C   UNL     1       4.490   6.702  17.319  0.00  0.00    +0.000 C 
ATOM      3  C   UNL     1       5.664   6.016  16.590  0.00  0.00    +0.000 C 
ATOM      4  C   UNL     1       6.793   5.601  17.567  0.00  0.00    +0.000 C 
ATOM      5  C   UNL     1       6.149   4.668  18.617  0.00  0.00    +0.000 C 
ATOM      6  C   UNL     1       4.999   5.358  19.367  0.00  0.00    +0.000 C 
ENDROOT
BRANCH   1   7
ATOM      7  C   UNL     1       2.775   6.610  19.230  0.00  0.00    +0.000 A 
ATOM      8  C   UNL     1       2.211   6.096  20.429  0.00  0.00    +0.000 A 
ATOM      9  C   UNL     1       1.316   6.845  21.193  0.00  0.00    +0.000 A 
ATOM     10  C   UNL     1       0.948   8.124  20.787  0.00  0.00    +0.000 A 
ATOM     11 BR   UNL     1      -0.261   9.148  21.853  0.00  0.00    +0.000 Br
ATOM     12  C   UNL     1       1.468   8.652  19.608  0.00  0.00    +0.000 A 
ATOM     13  C   UNL     1       2.368   7.910  18.837  0.00  0.00    +0.000 A 
ENDBRANCH   1   7
BRANCH   1  15
ATOM     14  C   UNL     1       3.498   3.299  18.510  0.00  0.00    +0.000 C 
ATOM     15  N   UNL     1       3.205   4.558  17.790  0.00  0.00    +0.000 NA
ATOM     16  C   UNL     1       1.748   4.645  17.560  0.00  0.00    +0.000 C 
ENDBRANCH   1  15
BRANCH   4  17
ATOM     17  O   UNL     1       7.762   4.852  16.869  0.00  0.00    +0.000 OA
ATOM     18  H   UNL     1       8.532   4.704  17.480  0.00  0.00    +0.000 HD
ENDBRANCH   4  17
BRANCH   4  19
ATOM     19  C   UNL     1       7.481   6.857  18.207  0.00  0.00    +0.000 C 
BRANCH  19  20
ATOM     20  C   UNL     1       7.679   8.028  17.229  0.00  0.00    +0.000 C 
BRANCH  20  21
ATOM     21  C   UNL     1       8.254   9.240  17.921  0.00  0.00    +0.000 A 
ATOM     22  C   UNL     1       8.975   9.089  19.121  0.00  0.00    +0.000 A 
ATOM     23  C   UNL     1       9.513  10.204  19.767  0.00  0.00    +0.000 A 
ATOM     24  C   UNL     1       9.341  11.480  19.223  0.00  0.00    +0.000 A 
ATOM     25  C   UNL     1       8.628  11.642  18.031  0.00  0.00    +0.000 A 
ATOM     26  C   UNL     1       8.087  10.527  17.381  0.00  0.00    +0.000 A 
ENDBRANCH  20  21
ENDBRANCH  19  20
ENDBRANCH   4  19
TORSDOF 6
ENDMDL
