MODEL 1
REMARK VINA RESULT:      -7.0      0.000      0.000
REMARK  Name = 
REMARK  11 active torsions:
REMARK  status: ('A' for Active; 'I' for Inactive)
REMARK    1  A    between atoms: C_1  and  O_2
REMARK    2  A    between atoms: O_2  and  C_3
REMARK    3  A    between atoms: C_5  and  C_6
REMARK    4  A    between atoms: C_7  and  C_8
REMARK    5  A    between atoms: C_7  and  C_10
REMARK    6  A    between atoms: C_13  and  C_14
REMARK    7  A    between atoms: C_14  and  S_15
REMARK    8  A    between atoms: S_15  and  C_16
REMARK    9  A    between atoms: C_21  and  C_22
REMARK   10  A    between atoms: C_22  and  O_24
REMARK   11  A    between atoms: C_25  and  O_26
REMARK                            x       y       z     vdW  Elec       q    Type
REMARK                         _______ _______ _______ _____ _____    ______ ____
ROOT
ATOM      1  C   UNL     1       3.110   7.777  17.875  0.00  0.00    +0.000 A 
ATOM      2  C   UNL     1       3.049   6.690  18.756  0.00  0.00    +0.000 A 
ATOM      3  C   UNL     1       2.170   6.692  19.840  0.00  0.00    +0.000 A 
ATOM      4  C   UNL     1       1.323   7.792  20.036  0.00  0.00    +0.000 A 
ATOM      5  C   UNL     1       1.315   8.886  19.141  0.00  0.00    +0.000 A 
ATOM      6  C   UNL     1       2.263   8.878  18.089  0.00  0.00    +0.000 A 
ENDROOT
BRANCH   1   8
ATOM      7  C   UNL     1       4.627   6.310  16.723  0.00  0.00    +0.000 C 
ATOM      8  O   UNL     1       4.024   7.588  16.870  0.00  0.00    +0.000 OA
ENDBRANCH   1   8
BRANCH   3   9
ATOM      9  C   UNL     1       2.083   5.518  20.717  0.00  0.00    +0.000 C 
ATOM     10  C   UNL     1       1.752   4.263  20.349  0.00  0.00    +0.000 C 
BRANCH  10  11
ATOM     11  C   UNL     1       1.474   3.910  18.999  0.00  0.00    +0.000 C 
ATOM     12  N   UNL     1       1.235   3.623  17.897  0.00  0.00    +0.000 NA
ENDBRANCH  10  11
BRANCH  10  13
ATOM     13  C   UNL     1       1.697   3.241  21.342  0.00  0.00    +0.000 C 
ATOM     14  N   UNL     1       1.669   2.395  22.137  0.00  0.00    +0.000 NA
ENDBRANCH  10  13
ENDBRANCH   3   9
BRANCH   6  15
ATOM     15  O   UNL     1       2.382   9.963  17.262  0.00  0.00    +0.000 OA
ATOM     16  H   UNL     1       1.502  10.219  16.938  0.00  0.00    +0.000 HD
ENDBRANCH   6  15
BRANCH   5  17
ATOM     17  C   UNL     1       0.316  10.014  19.402  0.00  0.00    +0.000 C 
BRANCH  17  18
ATOM     18  S   UNL     1       1.019  11.354  20.466  0.00  0.00    +0.000 S 
BRANCH  18  19
ATOM     19  C   UNL     1      -0.331  11.793  21.559  0.00  0.00    +0.000 A 
ATOM     20  C   UNL     1      -1.067  12.941  21.208  0.00  0.00    +0.000 A 
ATOM     21  C   UNL     1      -2.236  13.289  21.892  0.00  0.00    +0.000 A 
ATOM     22  C   UNL     1      -2.683  12.507  22.950  0.00  0.00    +0.000 A 
ATOM     23  C   UNL     1      -1.967  11.368  23.315  0.00  0.00    +0.000 A 
ATOM     24  C   UNL     1      -0.809  10.988  22.608  0.00  0.00    +0.000 A 
BRANCH  24  25
ATOM     25  C   UNL     1      -0.205   9.697  23.021  0.00  0.00    +0.000 C 
ATOM     26  O   UNL     1       0.833   9.635  23.659  0.00  0.00    +0.000 OA
BRANCH  25  27
ATOM     27  O   UNL     1      -0.938   8.609  22.712  0.00  0.00    +0.000 OA
ATOM     28  H   UNL     1      -1.577   8.747  21.982  0.00  0.00    +0.000 HD
ENDBRANCH  25  27
ENDBRANCH  24  25
ENDBRANCH  18  19
ENDBRANCH  17  18
ENDBRANCH   5  17
TORSDOF 10
ENDMDL
MODEL 2
REMARK VINA RESULT:      -7.0      3.233      5.060
REMARK  Name = 
REMARK  11 active torsions:
REMARK  status: ('A' for Active; 'I' for Inactive)
REMARK    1  A    between atoms: C_1  and  O_2
REMARK    2  A    between atoms: O_2  and  C_3
REMARK    3  A    between atoms: C_5  and  C_6
REMARK    4  A    between atoms: C_7  and  C_8
REMARK    5  A    between atoms: C_7  and  C_10
REMARK    6  A    between atoms: C_13  and  C_14
REMARK    7  A    between atoms: C_14  and  S_15
REMARK    8  A    between atoms: S_15  and  C_16
REMARK    9  A    between atoms: C_21  and  C_22
REMARK   10  A    between atoms: C_22  and  O_24
REMARK   11  A    between atoms: C_25  and  O_26
REMARK                            x       y       z     vdW  Elec       q    Type
REMARK                         _______ _______ _______ _____ _____    ______ ____
ROOT
ATOM      1  C   UNL     1       3.333   4.461  19.600  0.00  0.00    +0.000 A 
ATOM      2  C   UNL     1       4.088   4.442  18.420  0.00  0.00    +0.000 A 
ATOM      3  C   UNL     1       4.122   5.548  17.570  0.00  0.00    +0.000 A 
ATOM      4  C   UNL     1       3.404   6.701  17.914  0.00  0.00    +0.000 A 
ATOM      5  C   UNL     1       2.672   6.782  19.121  0.00  0.00    +0.000 A 
ATOM      6  C   UNL     1       2.608   5.620  19.928  0.00  0.00    +0.000 A 
ENDROOT
BRANCH   1   8
ATOM      7  C   UNL     1       4.341   2.294  19.860  0.00  0.00    +0.000 C 
ATOM      8  O   UNL     1       3.430   3.290  20.306  0.00  0.00    +0.000 OA
ENDBRANCH   1   8
BRANCH   3   9
ATOM      9  C   UNL     1       4.966   5.524  16.369  0.00  0.00    +0.000 C 
ATOM     10  C   UNL     1       6.286   5.249  16.319  0.00  0.00    +0.000 C 
BRANCH  10  11
ATOM     11  C   UNL     1       7.037   4.895  17.475  0.00  0.00    +0.000 C 
ATOM     12  N   UNL     1       7.660   4.611  18.415  0.00  0.00    +0.000 NA
ENDBRANCH  10  11
BRANCH  10  13
ATOM     13  C   UNL     1       6.956   5.291  15.060  0.00  0.00    +0.000 C 
ATOM     14  N   UNL     1       7.520   5.340  14.048  0.00  0.00    +0.000 NA
ENDBRANCH  10  13
ENDBRANCH   3   9
BRANCH   6  15
ATOM     15  O   UNL     1       1.820   5.602  21.046  0.00  0.00    +0.000 OA
ATOM     16  H   UNL     1       2.235   5.043  21.724  0.00  0.00    +0.000 HD
ENDBRANCH   6  15
BRANCH   5  17
ATOM     17  C   UNL     1       1.968   8.102  19.440  0.00  0.00    +0.000 C 
BRANCH  17  18
ATOM     18  S   UNL     1       1.873   9.230  17.977  0.00  0.00    +0.000 S 
BRANCH  18  19
ATOM     19  C   UNL     1       0.329  10.109  18.206  0.00  0.00    +0.000 A 
ATOM     20  C   UNL     1      -0.782   9.607  17.504  0.00  0.00    +0.000 A 
ATOM     21  C   UNL     1      -2.069  10.110  17.726  0.00  0.00    +0.000 A 
ATOM     22  C   UNL     1      -2.265  11.135  18.644  0.00  0.00    +0.000 A 
ATOM     23  C   UNL     1      -1.177  11.648  19.348  0.00  0.00    +0.000 A 
ATOM     24  C   UNL     1       0.116  11.122  19.158  0.00  0.00    +0.000 A 
BRANCH  24  25
ATOM     25  C   UNL     1       1.167  11.675  20.049  0.00  0.00    +0.000 C 
ATOM     26  O   UNL     1       1.264  11.355  21.221  0.00  0.00    +0.000 OA
BRANCH  25  27
ATOM     27  O   UNL     1       2.053  12.485  19.436  0.00  0.00    +0.000 OA
ATOM     28  H   UNL     1       2.790  12.015  18.994  0.00  0.00    +0.000 HD
ENDBRANCH  25  27
ENDBRANCH  24  25
ENDBRANCH  18  19
ENDBRANCH  17  18
ENDBRANCH   5  17
TORSDOF 10
ENDMDL
MODEL 3
REMARK VINA RESULT:      -6.8      4.606      7.216
REMARK  Name = 
REMARK  11 active torsions:
REMARK  status: ('A' for Active; 'I' for Inactive)
REMARK    1  A    between atoms: C_1  and  O_2
REMARK    2  A    between atoms: O_2  and  C_3
REMARK    3  A    between atoms: C_5  and  C_6
REMARK    4  A    between atoms: C_7  and  C_8
REMARK    5  A    between atoms: C_7  and  C_10
REMARK    6  A    between atoms: C_13  and  C_14
REMARK    7  A    between atoms: C_14  and  S_15
REMARK    8  A    between atoms: S_15  and  C_16
REMARK    9  A    between atoms: C_21  and  C_22
REMARK   10  A    between atoms: C_22  and  O_24
REMARK   11  A    between atoms: C_25  and  O_26
REMARK                            x       y       z     vdW  Elec       q    Type
REMARK                         _______ _______ _______ _____ _____    ______ ____
ROOT
ATOM      1  C   UNL     1       5.214   6.261  17.098  0.00  0.00    +0.000 A 
ATOM      2  C   UNL     1       4.469   6.873  18.115  0.00  0.00    +0.000 A 
ATOM      3  C   UNL     1       3.257   6.330  18.543  0.00  0.00    +0.000 A 
ATOM      4  C   UNL     1       2.790   5.145  17.959  0.00  0.00    +0.000 A 
ATOM      5  C   UNL     1       3.535   4.468  16.967  0.00  0.00    +0.000 A 
ATOM      6  C   UNL     1       4.729   5.079  16.512  0.00  0.00    +0.000 A 
ENDROOT
BRANCH   1   8
ATOM      7  C   UNL     1       7.435   6.890  17.769  0.00  0.00    +0.000 C 
ATOM      8  O   UNL     1       6.377   6.933  16.822  0.00  0.00    +0.000 OA
ENDBRANCH   1   8
BRANCH   3   9
ATOM      9  C   UNL     1       2.523   6.957  19.649  0.00  0.00    +0.000 C 
ATOM     10  C   UNL     1       1.885   8.146  19.620  0.00  0.00    +0.000 C 
BRANCH  10  11
ATOM     11  C   UNL     1       1.816   8.946  18.445  0.00  0.00    +0.000 C 
ATOM     12  N   UNL     1       1.759   9.610  17.491  0.00  0.00    +0.000 NA
ENDBRANCH  10  11
BRANCH  10  13
ATOM     13  C   UNL     1       1.236   8.614  20.800  0.00  0.00    +0.000 C 
ATOM     14  N   UNL     1       0.705   9.018  21.749  0.00  0.00    +0.000 NA
ENDBRANCH  10  13
ENDBRANCH   3   9
BRANCH   6  15
ATOM     15  O   UNL     1       5.430   4.531  15.473  0.00  0.00    +0.000 OA
ATOM     16  H   UNL     1       6.265   5.013  15.358  0.00  0.00    +0.000 HD
ENDBRANCH   6  15
BRANCH   5  17
ATOM     17  C   UNL     1       2.974   3.150  16.429  0.00  0.00    +0.000 C 
BRANCH  17  18
ATOM     18  S   UNL     1       3.201   1.745  17.610  0.00  0.00    +0.000 S 
BRANCH  18  19
ATOM     19  C   UNL     1       2.548   2.369  19.157  0.00  0.00    +0.000 A 
ATOM     20  C   UNL     1       1.148   2.485  19.240  0.00  0.00    +0.000 A 
ATOM     21  C   UNL     1       0.517   2.808  20.446  0.00  0.00    +0.000 A 
ATOM     22  C   UNL     1       1.275   3.037  21.588  0.00  0.00    +0.000 A 
ATOM     23  C   UNL     1       2.664   2.930  21.526  0.00  0.00    +0.000 A 
ATOM     24  C   UNL     1       3.305   2.569  20.325  0.00  0.00    +0.000 A 
BRANCH  24  25
ATOM     25  C   UNL     1       4.774   2.378  20.419  0.00  0.00    +0.000 C 
ATOM     26  O   UNL     1       5.279   1.546  21.154  0.00  0.00    +0.000 OA
BRANCH  25  27
ATOM     27  O   UNL     1       5.494   3.132  19.566  0.00  0.00    +0.000 OA
ATOM     28  H   UNL     1       6.214   3.644  19.988  0.00  0.00    +0.000 HD
ENDBRANCH  25  27
ENDBRANCH  24  25
ENDBRANCH  18  19
ENDBRANCH  17  18
ENDBRANCH   5  17
TORSDOF 10
ENDMDL
MODEL 4
REMARK VINA RESULT:      -6.8      3.078      5.090
REMARK  Name = 
REMARK  11 active torsions:
REMARK  status: ('A' for Active; 'I' for Inactive)
REMARK    1  A    between atoms: C_1  and  O_2
REMARK    2  A    between atoms: O_2  and  C_3
REMARK    3  A    between atoms: C_5  and  C_6
REMARK    4  A    between atoms: C_7  and  C_8
REMARK    5  A    between atoms: C_7  and  C_10
REMARK    6  A    between atoms: C_13  and  C_14
REMARK    7  A    between atoms: C_14  and  S_15
REMARK    8  A    between atoms: S_15  and  C_16
REMARK    9  A    between atoms: C_21  and  C_22
REMARK   10  A    between atoms: C_22  and  O_24
REMARK   11  A    between atoms: C_25  and  O_26
REMARK                            x       y       z     vdW  Elec       q    Type
REMARK                         _______ _______ _______ _____ _____    ______ ____
ROOT
ATOM      1  C   UNL     1       2.647   4.295  19.145  0.00  0.00    +0.000 A 
ATOM      2  C   UNL     1       3.502   4.282  18.035  0.00  0.00    +0.000 A 
ATOM      3  C   UNL     1       3.883   5.468  17.408  0.00  0.00    +0.000 A 
ATOM      4  C   UNL     1       3.417   6.691  17.909  0.00  0.00    +0.000 A 
ATOM      5  C   UNL     1       2.596   6.753  19.057  0.00  0.00    +0.000 A 
ATOM      6  C   UNL     1       2.178   5.528  19.631  0.00  0.00    +0.000 A 
ENDROOT
BRANCH   1   8
ATOM      7  C   UNL     1       2.882   2.688  20.917  0.00  0.00    +0.000 C 
ATOM      8  O   UNL     1       2.394   3.037  19.629  0.00  0.00    +0.000 OA
ENDBRANCH   1   8
BRANCH   3   9
ATOM      9  C   UNL     1       4.825   5.432  16.282  0.00  0.00    +0.000 C 
ATOM     10  C   UNL     1       6.147   5.168  16.348  0.00  0.00    +0.000 C 
BRANCH  10  11
ATOM     11  C   UNL     1       6.800   4.839  17.568  0.00  0.00    +0.000 C 
ATOM     12  N   UNL     1       7.344   4.568  18.560  0.00  0.00    +0.000 NA
ENDBRANCH  10  11
BRANCH  10  13
ATOM     13  C   UNL     1       6.920   5.196  15.150  0.00  0.00    +0.000 C 
ATOM     14  N   UNL     1       7.569   5.212  14.188  0.00  0.00    +0.000 NA
ENDBRANCH  10  13
ENDBRANCH   3   9
BRANCH   6  15
ATOM     15  O   UNL     1       1.288   5.523  20.671  0.00  0.00    +0.000 OA
ATOM     16  H   UNL     1       1.756   5.730  21.496  0.00  0.00    +0.000 HD
ENDBRANCH   6  15
BRANCH   5  17
ATOM     17  C   UNL     1       2.184   8.136  19.566  0.00  0.00    +0.000 C 
BRANCH  17  18
ATOM     18  S   UNL     1       1.158   9.068  18.340  0.00  0.00    +0.000 S 
BRANCH  18  19
ATOM     19  C   UNL     1       0.087  10.084  19.355  0.00  0.00    +0.000 A 
ATOM     20  C   UNL     1       0.532  10.338  20.666  0.00  0.00    +0.000 A 
ATOM     21  C   UNL     1      -0.138  11.245  21.495  0.00  0.00    +0.000 A 
ATOM     22  C   UNL     1      -1.273  11.901  21.035  0.00  0.00    +0.000 A 
ATOM     23  C   UNL     1      -1.731  11.660  19.741  0.00  0.00    +0.000 A 
ATOM     24  C   UNL     1      -1.042  10.778  18.886  0.00  0.00    +0.000 A 
BRANCH  24  25
ATOM     25  C   UNL     1      -1.564  10.696  17.499  0.00  0.00    +0.000 C 
ATOM     26  O   UNL     1      -2.011   9.664  17.028  0.00  0.00    +0.000 OA
BRANCH  25  27
ATOM     27  O   UNL     1      -1.584  11.870  16.837  0.00  0.00    +0.000 OA
ATOM     28  H   UNL     1      -2.333  11.968  16.213  0.00  0.00    +0.000 HD
ENDBRANCH  25  27
ENDBRANCH  24  25
ENDBRANCH  18  19
ENDBRANCH  17  18
ENDBRANCH   5  17
TORSDOF 10
ENDMDL
MODEL 5
REMARK VINA RESULT:      -6.7      3.021      4.974
REMARK  Name = 
REMARK  11 active torsions:
REMARK  status: ('A' for Active; 'I' for Inactive)
REMARK    1  A    between atoms: C_1  and  O_2
REMARK    2  A    between atoms: O_2  and  C_3
REMARK    3  A    between atoms: C_5  and  C_6
REMARK    4  A    between atoms: C_7  and  C_8
REMARK    5  A    between atoms: C_7  and  C_10
REMARK    6  A    between atoms: C_13  and  C_14
REMARK    7  A    between atoms: C_14  and  S_15
REMARK    8  A    between atoms: S_15  and  C_16
REMARK    9  A    between atoms: C_21  and  C_22
REMARK   10  A    between atoms: C_22  and  O_24
REMARK   11  A    between atoms: C_25  and  O_26
REMARK                            x       y       z     vdW  Elec       q    Type
REMARK                         _______ _______ _______ _____ _____    ______ ____
ROOT
ATOM      1  C   UNL     1       2.300   3.851  18.715  0.00  0.00    +0.000 A 
ATOM      2  C   UNL     1       3.212   3.987  17.660  0.00  0.00    +0.000 A 
ATOM      3  C   UNL     1       3.802   5.218  17.375  0.00  0.00    +0.000 A 
ATOM      4  C   UNL     1       3.491   6.330  18.169  0.00  0.00    +0.000 A 
ATOM      5  C   UNL     1       2.617   6.225  19.275  0.00  0.00    +0.000 A 
ATOM      6  C   UNL     1       1.988   4.977  19.497  0.00  0.00    +0.000 A 
ENDROOT
BRANCH   1   8
ATOM      7  C   UNL     1       2.724   1.487  18.600  0.00  0.00    +0.000 C 
ATOM      8  O   UNL     1       1.834   2.568  18.846  0.00  0.00    +0.000 OA
ENDBRANCH   1   8
BRANCH   3   9
ATOM      9  C   UNL     1       4.798   5.323  16.301  0.00  0.00    +0.000 C 
ATOM     10  C   UNL     1       6.132   5.161  16.423  0.00  0.00    +0.000 C 
BRANCH  10  11
ATOM     11  C   UNL     1       6.750   4.815  17.657  0.00  0.00    +0.000 C 
ATOM     12  N   UNL     1       7.248   4.538  18.671  0.00  0.00    +0.000 NA
ENDBRANCH  10  11
BRANCH  10  13
ATOM     13  C   UNL     1       6.958   5.320  15.271  0.00  0.00    +0.000 C 
ATOM     14  N   UNL     1       7.611   5.439  14.319  0.00  0.00    +0.000 NA
ENDBRANCH  10  13
ENDBRANCH   3   9
BRANCH   6  15
ATOM     15  O   UNL     1       1.044   4.847  20.480  0.00  0.00    +0.000 OA
ATOM     16  H   UNL     1       0.161   4.977  20.097  0.00  0.00    +0.000 HD
ENDBRANCH   6  15
BRANCH   5  17
ATOM     17  C   UNL     1       2.383   7.479  20.120  0.00  0.00    +0.000 C 
BRANCH  17  18
ATOM     18  S   UNL     1       1.387   8.760  19.230  0.00  0.00    +0.000 S 
BRANCH  18  19
ATOM     19  C   UNL     1       0.459   9.569  20.532  0.00  0.00    +0.000 A 
ATOM     20  C   UNL     1       0.060   8.755  21.608  0.00  0.00    +0.000 A 
ATOM     21  C   UNL     1      -0.528   9.304  22.753  0.00  0.00    +0.000 A 
ATOM     22  C   UNL     1      -0.742  10.674  22.836  0.00  0.00    +0.000 A 
ATOM     23  C   UNL     1      -0.357  11.497  21.779  0.00  0.00    +0.000 A 
ATOM     24  C   UNL     1       0.270  10.958  20.638  0.00  0.00    +0.000 A 
BRANCH  24  25
ATOM     25  C   UNL     1       0.734  11.950  19.637  0.00  0.00    +0.000 C 
ATOM     26  O   UNL     1       0.110  12.191  18.617  0.00  0.00    +0.000 OA
BRANCH  25  27
ATOM     27  O   UNL     1       1.848  12.623  19.988  0.00  0.00    +0.000 OA
ATOM     28  H   UNL     1       1.872  13.552  19.679  0.00  0.00    +0.000 HD
ENDBRANCH  25  27
ENDBRANCH  24  25
ENDBRANCH  18  19
ENDBRANCH  17  18
ENDBRANCH   5  17
TORSDOF 10
ENDMDL
MODEL 6
REMARK VINA RESULT:      -6.7      3.216      5.091
REMARK  Name = 
REMARK  11 active torsions:
REMARK  status: ('A' for Active; 'I' for Inactive)
REMARK    1  A    between atoms: C_1  and  O_2
REMARK    2  A    between atoms: O_2  and  C_3
REMARK    3  A    between atoms: C_5  and  C_6
REMARK    4  A    between atoms: C_7  and  C_8
REMARK    5  A    between atoms: C_7  and  C_10
REMARK    6  A    between atoms: C_13  and  C_14
REMARK    7  A    between atoms: C_14  and  S_15
REMARK    8  A    between atoms: S_15  and  C_16
REMARK    9  A    between atoms: C_21  and  C_22
REMARK   10  A    between atoms: C_22  and  O_24
REMARK   11  A    between atoms: C_25  and  O_26
REMARK                            x       y       z     vdW  Elec       q    Type
REMARK                         _______ _______ _______ _____ _____    ______ ____
ROOT
ATOM      1  C   UNL     1       2.928   4.238  19.287  0.00  0.00    +0.000 A 
ATOM      2  C   UNL     1       3.771   4.192  18.169  0.00  0.00    +0.000 A 
ATOM      3  C   UNL     1       4.038   5.339  17.423  0.00  0.00    +0.000 A 
ATOM      4  C   UNL     1       3.468   6.560  17.809  0.00  0.00    +0.000 A 
ATOM      5  C   UNL     1       2.654   6.661  18.960  0.00  0.00    +0.000 A 
ATOM      6  C   UNL     1       2.353   5.466  19.658  0.00  0.00    +0.000 A 
ENDROOT
BRANCH   1   8
ATOM      7  C   UNL     1       1.773   2.135  19.446  0.00  0.00    +0.000 C 
ATOM      8  O   UNL     1       2.793   3.017  19.896  0.00  0.00    +0.000 OA
ENDBRANCH   1   8
BRANCH   3   9
ATOM      9  C   UNL     1       4.970   5.277  16.290  0.00  0.00    +0.000 C 
ATOM     10  C   UNL     1       6.308   5.118  16.357  0.00  0.00    +0.000 C 
BRANCH  10  11
ATOM     11  C   UNL     1       6.996   4.945  17.592  0.00  0.00    +0.000 C 
ATOM     12  N   UNL     1       7.548   4.805  18.606  0.00  0.00    +0.000 NA
ENDBRANCH  10  11
BRANCH  10  13
ATOM     13  C   UNL     1       7.067   5.100  15.150  0.00  0.00    +0.000 C 
ATOM     14  N   UNL     1       7.704   5.094  14.180  0.00  0.00    +0.000 NA
ENDBRANCH  10  13
ENDBRANCH   3   9
BRANCH   6  15
ATOM     15  O   UNL     1       1.476   5.485  20.709  0.00  0.00    +0.000 OA
ATOM     16  H   UNL     1       0.682   4.977  20.475  0.00  0.00    +0.000 HD
ENDBRANCH   6  15
BRANCH   5  17
ATOM     17  C   UNL     1       2.123   8.045  19.338  0.00  0.00    +0.000 C 
BRANCH  17  18
ATOM     18  S   UNL     1       1.696   9.072  17.859  0.00  0.00    +0.000 S 
BRANCH  18  19
ATOM     19  C   UNL     1       1.561  10.735  18.511  0.00  0.00    +0.000 A 
ATOM     20  C   UNL     1       2.480  11.676  18.009  0.00  0.00    +0.000 A 
ATOM     21  C   UNL     1       2.370  13.035  18.322  0.00  0.00    +0.000 A 
ATOM     22  C   UNL     1       1.350  13.476  19.156  0.00  0.00    +0.000 A 
ATOM     23  C   UNL     1       0.432  12.560  19.666  0.00  0.00    +0.000 A 
ATOM     24  C   UNL     1       0.512  11.195  19.326  0.00  0.00    +0.000 A 
BRANCH  24  25
ATOM     25  C   UNL     1      -0.590  10.344  19.840  0.00  0.00    +0.000 C 
ATOM     26  O   UNL     1      -0.635   9.963  20.998  0.00  0.00    +0.000 OA
BRANCH  25  27
ATOM     27  O   UNL     1      -1.574  10.103  18.952  0.00  0.00    +0.000 OA
ATOM     28  H   UNL     1      -1.963  10.909  18.552  0.00  0.00    +0.000 HD
ENDBRANCH  25  27
ENDBRANCH  24  25
ENDBRANCH  18  19
ENDBRANCH  17  18
ENDBRANCH   5  17
TORSDOF 10
ENDMDL
MODEL 7
REMARK VINA RESULT:      -6.5      3.442      5.694
REMARK  Name = 
REMARK  11 active torsions:
REMARK  status: ('A' for Active; 'I' for Inactive)
REMARK    1  A    between atoms: C_1  and  O_2
REMARK    2  A    between atoms: O_2  and  C_3
REMARK    3  A    between atoms: C_5  and  C_6
REMARK    4  A    between atoms: C_7  and  C_8
REMARK    5  A    between atoms: C_7  and  C_10
REMARK    6  A    between atoms: C_13  and  C_14
REMARK    7  A    between atoms: C_14  and  S_15
REMARK    8  A    between atoms: S_15  and  C_16
REMARK    9  A    between atoms: C_21  and  C_22
REMARK   10  A    between atoms: C_22  and  O_24
REMARK   11  A    between atoms: C_25  and  O_26
REMARK                            x       y       z     vdW  Elec       q    Type
REMARK                         _______ _______ _______ _____ _____    ______ ____
ROOT
ATOM      1  C   UNL     1       3.907   2.632  19.425  0.00  0.00    +0.000 A 
ATOM      2  C   UNL     1       4.550   2.968  18.226  0.00  0.00    +0.000 A 
ATOM      3  C   UNL     1       4.372   4.222  17.643  0.00  0.00    +0.000 A 
ATOM      4  C   UNL     1       3.554   5.166  18.277  0.00  0.00    +0.000 A 
ATOM      5  C   UNL     1       2.929   4.888  19.514  0.00  0.00    +0.000 A 
ATOM      6  C   UNL     1       3.079   3.584  20.046  0.00  0.00    +0.000 A 
ENDROOT
BRANCH   1   8
ATOM      7  C   UNL     1       5.182   1.194  20.869  0.00  0.00    +0.000 C 
ATOM      8  O   UNL     1       4.210   1.363  19.847  0.00  0.00    +0.000 OA
ENDBRANCH   1   8
BRANCH   3   9
ATOM      9  C   UNL     1       5.101   4.571  16.417  0.00  0.00    +0.000 C 
ATOM     10  C   UNL     1       6.430   4.774  16.302  0.00  0.00    +0.000 C 
BRANCH  10  11
ATOM     11  C   UNL     1       7.323   4.629  17.400  0.00  0.00    +0.000 C 
ATOM     12  N   UNL     1       8.062   4.512  18.291  0.00  0.00    +0.000 NA
ENDBRANCH  10  11
BRANCH  10  13
ATOM     13  C   UNL     1       6.970   5.128  15.030  0.00  0.00    +0.000 C 
ATOM     14  N   UNL     1       7.423   5.395  13.996  0.00  0.00    +0.000 NA
ENDBRANCH  10  13
ENDBRANCH   3   9
BRANCH   6  15
ATOM     15  O   UNL     1       2.403   3.220  21.178  0.00  0.00    +0.000 OA
ATOM     16  H   UNL     1       1.598   3.758  21.260  0.00  0.00    +0.000 HD
ENDBRANCH   6  15
BRANCH   5  17
ATOM     17  C   UNL     1       2.100   5.999  20.161  0.00  0.00    +0.000 C 
BRANCH  17  18
ATOM     18  S   UNL     1       2.232   7.605  19.252  0.00  0.00    +0.000 S 
BRANCH  18  19
ATOM     19  C   UNL     1       1.154   8.709  20.163  0.00  0.00    +0.000 A 
ATOM     20  C   UNL     1       1.241   8.644  21.566  0.00  0.00    +0.000 A 
ATOM     21  C   UNL     1       0.568   9.563  22.378  0.00  0.00    +0.000 A 
ATOM     22  C   UNL     1      -0.217  10.555  21.802  0.00  0.00    +0.000 A 
ATOM     23  C   UNL     1      -0.318  10.634  20.414  0.00  0.00    +0.000 A 
ATOM     24  C   UNL     1       0.385   9.736  19.588  0.00  0.00    +0.000 A 
BRANCH  24  25
ATOM     25  C   UNL     1       0.285   9.997  18.131  0.00  0.00    +0.000 C 
ATOM     26  O   UNL     1      -0.777   9.961  17.532  0.00  0.00    +0.000 OA
BRANCH  25  27
ATOM     27  O   UNL     1       1.442  10.363  17.545  0.00  0.00    +0.000 OA
ATOM     28  H   UNL     1       1.482  11.306  17.285  0.00  0.00    +0.000 HD
ENDBRANCH  25  27
ENDBRANCH  24  25
ENDBRANCH  18  19
ENDBRANCH  17  18
ENDBRANCH   5  17
TORSDOF 10
ENDMDL
MODEL 8
REMARK VINA RESULT:      -6.5      2.561      7.439
REMARK  Name = 
REMARK  11 active torsions:
REMARK  status: ('A' for Active; 'I' for Inactive)
REMARK    1  A    between atoms: C_1  and  O_2
REMARK    2  A    between atoms: O_2  and  C_3
REMARK    3  A    between atoms: C_5  and  C_6
REMARK    4  A    between atoms: C_7  and  C_8
REMARK    5  A    between atoms: C_7  and  C_10
REMARK    6  A    between atoms: C_13  and  C_14
REMARK    7  A    between atoms: C_14  and  S_15
REMARK    8  A    between atoms: S_15  and  C_16
REMARK    9  A    between atoms: C_21  and  C_22
REMARK   10  A    between atoms: C_22  and  O_24
REMARK   11  A    between atoms: C_25  and  O_26
REMARK                            x       y       z     vdW  Elec       q    Type
REMARK                         _______ _______ _______ _____ _____    ______ ____
ROOT
ATOM      1  C   UNL     1       1.247   8.920  19.601  0.00  0.00    +0.000 A 
ATOM      2  C   UNL     1       1.214   7.746  20.365  0.00  0.00    +0.000 A 
ATOM      3  C   UNL     1       1.944   6.620  19.985  0.00  0.00    +0.000 A 
ATOM      4  C   UNL     1       2.738   6.673  18.831  0.00  0.00    +0.000 A 
ATOM      5  C   UNL     1       2.842   7.854  18.061  0.00  0.00    +0.000 A 
ATOM      6  C   UNL     1       2.039   8.956  18.440  0.00  0.00    +0.000 A 
ENDROOT
BRANCH   1   8
ATOM      7  C   UNL     1       0.609  10.222  21.519  0.00  0.00    +0.000 C 
ATOM      8  O   UNL     1       0.474   9.918  20.137  0.00  0.00    +0.000 OA
ENDBRANCH   1   8
BRANCH   3   9
ATOM      9  C   UNL     1       1.938   5.421  20.832  0.00  0.00    +0.000 C 
ATOM     10  C   UNL     1       1.664   4.160  20.439  0.00  0.00    +0.000 C 
BRANCH  10  11
ATOM     11  C   UNL     1       1.373   3.828  19.086  0.00  0.00    +0.000 C 
ATOM     12  N   UNL     1       1.126   3.554  17.983  0.00  0.00    +0.000 NA
ENDBRANCH  10  11
BRANCH  10  13
ATOM     13  C   UNL     1       1.683   3.112  21.406  0.00  0.00    +0.000 C 
ATOM     14  N   UNL     1       1.674   2.261  22.195  0.00  0.00    +0.000 NA
ENDBRANCH  10  13
ENDBRANCH   3   9
BRANCH   6  15
ATOM     15  O   UNL     1       2.008  10.084  17.666  0.00  0.00    +0.000 OA
ATOM     16  H   UNL     1       1.318  10.683  17.996  0.00  0.00    +0.000 HD
ENDBRANCH   6  15
BRANCH   5  17
ATOM     17  C   UNL     1       3.778   7.836  16.851  0.00  0.00    +0.000 C 
BRANCH  17  18
ATOM     18  S   UNL     1       5.476   7.236  17.275  0.00  0.00    +0.000 S 
BRANCH  18  19
ATOM     19  C   UNL     1       5.680   5.766  16.271  0.00  0.00    +0.000 A 
ATOM     20  C   UNL     1       5.350   5.894  14.909  0.00  0.00    +0.000 A 
ATOM     21  C   UNL     1       5.617   4.865  13.999  0.00  0.00    +0.000 A 
ATOM     22  C   UNL     1       6.204   3.684  14.437  0.00  0.00    +0.000 A 
ATOM     23  C   UNL     1       6.535   3.537  15.783  0.00  0.00    +0.000 A 
ATOM     24  C   UNL     1       6.304   4.582  16.699  0.00  0.00    +0.000 A 
BRANCH  24  25
ATOM     25  C   UNL     1       6.806   4.345  18.076  0.00  0.00    +0.000 C 
ATOM     26  O   UNL     1       7.921   4.685  18.433  0.00  0.00    +0.000 OA
BRANCH  25  27
ATOM     27  O   UNL     1       5.901   3.808  18.918  0.00  0.00    +0.000 OA
ATOM     28  H   UNL     1       6.284   3.440  19.741  0.00  0.00    +0.000 HD
ENDBRANCH  25  27
ENDBRANCH  24  25
ENDBRANCH  18  19
ENDBRANCH  17  18
ENDBRANCH   5  17
TORSDOF 10
ENDMDL
MODEL 9
REMARK VINA RESULT:      -6.5      3.274      5.354
REMARK  Name = 
REMARK  11 active torsions:
REMARK  status: ('A' for Active; 'I' for Inactive)
REMARK    1  A    between atoms: C_1  and  O_2
REMARK    2  A    between atoms: O_2  and  C_3
REMARK    3  A    between atoms: C_5  and  C_6
REMARK    4  A    between atoms: C_7  and  C_8
REMARK    5  A    between atoms: C_7  and  C_10
REMARK    6  A    between atoms: C_13  and  C_14
REMARK    7  A    between atoms: C_14  and  S_15
REMARK    8  A    between atoms: S_15  and  C_16
REMARK    9  A    between atoms: C_21  and  C_22
REMARK   10  A    between atoms: C_22  and  O_24
REMARK   11  A    between atoms: C_25  and  O_26
REMARK                            x       y       z     vdW  Elec       q    Type
REMARK                         _______ _______ _______ _____ _____    ______ ____
ROOT
ATOM      1  C   UNL     1       3.593   2.885  20.191  0.00  0.00    +0.000 A 
ATOM      2  C   UNL     1       4.318   3.158  19.025  0.00  0.00    +0.000 A 
ATOM      3  C   UNL     1       4.143   4.358  18.334  0.00  0.00    +0.000 A 
ATOM      4  C   UNL     1       3.242   5.311  18.828  0.00  0.00    +0.000 A 
ATOM      5  C   UNL     1       2.529   5.098  20.030  0.00  0.00    +0.000 A 
ATOM      6  C   UNL     1       2.684   3.845  20.671  0.00  0.00    +0.000 A 
ENDROOT
BRANCH   1   8
ATOM      7  C   UNL     1       5.275   1.324  20.909  0.00  0.00    +0.000 C 
ATOM      8  O   UNL     1       3.906   1.664  20.732  0.00  0.00    +0.000 OA
ENDBRANCH   1   8
BRANCH   3   9
ATOM      9  C   UNL     1       4.956   4.646  17.146  0.00  0.00    +0.000 C 
ATOM     10  C   UNL     1       6.250   5.028  17.129  0.00  0.00    +0.000 C 
BRANCH  10  11
ATOM     11  C   UNL     1       7.021   5.164  18.318  0.00  0.00    +0.000 C 
ATOM     12  N   UNL     1       7.651   5.264  19.291  0.00  0.00    +0.000 NA
ENDBRANCH  10  11
BRANCH  10  13
ATOM     13  C   UNL     1       6.881   5.286  15.877  0.00  0.00    +0.000 C 
ATOM     14  N   UNL     1       7.415   5.483  14.866  0.00  0.00    +0.000 NA
ENDBRANCH  10  13
ENDBRANCH   3   9
BRANCH   6  15
ATOM     15  O   UNL     1       1.931   3.537  21.772  0.00  0.00    +0.000 OA
ATOM     16  H   UNL     1       2.375   3.870  22.569  0.00  0.00    +0.000 HD
ENDBRANCH   6  15
BRANCH   5  17
ATOM     17  C   UNL     1       1.612   6.218  20.523  0.00  0.00    +0.000 C 
BRANCH  17  18
ATOM     18  S   UNL     1       2.010   7.854  19.755  0.00  0.00    +0.000 S 
BRANCH  18  19
ATOM     19  C   UNL     1       0.941   9.007  20.612  0.00  0.00    +0.000 A 
ATOM     20  C   UNL     1       0.661   8.712  21.960  0.00  0.00    +0.000 A 
ATOM     21  C   UNL     1      -0.028   9.618  22.773  0.00  0.00    +0.000 A 
ATOM     22  C   UNL     1      -0.465  10.829  22.250  0.00  0.00    +0.000 A 
ATOM     23  C   UNL     1      -0.201  11.139  20.917  0.00  0.00    +0.000 A 
ATOM     24  C   UNL     1       0.525  10.249  20.101  0.00  0.00    +0.000 A 
BRANCH  24  25
ATOM     25  C   UNL     1       0.838  10.745  18.737  0.00  0.00    +0.000 C 
ATOM     26  O   UNL     1       1.715  11.565  18.525  0.00  0.00    +0.000 OA
BRANCH  25  27
ATOM     27  O   UNL     1       0.138  10.152  17.750  0.00  0.00    +0.000 OA
ATOM     28  H   UNL     1       0.679   9.608  17.141  0.00  0.00    +0.000 HD
ENDBRANCH  25  27
ENDBRANCH  24  25
ENDBRANCH  18  19
ENDBRANCH  17  18
ENDBRANCH   5  17
TORSDOF 10
ENDMDL
