MODEL 1
REMARK VINA RESULT:      -7.4      0.000      0.000
REMARK  Name = 
REMARK  6 active torsions:
REMARK  status: ('A' for Active; 'I' for Inactive)
REMARK    1  A    between atoms: C_1  and  O_2
REMARK    2  A    between atoms: O_2  and  C_3
REMARK    3  A    between atoms: C_5  and  C_6
REMARK    4  A    between atoms: N_9  and  C_10
REMARK    5  A    between atoms: C_14  and  N_15
REMARK    6  A    between atoms: N_24  and  C_25
REMARK                            x       y       z     vdW  Elec       q    Type
REMARK                         _______ _______ _______ _____ _____    ______ ____
ROOT
ATOM      1  N   UNL     1       1.677   8.276  19.257  0.00  0.00    +0.000 N 
ATOM      2  C   UNL     1       1.947   6.898  19.391  0.00  0.00    +0.000 A 
ATOM      3  N   UNL     1       1.026   6.057  19.887  0.00  0.00    +0.000 NA
ATOM      4  C   UNL     1       1.414   4.814  20.223  0.00  0.00    +0.000 A 
ATOM      5  C   UNL     1       2.702   4.354  20.062  0.00  0.00    +0.000 A 
ATOM      6  C   UNL     1       3.122   3.094  20.512  0.00  0.00    +0.000 A 
ATOM      7  C   UNL     1       4.441   2.753  20.306  0.00  0.00    +0.000 A 
ATOM      8  N   UNL     1       5.316   3.541  19.651  0.00  0.00    +0.000 NA
ATOM      9  C   UNL     1       4.887   4.761  19.231  0.00  0.00    +0.000 A 
ATOM     10  N   UNL     1       5.836   5.636  18.635  0.00  0.00    +0.000 N 
ATOM     11  C   UNL     1       3.579   5.245  19.445  0.00  0.00    +0.000 A 
ATOM     12  N   UNL     1       3.195   6.502  19.093  0.00  0.00    +0.000 NA
ATOM     13  H   UNL     1       2.558   8.737  19.052  0.00  0.00    +0.000 HD
ATOM     14  H   UNL     1       5.346   6.380  18.137  0.00  0.00    +0.000 HD
ENDROOT
BRANCH   1  20
ATOM     15  C   UNL     1      -0.094   9.968  19.607  0.00  0.00    +0.000 A 
ATOM     16  C   UNL     1      -0.736  10.870  20.474  0.00  0.00    +0.000 A 
ATOM     17  C   UNL     1      -0.541  10.813  21.850  0.00  0.00    +0.000 A 
ATOM     18  C   UNL     1       0.264   9.806  22.371  0.00  0.00    +0.000 A 
ATOM     19  C   UNL     1       0.947   8.942  21.513  0.00  0.00    +0.000 A 
ATOM     20  C   UNL     1       0.867   9.060  20.118  0.00  0.00    +0.000 A 
BRANCH  17  21
ATOM     21  C   UNL     1      -1.137  11.826  22.689  0.00  0.00    +0.000 A 
ATOM     22  C   UNL     1      -2.345  11.849  23.417  0.00  0.00    +0.000 A 
ATOM     23  N   UNL     1      -2.581  13.033  23.986  0.00  0.00    +0.000 NA
ATOM     24  N   UNL     1      -1.531  13.778  23.595  0.00  0.00    +0.000 N 
ATOM     25  C   UNL     1      -1.418  15.160  23.991  0.00  0.00    +0.000 C 
ATOM     26  C   UNL     1      -0.645  13.106  22.807  0.00  0.00    +0.000 A 
ENDBRANCH  17  21
BRANCH  15  28
ATOM     27  C   UNL     1      -1.715  10.309  17.935  0.00  0.00    +0.000 C 
ATOM     28  O   UNL     1      -0.350   9.986  18.251  0.00  0.00    +0.000 OA
ENDBRANCH  15  28
ENDBRANCH   1  20
BRANCH  10  29
ATOM     29  C   UNL     1       7.058   5.191  18.018  0.00  0.00    +0.000 C 
ATOM     30  C   UNL     1       6.886   4.539  16.640  0.00  0.00    +0.000 C 
ATOM     31  O   UNL     1       7.561   5.636  15.976  0.00  0.00    +0.000 OA
ATOM     32  C   UNL     1       7.765   6.309  17.240  0.00  0.00    +0.000 C 
ENDBRANCH  10  29
TORSDOF 4
ENDMDL
MODEL 2
REMARK VINA RESULT:      -7.3      2.756     10.524
REMARK  Name = 
REMARK  6 active torsions:
REMARK  status: ('A' for Active; 'I' for Inactive)
REMARK    1  A    between atoms: C_1  and  O_2
REMARK    2  A    between atoms: O_2  and  C_3
REMARK    3  A    between atoms: C_5  and  C_6
REMARK    4  A    between atoms: N_9  and  C_10
REMARK    5  A    between atoms: C_14  and  N_15
REMARK    6  A    between atoms: N_24  and  C_25
REMARK                            x       y       z     vdW  Elec       q    Type
REMARK                         _______ _______ _______ _____ _____    ______ ____
ROOT
ATOM      1  N   UNL     1      -1.093  10.662  20.215  0.00  0.00    +0.000 N 
ATOM      2  C   UNL     1      -1.144  11.808  21.035  0.00  0.00    +0.000 A 
ATOM      3  N   UNL     1      -0.029  12.486  21.349  0.00  0.00    +0.000 NA
ATOM      4  C   UNL     1      -0.098  13.410  22.323  0.00  0.00    +0.000 A 
ATOM      5  C   UNL     1      -1.260  13.714  22.997  0.00  0.00    +0.000 A 
ATOM      6  C   UNL     1      -1.300  14.602  24.082  0.00  0.00    +0.000 A 
ATOM      7  C   UNL     1      -2.521  14.812  24.684  0.00  0.00    +0.000 A 
ATOM      8  N   UNL     1      -3.669  14.256  24.249  0.00  0.00    +0.000 NA
ATOM      9  C   UNL     1      -3.602  13.392  23.200  0.00  0.00    +0.000 A 
ATOM     10  N   UNL     1      -4.792  12.722  22.807  0.00  0.00    +0.000 N 
ATOM     11  C   UNL     1      -2.399  13.048  22.548  0.00  0.00    +0.000 A 
ATOM     12  N   UNL     1      -2.343  12.117  21.557  0.00  0.00    +0.000 NA
ATOM     13  H   UNL     1      -2.002  10.212  20.270  0.00  0.00    +0.000 HD
ATOM     14  H   UNL     1      -4.669  12.328  21.874  0.00  0.00    +0.000 HD
ENDROOT
BRANCH   1  20
ATOM     15  C   UNL     1       0.892   9.694  19.099  0.00  0.00    +0.000 A 
ATOM     16  C   UNL     1       1.794   8.623  18.976  0.00  0.00    +0.000 A 
ATOM     17  C   UNL     1       1.876   7.632  19.948  0.00  0.00    +0.000 A 
ATOM     18  C   UNL     1       1.085   7.742  21.086  0.00  0.00    +0.000 A 
ATOM     19  C   UNL     1       0.149   8.772  21.189  0.00  0.00    +0.000 A 
ATOM     20  C   UNL     1      -0.042   9.712  20.165  0.00  0.00    +0.000 A 
BRANCH  17  21
ATOM     21  C   UNL     1       2.741   6.497  19.725  0.00  0.00    +0.000 A 
ATOM     22  C   UNL     1       3.845   6.312  18.866  0.00  0.00    +0.000 A 
ATOM     23  N   UNL     1       4.309   5.062  18.886  0.00  0.00    +0.000 NA
ATOM     24  N   UNL     1       3.479   4.437  19.742  0.00  0.00    +0.000 N 
ATOM     25  C   UNL     1       3.635   3.032  20.029  0.00  0.00    +0.000 C 
ATOM     26  C   UNL     1       2.517   5.248  20.262  0.00  0.00    +0.000 A 
ENDBRANCH  17  21
BRANCH  15  28
ATOM     27  C   UNL     1       1.880  11.709  18.389  0.00  0.00    +0.000 C 
ATOM     28  O   UNL     1       0.868  10.711  18.167  0.00  0.00    +0.000 OA
ENDBRANCH  15  28
ENDBRANCH   1  20
BRANCH  10  29
ATOM     29  C   UNL     1      -6.117  13.210  23.092  0.00  0.00    +0.000 C 
ATOM     30  C   UNL     1      -7.245  12.499  22.332  0.00  0.00    +0.000 C 
ATOM     31  O   UNL     1      -7.764  11.908  23.549  0.00  0.00    +0.000 OA
ATOM     32  C   UNL     1      -6.732  12.550  24.333  0.00  0.00    +0.000 C 
ENDBRANCH  10  29
TORSDOF 4
ENDMDL
MODEL 3
REMARK VINA RESULT:      -7.3      2.769     10.126
REMARK  Name = 
REMARK  6 active torsions:
REMARK  status: ('A' for Active; 'I' for Inactive)
REMARK    1  A    between atoms: C_1  and  O_2
REMARK    2  A    between atoms: O_2  and  C_3
REMARK    3  A    between atoms: C_5  and  C_6
REMARK    4  A    between atoms: N_9  and  C_10
REMARK    5  A    between atoms: C_14  and  N_15
REMARK    6  A    between atoms: N_24  and  C_25
REMARK                            x       y       z     vdW  Elec       q    Type
REMARK                         _______ _______ _______ _____ _____    ______ ____
ROOT
ATOM      1  N   UNL     1       0.308  10.619  19.392  0.00  0.00    +0.000 N 
ATOM      2  C   UNL     1       0.827  11.888  19.727  0.00  0.00    +0.000 A 
ATOM      3  N   UNL     1       1.994  12.314  19.219  0.00  0.00    +0.000 NA
ATOM      4  C   UNL     1       2.559  13.410  19.755  0.00  0.00    +0.000 A 
ATOM      5  C   UNL     1       1.990  14.129  20.783  0.00  0.00    +0.000 A 
ATOM      6  C   UNL     1       2.636  15.206  21.407  0.00  0.00    +0.000 A 
ATOM      7  C   UNL     1       1.970  15.837  22.434  0.00  0.00    +0.000 A 
ATOM      8  N   UNL     1       0.722  15.506  22.822  0.00  0.00    +0.000 NA
ATOM      9  C   UNL     1       0.120  14.454  22.207  0.00  0.00    +0.000 A 
ATOM     10  N   UNL     1      -1.152  14.036  22.685  0.00  0.00    +0.000 N 
ATOM     11  C   UNL     1       0.731  13.690  21.189  0.00  0.00    +0.000 A 
ATOM     12  N   UNL     1       0.145  12.589  20.647  0.00  0.00    +0.000 NA
ATOM     13  H   UNL     1      -0.463  10.433  20.026  0.00  0.00    +0.000 HD
ATOM     14  H   UNL     1      -1.597  13.436  21.990  0.00  0.00    +0.000 HD
ENDROOT
BRANCH   1  20
ATOM     15  C   UNL     1       1.245   8.446  20.113  0.00  0.00    +0.000 A 
ATOM     16  C   UNL     1       2.158   7.400  19.887  0.00  0.00    +0.000 A 
ATOM     17  C   UNL     1       2.801   7.254  18.663  0.00  0.00    +0.000 A 
ATOM     18  C   UNL     1       2.488   8.133  17.632  0.00  0.00    +0.000 A 
ATOM     19  C   UNL     1       1.625   9.205  17.866  0.00  0.00    +0.000 A 
ATOM     20  C   UNL     1       1.062   9.447  19.127  0.00  0.00    +0.000 A 
BRANCH  17  21
ATOM     21  C   UNL     1       3.808   6.229  18.514  0.00  0.00    +0.000 A 
ATOM     22  C   UNL     1       4.193   5.163  19.354  0.00  0.00    +0.000 A 
ATOM     23  N   UNL     1       5.253   4.499  18.890  0.00  0.00    +0.000 NA
ATOM     24  N   UNL     1       5.564   5.163  17.762  0.00  0.00    +0.000 N 
ATOM     25  C   UNL     1       6.691   4.762  16.956  0.00  0.00    +0.000 C 
ATOM     26  C   UNL     1       4.738   6.213  17.499  0.00  0.00    +0.000 A 
ENDBRANCH  17  21
BRANCH  15  28
ATOM     27  C   UNL     1       1.324   9.152  22.357  0.00  0.00    +0.000 C 
ATOM     28  O   UNL     1       0.557   8.540  21.305  0.00  0.00    +0.000 OA
ENDBRANCH  15  28
ENDBRANCH   1  20
BRANCH  10  29
ATOM     29  C   UNL     1      -2.050  14.889  23.420  0.00  0.00    +0.000 C 
ATOM     30  C   UNL     1      -3.302  15.325  22.648  0.00  0.00    +0.000 C 
ATOM     31  O   UNL     1      -4.170  14.545  23.507  0.00  0.00    +0.000 OA
ATOM     32  C   UNL     1      -3.037  14.095  24.286  0.00  0.00    +0.000 C 
ENDBRANCH  10  29
TORSDOF 4
ENDMDL
MODEL 4
REMARK VINA RESULT:      -7.3      2.969     10.171
REMARK  Name = 
REMARK  6 active torsions:
REMARK  status: ('A' for Active; 'I' for Inactive)
REMARK    1  A    between atoms: C_1  and  O_2
REMARK    2  A    between atoms: O_2  and  C_3
REMARK    3  A    between atoms: C_5  and  C_6
REMARK    4  A    between atoms: N_9  and  C_10
REMARK    5  A    between atoms: C_14  and  N_15
REMARK    6  A    between atoms: N_24  and  C_25
REMARK                            x       y       z     vdW  Elec       q    Type
REMARK                         _______ _______ _______ _____ _____    ______ ____
ROOT
ATOM      1  N   UNL     1       0.236  11.059  19.592  0.00  0.00    +0.000 N 
ATOM      2  C   UNL     1       0.874  12.278  19.904  0.00  0.00    +0.000 A 
ATOM      3  N   UNL     1       2.061  12.596  19.364  0.00  0.00    +0.000 NA
ATOM      4  C   UNL     1       2.735  13.639  19.878  0.00  0.00    +0.000 A 
ATOM      5  C   UNL     1       2.259  14.411  20.915  0.00  0.00    +0.000 A 
ATOM      6  C   UNL     1       3.014  15.430  21.515  0.00  0.00    +0.000 A 
ATOM      7  C   UNL     1       2.433  16.122  22.554  0.00  0.00    +0.000 A 
ATOM      8  N   UNL     1       1.172  15.906  22.976  0.00  0.00    +0.000 NA
ATOM      9  C   UNL     1       0.463  14.908  22.383  0.00  0.00    +0.000 A 
ATOM     10  N   UNL     1      -0.828  14.608  22.897  0.00  0.00    +0.000 N 
ATOM     11  C   UNL     1       0.977  14.089  21.356  0.00  0.00    +0.000 A 
ATOM     12  N   UNL     1       0.281  13.041  20.837  0.00  0.00    +0.000 NA
ATOM     13  H   UNL     1      -0.532  10.945  20.247  0.00  0.00    +0.000 HD
ATOM     14  H   UNL     1      -1.343  14.047  22.217  0.00  0.00    +0.000 HD
ENDROOT
BRANCH   1  20
ATOM     15  C   UNL     1       1.049   8.838  20.321  0.00  0.00    +0.000 A 
ATOM     16  C   UNL     1       1.859   7.717  20.069  0.00  0.00    +0.000 A 
ATOM     17  C   UNL     1       2.401   7.485  18.810  0.00  0.00    +0.000 A 
ATOM     18  C   UNL     1       2.086   8.357  17.773  0.00  0.00    +0.000 A 
ATOM     19  C   UNL     1       1.328   9.501  18.029  0.00  0.00    +0.000 A 
ATOM     20  C   UNL     1       0.875   9.823  19.317  0.00  0.00    +0.000 A 
BRANCH  17  21
ATOM     21  C   UNL     1       3.312   6.379  18.628  0.00  0.00    +0.000 A 
ATOM     22  C   UNL     1       4.254   6.095  17.616  0.00  0.00    +0.000 A 
ATOM     23  N   UNL     1       4.827   4.900  17.767  0.00  0.00    +0.000 NA
ATOM     24  N   UNL     1       4.227   4.406  18.865  0.00  0.00    +0.000 N 
ATOM     25  C   UNL     1       4.561   3.093  19.361  0.00  0.00    +0.000 C 
ATOM     26  C   UNL     1       3.304   5.246  19.410  0.00  0.00    +0.000 A 
ENDBRANCH  17  21
BRANCH  15  28
ATOM     27  C   UNL     1       1.398   9.313  22.600  0.00  0.00    +0.000 C 
ATOM     28  O   UNL     1       0.455   9.022  21.553  0.00  0.00    +0.000 OA
ENDBRANCH  15  28
ENDBRANCH   1  20
BRANCH  10  29
ATOM     29  C   UNL     1      -1.628  15.540  23.648  0.00  0.00    +0.000 C 
ATOM     30  C   UNL     1      -3.119  15.187  23.739  0.00  0.00    +0.000 C 
ATOM     31  O   UNL     1      -3.024  14.922  25.161  0.00  0.00    +0.000 OA
ATOM     32  C   UNL     1      -1.615  15.247  25.154  0.00  0.00    +0.000 C 
ENDBRANCH  10  29
TORSDOF 4
ENDMDL
MODEL 5
REMARK VINA RESULT:      -7.1      3.100     10.175
REMARK  Name = 
REMARK  6 active torsions:
REMARK  status: ('A' for Active; 'I' for Inactive)
REMARK    1  A    between atoms: C_1  and  O_2
REMARK    2  A    between atoms: O_2  and  C_3
REMARK    3  A    between atoms: C_5  and  C_6
REMARK    4  A    between atoms: N_9  and  C_10
REMARK    5  A    between atoms: C_14  and  N_15
REMARK    6  A    between atoms: N_24  and  C_25
REMARK                            x       y       z     vdW  Elec       q    Type
REMARK                         _______ _______ _______ _____ _____    ______ ____
ROOT
ATOM      1  N   UNL     1      -0.298  10.826  19.350  0.00  0.00    +0.000 N 
ATOM      2  C   UNL     1      -0.866  11.631  20.359  0.00  0.00    +0.000 A 
ATOM      3  N   UNL     1      -0.199  11.895  21.493  0.00  0.00    +0.000 NA
ATOM      4  C   UNL     1      -0.873  12.451  22.515  0.00  0.00    +0.000 A 
ATOM      5  C   UNL     1      -2.208  12.786  22.447  0.00  0.00    +0.000 A 
ATOM      6  C   UNL     1      -2.928  13.268  23.550  0.00  0.00    +0.000 A 
ATOM      7  C   UNL     1      -4.262  13.554  23.360  0.00  0.00    +0.000 A 
ATOM      8  N   UNL     1      -4.881  13.448  22.168  0.00  0.00    +0.000 NA
ATOM      9  C   UNL     1      -4.163  12.971  21.116  0.00  0.00    +0.000 A 
ATOM     10  N   UNL     1      -4.840  12.757  19.884  0.00  0.00    +0.000 N 
ATOM     11  C   UNL     1      -2.810  12.582  21.207  0.00  0.00    +0.000 A 
ATOM     12  N   UNL     1      -2.134  12.028  20.163  0.00  0.00    +0.000 NA
ATOM     13  H   UNL     1      -1.036  10.607  18.688  0.00  0.00    +0.000 HD
ATOM     14  H   UNL     1      -4.157  12.662  19.132  0.00  0.00    +0.000 HD
ENDROOT
BRANCH   1  20
ATOM     15  C   UNL     1       1.546   9.367  18.581  0.00  0.00    +0.000 A 
ATOM     16  C   UNL     1       2.252   8.158  18.713  0.00  0.00    +0.000 A 
ATOM     17  C   UNL     1       2.105   7.354  19.838  0.00  0.00    +0.000 A 
ATOM     18  C   UNL     1       1.283   7.790  20.871  0.00  0.00    +0.000 A 
ATOM     19  C   UNL     1       0.538   8.961  20.724  0.00  0.00    +0.000 A 
ATOM     20  C   UNL     1       0.572   9.724  19.547  0.00  0.00    +0.000 A 
BRANCH  17  21
ATOM     21  C   UNL     1       2.769   6.072  19.879  0.00  0.00    +0.000 A 
ATOM     22  C   UNL     1       3.890   5.572  19.182  0.00  0.00    +0.000 A 
ATOM     23  N   UNL     1       4.120   4.283  19.435  0.00  0.00    +0.000 NA
ATOM     24  N   UNL     1       3.124   3.950  20.276  0.00  0.00    +0.000 N 
ATOM     25  C   UNL     1       3.002   2.603  20.780  0.00  0.00    +0.000 C 
ATOM     26  C   UNL     1       2.282   4.981  20.563  0.00  0.00    +0.000 A 
ENDBRANCH  17  21
BRANCH  15  28
ATOM     27  C   UNL     1       2.477  11.392  17.824  0.00  0.00    +0.000 C 
ATOM     28  O   UNL     1       1.753  10.193  17.496  0.00  0.00    +0.000 OA
ENDBRANCH  15  28
ENDBRANCH   1  20
BRANCH  10  29
ATOM     29  C   UNL     1      -6.063  13.424  19.517  0.00  0.00    +0.000 C 
ATOM     30  C   UNL     1      -6.381  13.408  18.016  0.00  0.00    +0.000 C 
ATOM     31  O   UNL     1      -7.524  12.539  18.212  0.00  0.00    +0.000 OA
ATOM     32  C   UNL     1      -7.290  12.511  19.639  0.00  0.00    +0.000 C 
ENDBRANCH  10  29
TORSDOF 4
ENDMDL
MODEL 6
REMARK VINA RESULT:      -7.0      2.663     10.313
REMARK  Name = 
REMARK  6 active torsions:
REMARK  status: ('A' for Active; 'I' for Inactive)
REMARK    1  A    between atoms: C_1  and  O_2
REMARK    2  A    between atoms: O_2  and  C_3
REMARK    3  A    between atoms: C_5  and  C_6
REMARK    4  A    between atoms: N_9  and  C_10
REMARK    5  A    between atoms: C_14  and  N_15
REMARK    6  A    between atoms: N_24  and  C_25
REMARK                            x       y       z     vdW  Elec       q    Type
REMARK                         _______ _______ _______ _____ _____    ______ ____
ROOT
ATOM      1  N   UNL     1      -0.671  10.390  19.768  0.00  0.00    +0.000 N 
ATOM      2  C   UNL     1      -0.768  11.530  20.592  0.00  0.00    +0.000 A 
ATOM      3  N   UNL     1       0.331  12.176  21.013  0.00  0.00    +0.000 NA
ATOM      4  C   UNL     1       0.197  13.094  21.987  0.00  0.00    +0.000 A 
ATOM      5  C   UNL     1      -1.014  13.421  22.556  0.00  0.00    +0.000 A 
ATOM      6  C   UNL     1      -1.131  14.301  23.642  0.00  0.00    +0.000 A 
ATOM      7  C   UNL     1      -2.396  14.537  24.133  0.00  0.00    +0.000 A 
ATOM      8  N   UNL     1      -3.513  14.014  23.590  0.00  0.00    +0.000 NA
ATOM      9  C   UNL     1      -3.372  13.158  22.542  0.00  0.00    +0.000 A 
ATOM     10  N   UNL     1      -4.538  12.521  22.036  0.00  0.00    +0.000 N 
ATOM     11  C   UNL     1      -2.124  12.788  21.998  0.00  0.00    +0.000 A 
ATOM     12  N   UNL     1      -2.000  11.865  21.007  0.00  0.00    +0.000 NA
ATOM     13  H   UNL     1      -1.591   9.962  19.735  0.00  0.00    +0.000 HD
ATOM     14  H   UNL     1      -4.340  12.132  21.114  0.00  0.00    +0.000 HD
ENDROOT
BRANCH   1  20
ATOM     15  C   UNL     1       1.314   9.305  18.763  0.00  0.00    +0.000 A 
ATOM     16  C   UNL     1       2.191   8.207  18.730  0.00  0.00    +0.000 A 
ATOM     17  C   UNL     1       2.226   7.278  19.765  0.00  0.00    +0.000 A 
ATOM     18  C   UNL     1       1.413   7.480  20.874  0.00  0.00    +0.000 A 
ATOM     19  C   UNL     1       0.501   8.537  20.889  0.00  0.00    +0.000 A 
ATOM     20  C   UNL     1       0.358   9.413  19.804  0.00  0.00    +0.000 A 
BRANCH  17  21
ATOM     21  C   UNL     1       3.067   6.111  19.635  0.00  0.00    +0.000 A 
ATOM     22  C   UNL     1       4.235   5.874  18.880  0.00  0.00    +0.000 A 
ATOM     23  N   UNL     1       4.651   4.610  18.958  0.00  0.00    +0.000 NA
ATOM     24  N   UNL     1       3.728   4.028  19.744  0.00  0.00    +0.000 N 
ATOM     25  C   UNL     1       3.808   2.623  20.063  0.00  0.00    +0.000 C 
ATOM     26  C   UNL     1       2.752   4.880  20.166  0.00  0.00    +0.000 A 
ENDBRANCH  17  21
BRANCH  15  28
ATOM     27  C   UNL     1       2.265  11.329  18.028  0.00  0.00    +0.000 C 
ATOM     28  O   UNL     1       1.337  10.261  17.768  0.00  0.00    +0.000 OA
ENDBRANCH  15  28
ENDBRANCH   1  20
BRANCH  10  29
ATOM     29  C   UNL     1      -5.871  13.041  22.205  0.00  0.00    +0.000 C 
ATOM     30  C   UNL     1      -6.270  14.133  21.203  0.00  0.00    +0.000 C 
ATOM     31  O   UNL     1      -7.246  13.270  20.569  0.00  0.00    +0.000 OA
ATOM     32  C   UNL     1      -6.927  12.195  21.482  0.00  0.00    +0.000 C 
ENDBRANCH  10  29
TORSDOF 4
ENDMDL
MODEL 7
REMARK VINA RESULT:      -7.0      3.468     10.043
REMARK  Name = 
REMARK  6 active torsions:
REMARK  status: ('A' for Active; 'I' for Inactive)
REMARK    1  A    between atoms: C_1  and  O_2
REMARK    2  A    between atoms: O_2  and  C_3
REMARK    3  A    between atoms: C_5  and  C_6
REMARK    4  A    between atoms: N_9  and  C_10
REMARK    5  A    between atoms: C_14  and  N_15
REMARK    6  A    between atoms: N_24  and  C_25
REMARK                            x       y       z     vdW  Elec       q    Type
REMARK                         _______ _______ _______ _____ _____    ______ ____
ROOT
ATOM      1  N   UNL     1       0.545  10.873  18.617  0.00  0.00    +0.000 N 
ATOM      2  C   UNL     1       1.237  12.102  18.643  0.00  0.00    +0.000 A 
ATOM      3  N   UNL     1       2.478  12.208  18.143  0.00  0.00    +0.000 NA
ATOM      4  C   UNL     1       3.179  13.323  18.414  0.00  0.00    +0.000 A 
ATOM      5  C   UNL     1       2.681  14.370  19.157  0.00  0.00    +0.000 A 
ATOM      6  C   UNL     1       3.455  15.480  19.523  0.00  0.00    +0.000 A 
ATOM      7  C   UNL     1       2.846  16.456  20.281  0.00  0.00    +0.000 A 
ATOM      8  N   UNL     1       1.546  16.418  20.633  0.00  0.00    +0.000 NA
ATOM      9  C   UNL     1       0.818  15.327  20.273  0.00  0.00    +0.000 A 
ATOM     10  N   UNL     1      -0.523  15.235  20.733  0.00  0.00    +0.000 N 
ATOM     11  C   UNL     1       1.351  14.236  19.555  0.00  0.00    +0.000 A 
ATOM     12  N   UNL     1       0.628  13.116  19.279  0.00  0.00    +0.000 NA
ATOM     13  H   UNL     1      -0.274  10.976  19.208  0.00  0.00    +0.000 HD
ATOM     14  H   UNL     1      -1.023  14.532  20.188  0.00  0.00    +0.000 HD
ENDROOT
BRANCH   1  20
ATOM     15  C   UNL     1       1.135   8.895  19.983  0.00  0.00    +0.000 A 
ATOM     16  C   UNL     1       1.886   7.714  20.120  0.00  0.00    +0.000 A 
ATOM     17  C   UNL     1       2.522   7.132  19.029  0.00  0.00    +0.000 A 
ATOM     18  C   UNL     1       2.362   7.708  17.774  0.00  0.00    +0.000 A 
ATOM     19  C   UNL     1       1.664   8.909  17.640  0.00  0.00    +0.000 A 
ATOM     20  C   UNL     1       1.120   9.583  18.743  0.00  0.00    +0.000 A 
BRANCH  17  21
ATOM     21  C   UNL     1       3.368   5.980  19.240  0.00  0.00    +0.000 A 
ATOM     22  C   UNL     1       4.712   5.726  18.892  0.00  0.00    +0.000 A 
ATOM     23  N   UNL     1       5.091   4.480  19.177  0.00  0.00    +0.000 NA
ATOM     24  N   UNL     1       3.974   3.926  19.685  0.00  0.00    +0.000 N 
ATOM     25  C   UNL     1       3.960   2.546  20.107  0.00  0.00    +0.000 C 
ATOM     26  C   UNL     1       2.913   4.778  19.732  0.00  0.00    +0.000 A 
ENDBRANCH  17  21
BRANCH  15  28
ATOM     27  C   UNL     1       1.118   9.233  22.312  0.00  0.00    +0.000 C 
ATOM     28  O   UNL     1       0.447   9.426  21.055  0.00  0.00    +0.000 OA
ENDBRANCH  15  28
ENDBRANCH   1  20
BRANCH  10  29
ATOM     29  C   UNL     1      -1.313  16.372  21.131  0.00  0.00    +0.000 C 
ATOM     30  C   UNL     1      -2.024  17.099  19.981  0.00  0.00    +0.000 C 
ATOM     31  O   UNL     1      -3.329  16.683  20.453  0.00  0.00    +0.000 OA
ATOM     32  C   UNL     1      -2.731  15.979  21.567  0.00  0.00    +0.000 C 
ENDBRANCH  10  29
TORSDOF 4
ENDMDL
MODEL 8
REMARK VINA RESULT:      -7.0      3.200     10.327
REMARK  Name = 
REMARK  6 active torsions:
REMARK  status: ('A' for Active; 'I' for Inactive)
REMARK    1  A    between atoms: C_1  and  O_2
REMARK    2  A    between atoms: O_2  and  C_3
REMARK    3  A    between atoms: C_5  and  C_6
REMARK    4  A    between atoms: N_9  and  C_10
REMARK    5  A    between atoms: C_14  and  N_15
REMARK    6  A    between atoms: N_24  and  C_25
REMARK                            x       y       z     vdW  Elec       q    Type
REMARK                         _______ _______ _______ _____ _____    ______ ____
ROOT
ATOM      1  N   UNL     1      -0.725  11.170  19.939  0.00  0.00    +0.000 N 
ATOM      2  C   UNL     1      -1.422  11.765  21.011  0.00  0.00    +0.000 A 
ATOM      3  N   UNL     1      -0.891  11.809  22.243  0.00  0.00    +0.000 NA
ATOM      4  C   UNL     1      -1.688  12.158  23.268  0.00  0.00    +0.000 A 
ATOM      5  C   UNL     1      -3.015  12.495  23.115  0.00  0.00    +0.000 A 
ATOM      6  C   UNL     1      -3.865  12.754  24.200  0.00  0.00    +0.000 A 
ATOM      7  C   UNL     1      -5.176  13.067  23.917  0.00  0.00    +0.000 A 
ATOM      8  N   UNL     1      -5.657  13.189  22.664  0.00  0.00    +0.000 NA
ATOM      9  C   UNL     1      -4.815  12.925  21.629  0.00  0.00    +0.000 A 
ATOM     10  N   UNL     1      -5.346  12.947  20.311  0.00  0.00    +0.000 N 
ATOM     11  C   UNL     1      -3.471  12.530  21.798  0.00  0.00    +0.000 A 
ATOM     12  N   UNL     1      -2.670  12.188  20.752  0.00  0.00    +0.000 NA
ATOM     13  H   UNL     1      -1.380  11.078  19.169  0.00  0.00    +0.000 HD
ATOM     14  H   UNL     1      -4.582  13.000  19.637  0.00  0.00    +0.000 HD
ENDROOT
BRANCH   1  20
ATOM     15  C   UNL     1       1.095   9.778  19.006  0.00  0.00    +0.000 A 
ATOM     16  C   UNL     1       1.799   8.561  19.017  0.00  0.00    +0.000 A 
ATOM     17  C   UNL     1       1.676   7.664  20.074  0.00  0.00    +0.000 A 
ATOM     18  C   UNL     1       0.880   8.013  21.159  0.00  0.00    +0.000 A 
ATOM     19  C   UNL     1       0.135   9.194  21.129  0.00  0.00    +0.000 A 
ATOM     20  C   UNL     1       0.145  10.053  20.021  0.00  0.00    +0.000 A 
BRANCH  17  21
ATOM     21  C   UNL     1       2.335   6.382  19.990  0.00  0.00    +0.000 A 
ATOM     22  C   UNL     1       2.133   5.175  20.692  0.00  0.00    +0.000 A 
ATOM     23  N   UNL     1       3.037   4.244  20.385  0.00  0.00    +0.000 NA
ATOM     24  N   UNL     1       3.839   4.869  19.504  0.00  0.00    +0.000 N 
ATOM     25  C   UNL     1       4.979   4.194  18.934  0.00  0.00    +0.000 C 
ATOM     26  C   UNL     1       3.469   6.154  19.243  0.00  0.00    +0.000 A 
ENDBRANCH  17  21
BRANCH  15  28
ATOM     27  C   UNL     1       2.279  11.682  18.291  0.00  0.00    +0.000 C 
ATOM     28  O   UNL     1       1.279  10.693  17.990  0.00  0.00    +0.000 OA
ENDBRANCH  15  28
ENDBRANCH   1  20
BRANCH  10  29
ATOM     29  C   UNL     1      -6.537  13.668  19.940  0.00  0.00    +0.000 C 
ATOM     30  C   UNL     1      -6.511  14.277  18.532  0.00  0.00    +0.000 C 
ATOM     31  O   UNL     1      -7.539  13.371  18.062  0.00  0.00    +0.000 OA
ATOM     32  C   UNL     1      -7.624  12.750  19.366  0.00  0.00    +0.000 C 
ENDBRANCH  10  29
TORSDOF 4
ENDMDL
MODEL 9
REMARK VINA RESULT:      -7.0      3.336     10.055
REMARK  Name = 
REMARK  6 active torsions:
REMARK  status: ('A' for Active; 'I' for Inactive)
REMARK    1  A    between atoms: C_1  and  O_2
REMARK    2  A    between atoms: O_2  and  C_3
REMARK    3  A    between atoms: C_5  and  C_6
REMARK    4  A    between atoms: N_9  and  C_10
REMARK    5  A    between atoms: C_14  and  N_15
REMARK    6  A    between atoms: N_24  and  C_25
REMARK                            x       y       z     vdW  Elec       q    Type
REMARK                         _______ _______ _______ _____ _____    ______ ____
ROOT
ATOM      1  N   UNL     1       0.522  10.874  19.082  0.00  0.00    +0.000 N 
ATOM      2  C   UNL     1       1.183  12.118  19.007  0.00  0.00    +0.000 A 
ATOM      3  N   UNL     1       2.279  12.274  18.248  0.00  0.00    +0.000 NA
ATOM      4  C   UNL     1       3.007  13.394  18.404  0.00  0.00    +0.000 A 
ATOM      5  C   UNL     1       2.671  14.399  19.285  0.00  0.00    +0.000 A 
ATOM      6  C   UNL     1       3.490  15.513  19.517  0.00  0.00    +0.000 A 
ATOM      7  C   UNL     1       3.051  16.443  20.433  0.00  0.00    +0.000 A 
ATOM      8  N   UNL     1       1.863  16.360  21.063  0.00  0.00    +0.000 NA
ATOM      9  C   UNL     1       1.090  15.266  20.827  0.00  0.00    +0.000 A 
ATOM     10  N   UNL     1      -0.113  15.123  21.570  0.00  0.00    +0.000 N 
ATOM     11  C   UNL     1       1.466  14.217  19.961  0.00  0.00    +0.000 A 
ATOM     12  N   UNL     1       0.717  13.092  19.805  0.00  0.00    +0.000 NA
ATOM     13  H   UNL     1      -0.146  10.934  19.845  0.00  0.00    +0.000 HD
ATOM     14  H   UNL     1      -0.711  14.430  21.119  0.00  0.00    +0.000 HD
ENDROOT
BRANCH   1  20
ATOM     15  C   UNL     1       1.165   8.735  20.147  0.00  0.00    +0.000 A 
ATOM     16  C   UNL     1       1.946   7.566  20.113  0.00  0.00    +0.000 A 
ATOM     17  C   UNL     1       2.596   7.166  18.951  0.00  0.00    +0.000 A 
ATOM     18  C   UNL     1       2.420   7.913  17.792  0.00  0.00    +0.000 A 
ATOM     19  C   UNL     1       1.691   9.103  17.833  0.00  0.00    +0.000 A 
ATOM     20  C   UNL     1       1.131   9.595  19.021  0.00  0.00    +0.000 A 
BRANCH  17  21
ATOM     21  C   UNL     1       3.472   6.018  18.994  0.00  0.00    +0.000 A 
ATOM     22  C   UNL     1       4.683   5.736  18.328  0.00  0.00    +0.000 A 
ATOM     23  N   UNL     1       5.127   4.501  18.567  0.00  0.00    +0.000 NA
ATOM     24  N   UNL     1       4.178   3.981  19.368  0.00  0.00    +0.000 N 
ATOM     25  C   UNL     1       4.277   2.623  19.845  0.00  0.00    +0.000 C 
ATOM     26  C   UNL     1       3.161   4.844  19.643  0.00  0.00    +0.000 A 
ENDBRANCH  17  21
BRANCH  15  28
ATOM     27  C   UNL     1       1.299   9.222  22.446  0.00  0.00    +0.000 C 
ATOM     28  O   UNL     1       0.464   9.086  21.283  0.00  0.00    +0.000 OA
ENDBRANCH  15  28
ENDBRANCH   1  20
BRANCH  10  29
ATOM     29  C   UNL     1      -0.812  16.224  22.182  0.00  0.00    +0.000 C 
ATOM     30  C   UNL     1      -2.320  16.009  22.369  0.00  0.00    +0.000 C 
ATOM     31  O   UNL     1      -2.190  15.966  23.811  0.00  0.00    +0.000 OA
ATOM     32  C   UNL     1      -0.761  16.172  23.714  0.00  0.00    +0.000 C 
ENDBRANCH  10  29
TORSDOF 4
ENDMDL
