MODEL 1
REMARK VINA RESULT:      -8.3      0.000      0.000
REMARK  Name = 
REMARK  8 active torsions:
REMARK  status: ('A' for Active; 'I' for Inactive)
REMARK    1  A    between atoms: C_1  and  O_2
REMARK    2  A    between atoms: O_2  and  C_3
REMARK    3  A    between atoms: C_10  and  C_11
REMARK    4  A    between atoms: N_12  and  C_13
REMARK    5  A    between atoms: C_13  and  C_14
REMARK    6  A    between atoms: C_16  and  C_17
REMARK    7  A    between atoms: C_17  and  N_18
REMARK    8  A    between atoms: C_23  and  O_24
REMARK                            x       y       z     vdW  Elec       q    Type
REMARK                         _______ _______ _______ _____ _____    ______ ____
ROOT
ATOM      1  C   UNL     1       3.555   6.227  17.788  0.00  0.00    +0.000 A 
ATOM      2  C   UNL     1       3.192   4.902  17.520  0.00  0.00    +0.000 A 
ATOM      3  C   UNL     1       4.217   4.044  17.224  0.00  0.00    +0.000 A 
ATOM      4  C   UNL     1       5.049   4.082  18.322  0.00  0.00    +0.000 A 
ATOM      5  C   UNL     1       5.685   5.263  18.585  0.00  0.00    +0.000 A 
ATOM      6  N   UNL     1       6.912   5.151  19.104  0.00  0.00    +0.000 NA
ATOM      7  C   UNL     1       7.830   6.026  18.679  0.00  0.00    +0.000 A 
ATOM      8  C   UNL     1       7.480   7.075  17.855  0.00  0.00    +0.000 A 
ATOM      9  C   UNL     1       6.105   7.334  17.598  0.00  0.00    +0.000 A 
ATOM     10  C   UNL     1       5.060   6.409  18.006  0.00  0.00    +0.000 A 
ENDROOT
BRANCH   4  11
ATOM     11  O   UNL     1       5.110   3.052  19.209  0.00  0.00    +0.000 OA
ATOM     12  H   UNL     1       5.206   3.482  20.083  0.00  0.00    +0.000 HD
ENDBRANCH   4  11
BRANCH   1  13
ATOM     13  C   UNL     1       2.410   7.271  17.841  0.00  0.00    +0.000 C 
BRANCH  13  23
ATOM     14  C   UNL     1       0.655  11.359  21.023  0.00  0.00    +0.000 A 
ATOM     15  C   UNL     1       0.833  11.378  19.637  0.00  0.00    +0.000 A 
ATOM     16  C   UNL     1       1.227  10.220  18.922  0.00  0.00    +0.000 A 
ATOM     17  C   UNL     1       1.408   8.993  19.602  0.00  0.00    +0.000 A 
ATOM     18  C   UNL     1       1.192   8.982  20.990  0.00  0.00    +0.000 A 
ATOM     19  C   UNL     1       0.815  10.149  21.684  0.00  0.00    +0.000 A 
ATOM     20  C   UNL     1       1.411   7.681  21.442  0.00  0.00    +0.000 A 
ATOM     21  C   UNL     1       1.765   6.894  20.371  0.00  0.00    +0.000 A 
ATOM     22  C   UNL     1       2.029   5.433  20.504  0.00  0.00    +0.000 C 
ATOM     23  N   UNL     1       1.795   7.678  19.200  0.00  0.00    +0.000 N 
BRANCH  14  25
ATOM     24  C   UNL     1      -1.039  12.401  22.364  0.00  0.00    +0.000 C 
ATOM     25  O   UNL     1       0.273  12.402  21.824  0.00  0.00    +0.000 OA
ENDBRANCH  14  25
ENDBRANCH  13  23
ENDBRANCH   1  13
BRANCH   3  26
ATOM     26  C   UNL     1       4.937   4.521  15.842  0.00  0.00    +0.000 C 
BRANCH  26  27
ATOM     27  N   UNL     1       6.039   3.704  15.327  0.00  0.00    +0.000 NA
ATOM     28  C   UNL     1       7.292   4.469  15.359  0.00  0.00    +0.000 C 
ATOM     29  C   UNL     1       7.339   5.235  14.047  0.00  0.00    +0.000 C 
ATOM     30  C   UNL     1       6.797   4.221  13.069  0.00  0.00    +0.000 C 
ATOM     31  C   UNL     1       5.783   3.429  13.883  0.00  0.00    +0.000 C 
ENDBRANCH  26  27
ENDBRANCH   3  26
TORSDOF 6
ENDMDL
MODEL 2
REMARK VINA RESULT:      -8.2      2.423      3.988
REMARK  Name = 
REMARK  8 active torsions:
REMARK  status: ('A' for Active; 'I' for Inactive)
REMARK    1  A    between atoms: C_1  and  O_2
REMARK    2  A    between atoms: O_2  and  C_3
REMARK    3  A    between atoms: C_10  and  C_11
REMARK    4  A    between atoms: N_12  and  C_13
REMARK    5  A    between atoms: C_13  and  C_14
REMARK    6  A    between atoms: C_16  and  C_17
REMARK    7  A    between atoms: C_17  and  N_18
REMARK    8  A    between atoms: C_23  and  O_24
REMARK                            x       y       z     vdW  Elec       q    Type
REMARK                         _______ _______ _______ _____ _____    ______ ____
ROOT
ATOM      1  C   UNL     1       2.633   6.855  18.622  0.00  0.00    +0.000 A 
ATOM      2  C   UNL     1       3.418   6.420  17.548  0.00  0.00    +0.000 A 
ATOM      3  C   UNL     1       3.826   5.114  17.588  0.00  0.00    +0.000 A 
ATOM      4  C   UNL     1       2.665   4.373  17.642  0.00  0.00    +0.000 A 
ATOM      5  C   UNL     1       1.891   4.503  18.761  0.00  0.00    +0.000 A 
ATOM      6  N   UNL     1       1.248   3.396  19.147  0.00  0.00    +0.000 NA
ATOM      7  C   UNL     1       1.169   3.170  20.462  0.00  0.00    +0.000 A 
ATOM      8  C   UNL     1       1.605   4.112  21.370  0.00  0.00    +0.000 A 
ATOM      9  C   UNL     1       1.979   5.406  20.910  0.00  0.00    +0.000 A 
ATOM     10  C   UNL     1       2.114   5.708  19.494  0.00  0.00    +0.000 A 
ENDROOT
BRANCH   4  11
ATOM     11  O   UNL     1       2.212   3.675  16.566  0.00  0.00    +0.000 OA
ATOM     12  H   UNL     1       2.916   3.021  16.378  0.00  0.00    +0.000 HD
ENDBRANCH   4  11
BRANCH   1  13
ATOM     13  C   UNL     1       2.401   8.382  18.748  0.00  0.00    +0.000 C 
BRANCH  13  23
ATOM     14  C   UNL     1      -2.363  10.984  18.070  0.00  0.00    +0.000 A 
ATOM     15  C   UNL     1      -1.594  10.352  17.090  0.00  0.00    +0.000 A 
ATOM     16  C   UNL     1      -0.407   9.648  17.414  0.00  0.00    +0.000 A 
ATOM     17  C   UNL     1       0.004   9.533  18.763  0.00  0.00    +0.000 A 
ATOM     18  C   UNL     1      -0.798  10.144  19.740  0.00  0.00    +0.000 A 
ATOM     19  C   UNL     1      -1.967  10.853  19.394  0.00  0.00    +0.000 A 
ATOM     20  C   UNL     1      -0.217   9.893  20.983  0.00  0.00    +0.000 A 
ATOM     21  C   UNL     1       0.926   9.152  20.795  0.00  0.00    +0.000 A 
ATOM     22  C   UNL     1       1.766   8.676  21.930  0.00  0.00    +0.000 C 
ATOM     23  N   UNL     1       1.115   8.918  19.418  0.00  0.00    +0.000 N 
BRANCH  14  25
ATOM     24  C   UNL     1      -4.451  11.227  16.915  0.00  0.00    +0.000 C 
ATOM     25  O   UNL     1      -3.524  11.686  17.887  0.00  0.00    +0.000 OA
ENDBRANCH  14  25
ENDBRANCH  13  23
ENDBRANCH   1  13
BRANCH   3  26
ATOM     26  C   UNL     1       4.801   4.895  18.875  0.00  0.00    +0.000 C 
BRANCH  26  27
ATOM     27  N   UNL     1       6.199   4.536  18.623  0.00  0.00    +0.000 NA
ATOM     28  C   UNL     1       7.088   5.605  19.095  0.00  0.00    +0.000 C 
ATOM     29  C   UNL     1       7.204   6.583  17.938  0.00  0.00    +0.000 C 
ATOM     30  C   UNL     1       7.277   5.658  16.747  0.00  0.00    +0.000 C 
ATOM     31  C   UNL     1       6.408   4.473  17.146  0.00  0.00    +0.000 C 
ENDBRANCH  26  27
ENDBRANCH   3  26
TORSDOF 6
ENDMDL
MODEL 3
REMARK VINA RESULT:      -8.1      2.454      3.988
REMARK  Name = 
REMARK  8 active torsions:
REMARK  status: ('A' for Active; 'I' for Inactive)
REMARK    1  A    between atoms: C_1  and  O_2
REMARK    2  A    between atoms: O_2  and  C_3
REMARK    3  A    between atoms: C_10  and  C_11
REMARK    4  A    between atoms: N_12  and  C_13
REMARK    5  A    between atoms: C_13  and  C_14
REMARK    6  A    between atoms: C_16  and  C_17
REMARK    7  A    between atoms: C_17  and  N_18
REMARK    8  A    between atoms: C_23  and  O_24
REMARK                            x       y       z     vdW  Elec       q    Type
REMARK                         _______ _______ _______ _____ _____    ______ ____
ROOT
ATOM      1  C   UNL     1       2.391   6.741  19.512  0.00  0.00    +0.000 A 
ATOM      2  C   UNL     1       2.684   6.591  18.151  0.00  0.00    +0.000 A 
ATOM      3  C   UNL     1       2.917   5.313  17.722  0.00  0.00    +0.000 A 
ATOM      4  C   UNL     1       1.770   4.613  18.026  0.00  0.00    +0.000 A 
ATOM      5  C   UNL     1       1.466   4.457  19.350  0.00  0.00    +0.000 A 
ATOM      6  N   UNL     1       0.872   3.302  19.670  0.00  0.00    +0.000 NA
ATOM      7  C   UNL     1       1.238   2.734  20.824  0.00  0.00    +0.000 A 
ATOM      8  C   UNL     1       2.079   3.387  21.699  0.00  0.00    +0.000 A 
ATOM      9  C   UNL     1       2.421   4.748  21.458  0.00  0.00    +0.000 A 
ATOM     10  C   UNL     1       2.080   5.415  20.212  0.00  0.00    +0.000 A 
ENDROOT
BRANCH   4  11
ATOM     11  O   UNL     1       0.883   4.240  17.065  0.00  0.00    +0.000 OA
ATOM     12  H   UNL     1       1.417   3.745  16.411  0.00  0.00    +0.000 HD
ENDBRANCH   4  11
BRANCH   1  13
ATOM     13  C   UNL     1       2.407   8.184  20.078  0.00  0.00    +0.000 C 
BRANCH  13  23
ATOM     14  C   UNL     1      -1.822  10.916  17.939  0.00  0.00    +0.000 A 
ATOM     15  C   UNL     1      -0.944  10.055  17.275  0.00  0.00    +0.000 A 
ATOM     16  C   UNL     1       0.072   9.350  17.967  0.00  0.00    +0.000 A 
ATOM     17  C   UNL     1       0.191   9.473  19.371  0.00  0.00    +0.000 A 
ATOM     18  C   UNL     1      -0.721  10.315  20.029  0.00  0.00    +0.000 A 
ATOM     19  C   UNL     1      -1.714  11.019  19.320  0.00  0.00    +0.000 A 
ATOM     20  C   UNL     1      -0.429  10.273  21.393  0.00  0.00    +0.000 A 
ATOM     21  C   UNL     1       0.643   9.434  21.589  0.00  0.00    +0.000 A 
ATOM     22  C   UNL     1       1.184   9.133  22.945  0.00  0.00    +0.000 C 
ATOM     23  N   UNL     1       1.077   8.924  20.349  0.00  0.00    +0.000 N 
BRANCH  14  25
ATOM     24  C   UNL     1      -4.151  11.489  17.915  0.00  0.00    +0.000 C 
ATOM     25  O   UNL     1      -2.842  11.645  17.389  0.00  0.00    +0.000 OA
ENDBRANCH  14  25
ENDBRANCH  13  23
ENDBRANCH   1  13
BRANCH   3  26
ATOM     26  C   UNL     1       4.251   4.733  18.456  0.00  0.00    +0.000 C 
BRANCH  26  27
ATOM     27  N   UNL     1       5.279   4.110  17.618  0.00  0.00    +0.000 NA
ATOM     28  C   UNL     1       6.585   4.728  17.878  0.00  0.00    +0.000 C 
ATOM     29  C   UNL     1       6.661   5.932  16.952  0.00  0.00    +0.000 C 
ATOM     30  C   UNL     1       6.025   5.401  15.690  0.00  0.00    +0.000 C 
ATOM     31  C   UNL     1       4.972   4.421  16.191  0.00  0.00    +0.000 C 
ENDBRANCH  26  27
ENDBRANCH   3  26
TORSDOF 6
ENDMDL
MODEL 4
REMARK VINA RESULT:      -7.9      2.516      4.269
REMARK  Name = 
REMARK  8 active torsions:
REMARK  status: ('A' for Active; 'I' for Inactive)
REMARK    1  A    between atoms: C_1  and  O_2
REMARK    2  A    between atoms: O_2  and  C_3
REMARK    3  A    between atoms: C_10  and  C_11
REMARK    4  A    between atoms: N_12  and  C_13
REMARK    5  A    between atoms: C_13  and  C_14
REMARK    6  A    between atoms: C_16  and  C_17
REMARK    7  A    between atoms: C_17  and  N_18
REMARK    8  A    between atoms: C_23  and  O_24
REMARK                            x       y       z     vdW  Elec       q    Type
REMARK                         _______ _______ _______ _____ _____    ______ ____
ROOT
ATOM      1  C   UNL     1       2.280   6.831  19.604  0.00  0.00    +0.000 A 
ATOM      2  C   UNL     1       2.538   6.767  18.230  0.00  0.00    +0.000 A 
ATOM      3  C   UNL     1       2.828   5.528  17.728  0.00  0.00    +0.000 A 
ATOM      4  C   UNL     1       1.732   4.749  18.029  0.00  0.00    +0.000 A 
ATOM      5  C   UNL     1       1.478   4.509  19.350  0.00  0.00    +0.000 A 
ATOM      6  N   UNL     1       0.959   3.308  19.627  0.00  0.00    +0.000 NA
ATOM      7  C   UNL     1       1.392   2.704  20.738  0.00  0.00    +0.000 A 
ATOM      8  C   UNL     1       2.223   3.359  21.623  0.00  0.00    +0.000 A 
ATOM      9  C   UNL     1       2.481   4.748  21.443  0.00  0.00    +0.000 A 
ATOM     10  C   UNL     1       2.065   5.456  20.243  0.00  0.00    +0.000 A 
ENDROOT
BRANCH   4  11
ATOM     11  O   UNL     1       0.837   4.375  17.075  0.00  0.00    +0.000 OA
ATOM     12  H   UNL     1      -0.014   4.764  17.365  0.00  0.00    +0.000 HD
ENDBRANCH   4  11
BRANCH   1  13
ATOM     13  C   UNL     1       2.234   8.242  20.244  0.00  0.00    +0.000 C 
BRANCH  13  23
ATOM     14  C   UNL     1      -1.878  10.878  17.779  0.00  0.00    +0.000 A 
ATOM     15  C   UNL     1      -0.950  10.014  17.192  0.00  0.00    +0.000 A 
ATOM     16  C   UNL     1       0.028   9.336  17.963  0.00  0.00    +0.000 A 
ATOM     17  C   UNL     1       0.055   9.490  19.369  0.00  0.00    +0.000 A 
ATOM     18  C   UNL     1      -0.906  10.335  19.948  0.00  0.00    +0.000 A 
ATOM     19  C   UNL     1      -1.860  11.012  19.161  0.00  0.00    +0.000 A 
ATOM     20  C   UNL     1      -0.703  10.325  21.328  0.00  0.00    +0.000 A 
ATOM     21  C   UNL     1       0.364   9.503  21.611  0.00  0.00    +0.000 A 
ATOM     22  C   UNL     1       0.820   9.238  23.005  0.00  0.00    +0.000 C 
ATOM     23  N   UNL     1       0.882   8.973  20.413  0.00  0.00    +0.000 N 
BRANCH  14  25
ATOM     24  C   UNL     1      -3.460  11.030  15.984  0.00  0.00    +0.000 C 
ATOM     25  O   UNL     1      -2.867  11.582  17.149  0.00  0.00    +0.000 OA
ENDBRANCH  14  25
ENDBRANCH  13  23
ENDBRANCH   1  13
BRANCH   3  26
ATOM     26  C   UNL     1       4.214   4.988  18.393  0.00  0.00    +0.000 C 
BRANCH  26  27
ATOM     27  N   UNL     1       5.415   5.815  18.242  0.00  0.00    +0.000 NA
ATOM     28  C   UNL     1       5.795   5.900  16.826  0.00  0.00    +0.000 C 
ATOM     29  C   UNL     1       6.680   4.692  16.566  0.00  0.00    +0.000 C 
ATOM     30  C   UNL     1       7.500   4.622  17.832  0.00  0.00    +0.000 C 
ATOM     31  C   UNL     1       6.551   5.119  18.914  0.00  0.00    +0.000 C 
ENDBRANCH  26  27
ENDBRANCH   3  26
TORSDOF 6
ENDMDL
MODEL 5
REMARK VINA RESULT:      -7.8      2.516      8.204
REMARK  Name = 
REMARK  8 active torsions:
REMARK  status: ('A' for Active; 'I' for Inactive)
REMARK    1  A    between atoms: C_1  and  O_2
REMARK    2  A    between atoms: O_2  and  C_3
REMARK    3  A    between atoms: C_10  and  C_11
REMARK    4  A    between atoms: N_12  and  C_13
REMARK    5  A    between atoms: C_13  and  C_14
REMARK    6  A    between atoms: C_16  and  C_17
REMARK    7  A    between atoms: C_17  and  N_18
REMARK    8  A    between atoms: C_23  and  O_24
REMARK                            x       y       z     vdW  Elec       q    Type
REMARK                         _______ _______ _______ _____ _____    ______ ____
ROOT
ATOM      1  C   UNL     1       1.517   8.479  19.749  0.00  0.00    +0.000 A 
ATOM      2  C   UNL     1       1.630   8.635  18.362  0.00  0.00    +0.000 A 
ATOM      3  C   UNL     1       0.982   9.712  17.822  0.00  0.00    +0.000 A 
ATOM      4  C   UNL     1       1.517  10.813  18.454  0.00  0.00    +0.000 A 
ATOM      5  C   UNL     1       1.285  10.937  19.796  0.00  0.00    +0.000 A 
ATOM      6  N   UNL     1       1.147  12.191  20.240  0.00  0.00    +0.000 NA
ATOM      7  C   UNL     1       0.221  12.400  21.182  0.00  0.00    +0.000 A 
ATOM      8  C   UNL     1      -0.451  11.344  21.761  0.00  0.00    +0.000 A 
ATOM      9  C   UNL     1      -0.033  10.012  21.483  0.00  0.00    +0.000 A 
ATOM     10  C   UNL     1       0.947   9.715  20.451  0.00  0.00    +0.000 A 
ENDROOT
BRANCH   4  11
ATOM     11  O   UNL     1       2.383  11.650  17.822  0.00  0.00    +0.000 OA
ATOM     12  H   UNL     1       2.332  11.396  16.878  0.00  0.00    +0.000 HD
ENDBRANCH   4  11
BRANCH   1  13
ATOM     13  C   UNL     1       1.991   7.129  20.343  0.00  0.00    +0.000 C 
BRANCH  13  23
ATOM     14  C   UNL     1       5.251   5.878  16.131  0.00  0.00    +0.000 A 
ATOM     15  C   UNL     1       5.310   7.014  16.943  0.00  0.00    +0.000 A 
ATOM     16  C   UNL     1       4.445   7.182  18.053  0.00  0.00    +0.000 A 
ATOM     17  C   UNL     1       3.520   6.166  18.392  0.00  0.00    +0.000 A 
ATOM     18  C   UNL     1       3.496   5.015  17.587  0.00  0.00    +0.000 A 
ATOM     19  C   UNL     1       4.355   4.876  16.478  0.00  0.00    +0.000 A 
ATOM     20  C   UNL     1       2.531   4.153  18.109  0.00  0.00    +0.000 A 
ATOM     21  C   UNL     1       1.956   4.748  19.208  0.00  0.00    +0.000 A 
ATOM     22  C   UNL     1       0.911   4.071  20.027  0.00  0.00    +0.000 C 
ATOM     23  N   UNL     1       2.530   6.019  19.412  0.00  0.00    +0.000 N 
BRANCH  14  25
ATOM     24  C   UNL     1       5.885   4.335  14.409  0.00  0.00    +0.000 C 
ATOM     25  O   UNL     1       6.029   5.598  15.041  0.00  0.00    +0.000 OA
ENDBRANCH  14  25
ENDBRANCH  13  23
ENDBRANCH   1  13
BRANCH   3  26
ATOM     26  C   UNL     1      -0.623   9.545  18.049  0.00  0.00    +0.000 C 
BRANCH  26  27
ATOM     27  N   UNL     1      -1.522  10.303  17.174  0.00  0.00    +0.000 NA
ATOM     28  C   UNL     1      -1.700  11.665  17.692  0.00  0.00    +0.000 C 
ATOM     29  C   UNL     1      -2.849  11.581  18.683  0.00  0.00    +0.000 C 
ATOM     30  C   UNL     1      -3.795  10.630  17.990  0.00  0.00    +0.000 C 
ATOM     31  C   UNL     1      -2.876   9.677  17.238  0.00  0.00    +0.000 C 
ENDBRANCH  26  27
ENDBRANCH   3  26
TORSDOF 6
ENDMDL
MODEL 6
REMARK VINA RESULT:      -7.6      3.426      9.109
REMARK  Name = 
REMARK  8 active torsions:
REMARK  status: ('A' for Active; 'I' for Inactive)
REMARK    1  A    between atoms: C_1  and  O_2
REMARK    2  A    between atoms: O_2  and  C_3
REMARK    3  A    between atoms: C_10  and  C_11
REMARK    4  A    between atoms: N_12  and  C_13
REMARK    5  A    between atoms: C_13  and  C_14
REMARK    6  A    between atoms: C_16  and  C_17
REMARK    7  A    between atoms: C_17  and  N_18
REMARK    8  A    between atoms: C_23  and  O_24
REMARK                            x       y       z     vdW  Elec       q    Type
REMARK                         _______ _______ _______ _____ _____    ______ ____
ROOT
ATOM      1  C   UNL     1      -0.122  10.449  20.059  0.00  0.00    +0.000 A 
ATOM      2  C   UNL     1      -0.018  11.675  20.725  0.00  0.00    +0.000 A 
ATOM      3  C   UNL     1      -0.619  12.744  20.118  0.00  0.00    +0.000 A 
ATOM      4  C   UNL     1      -1.947  12.395  19.999  0.00  0.00    +0.000 A 
ATOM      5  C   UNL     1      -2.245  11.347  19.174  0.00  0.00    +0.000 A 
ATOM      6  N   UNL     1      -3.408  11.444  18.521  0.00  0.00    +0.000 NA
ATOM      7  C   UNL     1      -3.429  11.010  17.256  0.00  0.00    +0.000 A 
ATOM      8  C   UNL     1      -2.340  10.363  16.712  0.00  0.00    +0.000 A 
ATOM      9  C   UNL     1      -1.251   9.998  17.553  0.00  0.00    +0.000 A 
ATOM     10  C   UNL     1      -1.153  10.462  18.927  0.00  0.00    +0.000 A 
ENDROOT
BRANCH   4  11
ATOM     11  O   UNL     1      -2.905  12.946  20.792  0.00  0.00    +0.000 OA
ATOM     12  H   UNL     1      -3.752  12.632  20.414  0.00  0.00    +0.000 HD
ENDBRANCH   4  11
BRANCH   1  13
ATOM     13  C   UNL     1       0.780   9.296  20.568  0.00  0.00    +0.000 C 
BRANCH  13  23
ATOM     14  C   UNL     1       3.146   4.459  19.600  0.00  0.00    +0.000 A 
ATOM     15  C   UNL     1       2.194   4.758  20.578  0.00  0.00    +0.000 A 
ATOM     16  C   UNL     1       1.605   6.044  20.674  0.00  0.00    +0.000 A 
ATOM     17  C   UNL     1       1.943   7.051  19.742  0.00  0.00    +0.000 A 
ATOM     18  C   UNL     1       2.876   6.725  18.743  0.00  0.00    +0.000 A 
ATOM     19  C   UNL     1       3.461   5.445  18.674  0.00  0.00    +0.000 A 
ATOM     20  C   UNL     1       3.045   7.851  17.937  0.00  0.00    +0.000 A 
ATOM     21  C   UNL     1       2.248   8.863  18.419  0.00  0.00    +0.000 A 
ATOM     22  C   UNL     1       2.160  10.196  17.757  0.00  0.00    +0.000 C 
ATOM     23  N   UNL     1       1.553   8.414  19.560  0.00  0.00    +0.000 N 
BRANCH  14  25
ATOM     24  C   UNL     1       3.031   2.174  18.881  0.00  0.00    +0.000 C 
ATOM     25  O   UNL     1       3.780   3.263  19.399  0.00  0.00    +0.000 OA
ENDBRANCH  14  25
ENDBRANCH  13  23
ENDBRANCH   1  13
BRANCH   3  26
ATOM     26  C   UNL     1       0.111  13.033  18.690  0.00  0.00    +0.000 C 
BRANCH  26  27
ATOM     27  N   UNL     1       0.876  14.275  18.550  0.00  0.00    +0.000 NA
ATOM     28  C   UNL     1       2.294  13.971  18.316  0.00  0.00    +0.000 C 
ATOM     29  C   UNL     1       2.915  13.828  19.696  0.00  0.00    +0.000 C 
ATOM     30  C   UNL     1       2.229  14.929  20.468  0.00  0.00    +0.000 C 
ATOM     31  C   UNL     1       0.838  14.999  19.854  0.00  0.00    +0.000 C 
ENDBRANCH  26  27
ENDBRANCH   3  26
TORSDOF 6
ENDMDL
MODEL 7
REMARK VINA RESULT:      -7.6      1.733      3.326
REMARK  Name = 
REMARK  8 active torsions:
REMARK  status: ('A' for Active; 'I' for Inactive)
REMARK    1  A    between atoms: C_1  and  O_2
REMARK    2  A    between atoms: O_2  and  C_3
REMARK    3  A    between atoms: C_10  and  C_11
REMARK    4  A    between atoms: N_12  and  C_13
REMARK    5  A    between atoms: C_13  and  C_14
REMARK    6  A    between atoms: C_16  and  C_17
REMARK    7  A    between atoms: C_17  and  N_18
REMARK    8  A    between atoms: C_23  and  O_24
REMARK                            x       y       z     vdW  Elec       q    Type
REMARK                         _______ _______ _______ _____ _____    ______ ____
ROOT
ATOM      1  C   UNL     1       3.756   6.268  18.031  0.00  0.00    +0.000 A 
ATOM      2  C   UNL     1       3.913   5.695  19.298  0.00  0.00    +0.000 A 
ATOM      3  C   UNL     1       4.848   4.702  19.400  0.00  0.00    +0.000 A 
ATOM      4  C   UNL     1       6.035   5.280  19.004  0.00  0.00    +0.000 A 
ATOM      5  C   UNL     1       6.131   5.680  17.701  0.00  0.00    +0.000 A 
ATOM      6  N   UNL     1       7.345   5.560  17.152  0.00  0.00    +0.000 NA
ATOM      7  C   UNL     1       7.394   5.158  15.877  0.00  0.00    +0.000 A 
ATOM      8  C   UNL     1       6.241   5.018  15.134  0.00  0.00    +0.000 A 
ATOM      9  C   UNL     1       5.003   5.473  15.670  0.00  0.00    +0.000 A 
ATOM     10  C   UNL     1       4.876   5.894  17.056  0.00  0.00    +0.000 A 
ENDROOT
BRANCH   4  11
ATOM     11  O   UNL     1       7.008   5.600  19.899  0.00  0.00    +0.000 OA
ATOM     12  H   UNL     1       7.039   4.841  20.516  0.00  0.00    +0.000 HD
ENDBRANCH   4  11
BRANCH   1  13
ATOM     13  C   UNL     1       2.521   7.181  17.822  0.00  0.00    +0.000 C 
BRANCH  13  23
ATOM     14  C   UNL     1       1.066  11.861  20.252  0.00  0.00    +0.000 A 
ATOM     15  C   UNL     1       1.387  11.667  18.906  0.00  0.00    +0.000 A 
ATOM     16  C   UNL     1       1.678  10.380  18.389  0.00  0.00    +0.000 A 
ATOM     17  C   UNL     1       1.606   9.245  19.228  0.00  0.00    +0.000 A 
ATOM     18  C   UNL     1       1.249   9.451  20.571  0.00  0.00    +0.000 A 
ATOM     19  C   UNL     1       0.978  10.741  21.069  0.00  0.00    +0.000 A 
ATOM     20  C   UNL     1       1.227   8.206  21.200  0.00  0.00    +0.000 A 
ATOM     21  C   UNL     1       1.570   7.241  20.282  0.00  0.00    +0.000 A 
ATOM     22  C   UNL     1       1.601   5.790  20.621  0.00  0.00    +0.000 C 
ATOM     23  N   UNL     1       1.835   7.847  19.037  0.00  0.00    +0.000 N 
BRANCH  14  25
ATOM     24  C   UNL     1      -0.264  13.056  21.851  0.00  0.00    +0.000 C 
ATOM     25  O   UNL     1       0.761  13.044  20.869  0.00  0.00    +0.000 OA
ENDBRANCH  14  25
ENDBRANCH  13  23
ENDBRANCH   1  13
BRANCH   3  26
ATOM     26  C   UNL     1       4.396   3.440  18.474  0.00  0.00    +0.000 C 
BRANCH  26  27
ATOM     27  N   UNL     1       3.959   2.215  19.150  0.00  0.00    +0.000 NA
ATOM     28  C   UNL     1       2.858   1.592  18.405  0.00  0.00    +0.000 C 
ATOM     29  C   UNL     1       1.589   2.247  18.925  0.00  0.00    +0.000 C 
ATOM     30  C   UNL     1       1.874   2.361  20.403  0.00  0.00    +0.000 C 
ATOM     31  C   UNL     1       3.378   2.591  20.472  0.00  0.00    +0.000 C 
ENDBRANCH  26  27
ENDBRANCH   3  26
TORSDOF 6
ENDMDL
MODEL 8
REMARK VINA RESULT:      -7.5      2.024      3.924
REMARK  Name = 
REMARK  8 active torsions:
REMARK  status: ('A' for Active; 'I' for Inactive)
REMARK    1  A    between atoms: C_1  and  O_2
REMARK    2  A    between atoms: O_2  and  C_3
REMARK    3  A    between atoms: C_10  and  C_11
REMARK    4  A    between atoms: N_12  and  C_13
REMARK    5  A    between atoms: C_13  and  C_14
REMARK    6  A    between atoms: C_16  and  C_17
REMARK    7  A    between atoms: C_17  and  N_18
REMARK    8  A    between atoms: C_23  and  O_24
REMARK                            x       y       z     vdW  Elec       q    Type
REMARK                         _______ _______ _______ _____ _____    ______ ____
ROOT
ATOM      1  C   UNL     1       2.264   6.432  19.922  0.00  0.00    +0.000 A 
ATOM      2  C   UNL     1       2.596   6.522  18.566  0.00  0.00    +0.000 A 
ATOM      3  C   UNL     1       2.865   5.340  17.931  0.00  0.00    +0.000 A 
ATOM      4  C   UNL     1       1.725   4.581  18.078  0.00  0.00    +0.000 A 
ATOM      5  C   UNL     1       1.388   4.196  19.346  0.00  0.00    +0.000 A 
ATOM      6  N   UNL     1       0.808   2.996  19.446  0.00  0.00    +0.000 NA
ATOM      7  C   UNL     1       1.155   2.243  20.496  0.00  0.00    +0.000 A 
ATOM      8  C   UNL     1       1.959   2.750  21.495  0.00  0.00    +0.000 A 
ATOM      9  C   UNL     1       2.280   4.136  21.500  0.00  0.00    +0.000 A 
ATOM     10  C   UNL     1       1.960   5.002  20.376  0.00  0.00    +0.000 A 
ENDROOT
BRANCH   4  11
ATOM     11  O   UNL     1       0.871   4.365  17.041  0.00  0.00    +0.000 OA
ATOM     12  H   UNL     1      -0.022   4.436  17.434  0.00  0.00    +0.000 HD
ENDBRANCH   4  11
BRANCH   1  13
ATOM     13  C   UNL     1       2.236   7.757  20.726  0.00  0.00    +0.000 C 
BRANCH  13  23
ATOM     14  C   UNL     1      -1.642  11.441  21.873  0.00  0.00    +0.000 A 
ATOM     15  C   UNL     1      -0.880  10.700  22.780  0.00  0.00    +0.000 A 
ATOM     16  C   UNL     1       0.150   9.827  22.348  0.00  0.00    +0.000 A 
ATOM     17  C   UNL     1       0.458   9.719  20.972  0.00  0.00    +0.000 A 
ATOM     18  C   UNL     1      -0.294  10.496  20.075  0.00  0.00    +0.000 A 
ATOM     19  C   UNL     1      -1.324  11.347  20.525  0.00  0.00    +0.000 A 
ATOM     20  C   UNL     1       0.186  10.244  18.790  0.00  0.00    +0.000 A 
ATOM     21  C   UNL     1       1.208   9.327  18.872  0.00  0.00    +0.000 A 
ATOM     22  C   UNL     1       1.970   8.870  17.676  0.00  0.00    +0.000 C 
ATOM     23  N   UNL     1       1.401   8.955  20.218  0.00  0.00    +0.000 N 
BRANCH  14  25
ATOM     24  C   UNL     1      -2.323  13.571  22.740  0.00  0.00    +0.000 C 
ATOM     25  O   UNL     1      -2.653  12.317  22.162  0.00  0.00    +0.000 OA
ENDBRANCH  14  25
ENDBRANCH  13  23
ENDBRANCH   1  13
BRANCH   3  26
ATOM     26  C   UNL     1       4.190   4.662  18.595  0.00  0.00    +0.000 C 
BRANCH  26  27
ATOM     27  N   UNL     1       5.246   4.194  17.693  0.00  0.00    +0.000 NA
ATOM     28  C   UNL     1       6.510   4.877  17.997  0.00  0.00    +0.000 C 
ATOM     29  C   UNL     1       6.486   6.163  17.186  0.00  0.00    +0.000 C 
ATOM     30  C   UNL     1       5.868   5.706  15.887  0.00  0.00    +0.000 C 
ATOM     31  C   UNL     1       4.896   4.612  16.304  0.00  0.00    +0.000 C 
ENDBRANCH  26  27
ENDBRANCH   3  26
TORSDOF 6
ENDMDL
MODEL 9
REMARK VINA RESULT:      -7.4      3.131      8.921
REMARK  Name = 
REMARK  8 active torsions:
REMARK  status: ('A' for Active; 'I' for Inactive)
REMARK    1  A    between atoms: C_1  and  O_2
REMARK    2  A    between atoms: O_2  and  C_3
REMARK    3  A    between atoms: C_10  and  C_11
REMARK    4  A    between atoms: N_12  and  C_13
REMARK    5  A    between atoms: C_13  and  C_14
REMARK    6  A    between atoms: C_16  and  C_17
REMARK    7  A    between atoms: C_17  and  N_18
REMARK    8  A    between atoms: C_23  and  O_24
REMARK                            x       y       z     vdW  Elec       q    Type
REMARK                         _______ _______ _______ _____ _____    ______ ____
ROOT
ATOM      1  C   UNL     1       0.329  10.020  20.308  0.00  0.00    +0.000 A 
ATOM      2  C   UNL     1       0.648  11.141  21.083  0.00  0.00    +0.000 A 
ATOM      3  C   UNL     1       0.184  12.344  20.624  0.00  0.00    +0.000 A 
ATOM      4  C   UNL     1      -1.185  12.203  20.558  0.00  0.00    +0.000 A 
ATOM      5  C   UNL     1      -1.678  11.302  19.656  0.00  0.00    +0.000 A 
ATOM      6  N   UNL     1      -2.845  11.634  19.092  0.00  0.00    +0.000 NA
ATOM      7  C   UNL     1      -2.994  11.344  17.795  0.00  0.00    +0.000 A 
ATOM      8  C   UNL     1      -2.042  10.610  17.120  0.00  0.00    +0.000 A 
ATOM      9  C   UNL     1      -0.979  10.005  17.848  0.00  0.00    +0.000 A 
ATOM     10  C   UNL     1      -0.744  10.302  19.252  0.00  0.00    +0.000 A 
ENDROOT
BRANCH   4  11
ATOM     11  O   UNL     1      -2.010  12.797  21.462  0.00  0.00    +0.000 OA
ATOM     12  H   UNL     1      -2.583  13.385  20.928  0.00  0.00    +0.000 HD
ENDBRANCH   4  11
BRANCH   1  13
ATOM     13  C   UNL     1       1.074   8.703  20.641  0.00  0.00    +0.000 C 
BRANCH  13  23
ATOM     14  C   UNL     1       3.441   3.998  19.159  0.00  0.00    +0.000 A 
ATOM     15  C   UNL     1       2.550   4.205  20.215  0.00  0.00    +0.000 A 
ATOM     16  C   UNL     1       1.951   5.468  20.447  0.00  0.00    +0.000 A 
ATOM     17  C   UNL     1       2.213   6.549  19.574  0.00  0.00    +0.000 A 
ATOM     18  C   UNL     1       3.083   6.317  18.496  0.00  0.00    +0.000 A 
ATOM     19  C   UNL     1       3.681   5.057  18.293  0.00  0.00    +0.000 A 
ATOM     20  C   UNL     1       3.183   7.503  17.768  0.00  0.00    +0.000 A 
ATOM     21  C   UNL     1       2.404   8.460  18.376  0.00  0.00    +0.000 A 
ATOM     22  C   UNL     1       2.254   9.837  17.823  0.00  0.00    +0.000 C 
ATOM     23  N   UNL     1       1.792   7.914  19.521  0.00  0.00    +0.000 N 
BRANCH  14  25
ATOM     24  C   UNL     1       3.294   1.677  18.575  0.00  0.00    +0.000 C 
ATOM     25  O   UNL     1       4.078   2.833  18.828  0.00  0.00    +0.000 OA
ENDBRANCH  14  25
ENDBRANCH  13  23
ENDBRANCH   1  13
BRANCH   3  26
ATOM     26  C   UNL     1       0.876  12.675  19.186  0.00  0.00    +0.000 C 
BRANCH  26  27
ATOM     27  N   UNL     1       2.274  13.115  19.183  0.00  0.00    +0.000 NA
ATOM     28  C   UNL     1       2.489  14.121  20.231  0.00  0.00    +0.000 C 
ATOM     29  C   UNL     1       2.142  15.457  19.595  0.00  0.00    +0.000 C 
ATOM     30  C   UNL     1       2.712  15.303  18.205  0.00  0.00    +0.000 C 
ATOM     31  C   UNL     1       2.540  13.823  17.897  0.00  0.00    +0.000 C 
ENDBRANCH  26  27
ENDBRANCH   3  26
TORSDOF 6
ENDMDL
