MODEL 1
REMARK VINA RESULT:      -8.2      0.000      0.000
REMARK  Name = 
REMARK  11 active torsions:
REMARK  status: ('A' for Active; 'I' for Inactive)
REMARK    1  A    between atoms: C_1  and  O_2
REMARK    2  A    between atoms: O_2  and  C_3
REMARK    3  A    between atoms: C_6  and  S_7
REMARK    4  A    between atoms: S_7  and  N_10
REMARK    5  A    between atoms: C_14  and  C_15
REMARK    6  A    between atoms: C_14  and  C_16
REMARK    7  A    between atoms: C_19  and  O_20
REMARK    8  A    between atoms: O_20  and  C_21
REMARK    9  A    between atoms: C_21  and  C_22
REMARK   10  A    between atoms: C_24  and  C_25
REMARK   11  A    between atoms: N_27  and  O_28
REMARK                            x       y       z     vdW  Elec       q    Type
REMARK                         _______ _______ _______ _____ _____    ______ ____
ROOT
ATOM      1  N   UNL     1       4.375   5.574  18.032  0.00  0.00    +0.000 NA
ATOM      2  C   UNL     1       4.201   5.666  16.544  0.00  0.00    +0.000 C 
ATOM      3  C   UNL     1       5.515   5.526  15.808  0.00  0.00    +0.000 C 
ATOM      4  O   UNL     1       5.405   5.364  14.395  0.00  0.00    +0.000 OA
ATOM      5  C   UNL     1       6.579   4.594  14.050  0.00  0.00    +0.000 C 
ATOM      6  C   UNL     1       6.158   3.441  13.149  0.00  0.00    +0.000 C 
ATOM      7  C   UNL     1       7.607   5.492  13.375  0.00  0.00    +0.000 C 
ATOM      8  O   UNL     1       7.178   4.074  15.251  0.00  0.00    +0.000 OA
ATOM      9  C   UNL     1       6.163   4.242  16.234  0.00  0.00    +0.000 C 
ATOM     10  C   UNL     1       6.642   4.364  17.665  0.00  0.00    +0.000 C 
ATOM     11  C   UNL     1       5.423   4.625  18.591  0.00  0.00    +0.000 C 
ENDROOT
BRANCH  11  12
ATOM     12  C   UNL     1       4.919   3.252  19.028  0.00  0.00    +0.000 C 
ATOM     13  O   UNL     1       5.190   2.749  20.118  0.00  0.00    +0.000 OA
ATOM     14  N   UNL     1       4.058   2.644  18.136  0.00  0.00    +0.000 N 
ATOM     15  H   UNL     1       4.227   2.730  17.133  0.00  0.00    +0.000 HD
BRANCH  14  16
ATOM     16  O   UNL     1       3.577   1.377  18.553  0.00  0.00    +0.000 OA
ATOM     17  H   UNL     1       3.788   1.365  19.514  0.00  0.00    +0.000 HD
ENDBRANCH  14  16
ENDBRANCH  11  12
BRANCH   1  18
ATOM     18  S   UNL     1       2.889   5.523  18.903  0.00  0.00    +0.000 S 
ATOM     19  O   UNL     1       3.207   5.084  20.245  0.00  0.00    +0.000 OA
ATOM     20  O   UNL     1       1.935   4.819  18.077  0.00  0.00    +0.000 OA
BRANCH  18  24
ATOM     21  C   UNL     1       1.377   9.823  18.904  0.00  0.00    +0.000 A 
ATOM     22  C   UNL     1       1.311   9.059  20.074  0.00  0.00    +0.000 A 
ATOM     23  C   UNL     1       1.837   7.766  20.113  0.00  0.00    +0.000 A 
ATOM     24  C   UNL     1       2.425   7.236  18.961  0.00  0.00    +0.000 A 
ATOM     25  C   UNL     1       2.528   8.002  17.798  0.00  0.00    +0.000 A 
ATOM     26  C   UNL     1       1.996   9.295  17.768  0.00  0.00    +0.000 A 
BRANCH  21  28
ATOM     27  C   UNL     1       0.589  11.581  20.287  0.00  0.00    +0.000 C 
ATOM     28  O   UNL     1       0.768  11.044  18.982  0.00  0.00    +0.000 OA
ENDBRANCH  21  28
ENDBRANCH  18  24
ENDBRANCH   1  18
BRANCH  10  29
ATOM     29  O   UNL     1       7.574   5.469  17.807  0.00  0.00    +0.000 OA
BRANCH  29  30
ATOM     30  C   UNL     1       7.801   5.880  19.086  0.00  0.00    +0.000 C 
ATOM     31  C   UNL     1       8.338   7.279  19.120  0.00  0.00    +0.000 C 
ATOM     32  O   UNL     1       7.618   5.212  20.092  0.00  0.00    +0.000 OA
ENDBRANCH  29  30
ENDBRANCH  10  29
TORSDOF 7
ENDMDL
MODEL 2
REMARK VINA RESULT:      -7.5      5.552      9.087
REMARK  Name = 
REMARK  11 active torsions:
REMARK  status: ('A' for Active; 'I' for Inactive)
REMARK    1  A    between atoms: C_1  and  O_2
REMARK    2  A    between atoms: O_2  and  C_3
REMARK    3  A    between atoms: C_6  and  S_7
REMARK    4  A    between atoms: S_7  and  N_10
REMARK    5  A    between atoms: C_14  and  C_15
REMARK    6  A    between atoms: C_14  and  C_16
REMARK    7  A    between atoms: C_19  and  O_20
REMARK    8  A    between atoms: O_20  and  C_21
REMARK    9  A    between atoms: C_21  and  C_22
REMARK   10  A    between atoms: C_24  and  C_25
REMARK   11  A    between atoms: N_27  and  O_28
REMARK                            x       y       z     vdW  Elec       q    Type
REMARK                         _______ _______ _______ _____ _____    ______ ____
ROOT
ATOM      1  N   UNL     1       0.388  12.459  19.649  0.00  0.00    +0.000 NA
ATOM      2  C   UNL     1      -0.765  12.833  18.763  0.00  0.00    +0.000 C 
ATOM      3  C   UNL     1      -1.204  11.683  17.885  0.00  0.00    +0.000 C 
ATOM      4  O   UNL     1      -2.436  11.882  17.193  0.00  0.00    +0.000 OA
ATOM      5  C   UNL     1      -2.959  10.543  17.041  0.00  0.00    +0.000 C 
ATOM      6  C   UNL     1      -4.421  10.541  17.465  0.00  0.00    +0.000 C 
ATOM      7  C   UNL     1      -2.789  10.082  15.600  0.00  0.00    +0.000 C 
ATOM      8  O   UNL     1      -2.212   9.641  17.877  0.00  0.00    +0.000 OA
ATOM      9  C   UNL     1      -1.510  10.506  18.763  0.00  0.00    +0.000 C 
ATOM     10  C   UNL     1      -0.225   9.955  19.343  0.00  0.00    +0.000 C 
ATOM     11  C   UNL     1       0.452  11.049  20.214  0.00  0.00    +0.000 C 
ENDROOT
BRANCH  11  12
ATOM     12  C   UNL     1      -0.095  10.867  21.627  0.00  0.00    +0.000 C 
ATOM     13  O   UNL     1      -1.175  11.326  21.998  0.00  0.00    +0.000 OA
ATOM     14  N   UNL     1       0.678  10.068  22.445  0.00  0.00    +0.000 N 
ATOM     15  H   UNL     1       1.696  10.128  22.393  0.00  0.00    +0.000 HD
BRANCH  14  16
ATOM     16  O   UNL     1       0.158   9.886  23.752  0.00  0.00    +0.000 OA
ATOM     17  H   UNL     1       0.946   9.601  24.266  0.00  0.00    +0.000 HD
ENDBRANCH  14  16
ENDBRANCH  11  12
BRANCH   1  18
ATOM     18  S   UNL     1       0.791  13.668  20.810  0.00  0.00    +0.000 S 
ATOM     19  O   UNL     1       1.926  13.166  21.556  0.00  0.00    +0.000 OA
ATOM     20  O   UNL     1      -0.437  14.058  21.462  0.00  0.00    +0.000 OA
BRANCH  18  24
ATOM     21  C   UNL     1       1.994  16.966  17.903  0.00  0.00    +0.000 A 
ATOM     22  C   UNL     1       0.947  17.178  18.806  0.00  0.00    +0.000 A 
ATOM     23  C   UNL     1       0.614  16.208  19.753  0.00  0.00    +0.000 A 
ATOM     24  C   UNL     1       1.335  15.011  19.784  0.00  0.00    +0.000 A 
ATOM     25  C   UNL     1       2.404  14.802  18.910  0.00  0.00    +0.000 A 
ATOM     26  C   UNL     1       2.729  15.779  17.964  0.00  0.00    +0.000 A 
BRANCH  21  28
ATOM     27  C   UNL     1       1.001  18.462  16.354  0.00  0.00    +0.000 C 
ATOM     28  O   UNL     1       2.173  17.965  16.988  0.00  0.00    +0.000 OA
ENDBRANCH  21  28
ENDBRANCH  18  24
ENDBRANCH   1  18
BRANCH  10  29
ATOM     29  O   UNL     1       0.697   9.570  18.289  0.00  0.00    +0.000 OA
BRANCH  29  30
ATOM     30  C   UNL     1       1.689   8.714  18.664  0.00  0.00    +0.000 C 
ATOM     31  C   UNL     1       2.644   8.462  17.537  0.00  0.00    +0.000 C 
ATOM     32  O   UNL     1       1.799   8.191  19.762  0.00  0.00    +0.000 OA
ENDBRANCH  29  30
ENDBRANCH  10  29
TORSDOF 7
ENDMDL
MODEL 3
REMARK VINA RESULT:      -7.3      2.627      6.203
REMARK  Name = 
REMARK  11 active torsions:
REMARK  status: ('A' for Active; 'I' for Inactive)
REMARK    1  A    between atoms: C_1  and  O_2
REMARK    2  A    between atoms: O_2  and  C_3
REMARK    3  A    between atoms: C_6  and  S_7
REMARK    4  A    between atoms: S_7  and  N_10
REMARK    5  A    between atoms: C_14  and  C_15
REMARK    6  A    between atoms: C_14  and  C_16
REMARK    7  A    between atoms: C_19  and  O_20
REMARK    8  A    between atoms: O_20  and  C_21
REMARK    9  A    between atoms: C_21  and  C_22
REMARK   10  A    between atoms: C_24  and  C_25
REMARK   11  A    between atoms: N_27  and  O_28
REMARK                            x       y       z     vdW  Elec       q    Type
REMARK                         _______ _______ _______ _____ _____    ______ ____
ROOT
ATOM      1  N   UNL     1       5.753   5.846  18.533  0.00  0.00    +0.000 NA
ATOM      2  C   UNL     1       5.365   4.577  19.236  0.00  0.00    +0.000 C 
ATOM      3  C   UNL     1       3.882   4.518  19.526  0.00  0.00    +0.000 C 
ATOM      4  O   UNL     1       3.400   3.252  19.971  0.00  0.00    +0.000 OA
ATOM      5  C   UNL     1       2.028   3.231  19.516  0.00  0.00    +0.000 C 
ATOM      6  C   UNL     1       1.764   1.900  18.827  0.00  0.00    +0.000 C 
ATOM      7  C   UNL     1       1.089   3.455  20.694  0.00  0.00    +0.000 C 
ATOM      8  O   UNL     1       1.820   4.308  18.585  0.00  0.00    +0.000 OA
ATOM      9  C   UNL     1       3.138   4.715  18.238  0.00  0.00    +0.000 C 
ATOM     10  C   UNL     1       3.289   6.149  17.777  0.00  0.00    +0.000 C 
ATOM     11  C   UNL     1       4.791   6.449  17.522  0.00  0.00    +0.000 C 
ENDROOT
BRANCH  11  12
ATOM     12  C   UNL     1       5.052   6.103  16.059  0.00  0.00    +0.000 C 
ATOM     13  O   UNL     1       5.300   6.947  15.199  0.00  0.00    +0.000 OA
ATOM     14  N   UNL     1       5.073   4.750  15.783  0.00  0.00    +0.000 N 
ATOM     15  H   UNL     1       4.412   4.129  16.251  0.00  0.00    +0.000 HD
BRANCH  14  16
ATOM     16  O   UNL     1       5.334   4.431  14.426  0.00  0.00    +0.000 OA
ATOM     17  H   UNL     1       5.169   5.282  13.962  0.00  0.00    +0.000 HD
ENDBRANCH  14  16
ENDBRANCH  11  12
BRANCH   1  18
ATOM     18  S   UNL     1       7.392   5.871  18.000  0.00  0.00    +0.000 S 
ATOM     19  O   UNL     1       7.373   5.569  16.584  0.00  0.00    +0.000 OA
ATOM     20  O   UNL     1       8.157   5.081  18.937  0.00  0.00    +0.000 OA
BRANCH  18  24
ATOM     21  C   UNL     1       8.841  10.176  18.372  0.00  0.00    +0.000 A 
ATOM     22  C   UNL     1       7.958   9.823  17.347  0.00  0.00    +0.000 A 
ATOM     23  C   UNL     1       7.445   8.527  17.262  0.00  0.00    +0.000 A 
ATOM     24  C   UNL     1       7.833   7.578  18.212  0.00  0.00    +0.000 A 
ATOM     25  C   UNL     1       8.687   7.928  19.260  0.00  0.00    +0.000 A 
ATOM     26  C   UNL     1       9.197   9.228  19.335  0.00  0.00    +0.000 A 
BRANCH  21  28
ATOM     27  C   UNL     1      10.601  11.622  17.711  0.00  0.00    +0.000 C 
ATOM     28  O   UNL     1       9.318  11.455  18.303  0.00  0.00    +0.000 OA
ENDBRANCH  21  28
ENDBRANCH  18  24
ENDBRANCH   1  18
BRANCH  10  29
ATOM     29  O   UNL     1       2.799   7.072  18.787  0.00  0.00    +0.000 OA
BRANCH  29  30
ATOM     30  C   UNL     1       2.246   8.221  18.308  0.00  0.00    +0.000 C 
ATOM     31  C   UNL     1       1.412   8.899  19.352  0.00  0.00    +0.000 C 
ATOM     32  O   UNL     1       2.379   8.656  17.174  0.00  0.00    +0.000 OA
ENDBRANCH  29  30
ENDBRANCH  10  29
TORSDOF 7
ENDMDL
MODEL 4
REMARK VINA RESULT:      -7.2      2.239      7.046
REMARK  Name = 
REMARK  11 active torsions:
REMARK  status: ('A' for Active; 'I' for Inactive)
REMARK    1  A    between atoms: C_1  and  O_2
REMARK    2  A    between atoms: O_2  and  C_3
REMARK    3  A    between atoms: C_6  and  S_7
REMARK    4  A    between atoms: S_7  and  N_10
REMARK    5  A    between atoms: C_14  and  C_15
REMARK    6  A    between atoms: C_14  and  C_16
REMARK    7  A    between atoms: C_19  and  O_20
REMARK    8  A    between atoms: O_20  and  C_21
REMARK    9  A    between atoms: C_21  and  C_22
REMARK   10  A    between atoms: C_24  and  C_25
REMARK   11  A    between atoms: N_27  and  O_28
REMARK                            x       y       z     vdW  Elec       q    Type
REMARK                         _______ _______ _______ _____ _____    ______ ____
ROOT
ATOM      1  N   UNL     1       5.679   4.894  17.009  0.00  0.00    +0.000 NA
ATOM      2  C   UNL     1       4.419   5.711  17.005  0.00  0.00    +0.000 C 
ATOM      3  C   UNL     1       3.478   5.309  18.118  0.00  0.00    +0.000 C 
ATOM      4  O   UNL     1       2.375   6.190  18.328  0.00  0.00    +0.000 OA
ATOM      5  C   UNL     1       2.082   6.036  19.735  0.00  0.00    +0.000 C 
ATOM      6  C   UNL     1       1.938   7.418  20.357  0.00  0.00    +0.000 C 
ATOM      7  C   UNL     1       0.820   5.203  19.913  0.00  0.00    +0.000 C 
ATOM      8  O   UNL     1       3.162   5.329  20.372  0.00  0.00    +0.000 OA
ATOM      9  C   UNL     1       4.217   5.396  19.420  0.00  0.00    +0.000 C 
ATOM     10  C   UNL     1       5.247   4.289  19.495  0.00  0.00    +0.000 C 
ATOM     11  C   UNL     1       6.271   4.464  18.341  0.00  0.00    +0.000 C 
ENDROOT
BRANCH  11  12
ATOM     12  C   UNL     1       7.388   5.345  18.894  0.00  0.00    +0.000 C 
ATOM     13  O   UNL     1       8.277   4.924  19.633  0.00  0.00    +0.000 OA
ATOM     14  N   UNL     1       7.378   6.646  18.432  0.00  0.00    +0.000 N 
ATOM     15  H   UNL     1       6.487   7.128  18.302  0.00  0.00    +0.000 HD
BRANCH  14  16
ATOM     16  O   UNL     1       8.428   7.457  18.933  0.00  0.00    +0.000 OA
ATOM     17  H   UNL     1       9.040   6.802  19.337  0.00  0.00    +0.000 HD
ENDBRANCH  14  16
ENDBRANCH  11  12
BRANCH   1  18
ATOM     18  S   UNL     1       6.869   5.448  15.892  0.00  0.00    +0.000 S 
ATOM     19  O   UNL     1       8.130   4.871  16.307  0.00  0.00    +0.000 OA
ATOM     20  O   UNL     1       6.692   6.874  15.754  0.00  0.00    +0.000 OA
BRANCH  18  24
ATOM     21  C   UNL     1       5.764   3.159  12.107  0.00  0.00    +0.000 A 
ATOM     22  C   UNL     1       4.883   3.179  13.194  0.00  0.00    +0.000 A 
ATOM     23  C   UNL     1       5.171   3.935  14.332  0.00  0.00    +0.000 A 
ATOM     24  C   UNL     1       6.359   4.669  14.379  0.00  0.00    +0.000 A 
ATOM     25  C   UNL     1       7.229   4.685  13.286  0.00  0.00    +0.000 A 
ATOM     26  C   UNL     1       6.933   3.923  12.152  0.00  0.00    +0.000 A 
BRANCH  21  28
ATOM     27  C   UNL     1       5.967   1.027  11.090  0.00  0.00    +0.000 C 
ATOM     28  O   UNL     1       5.396   2.330  11.086  0.00  0.00    +0.000 OA
ENDBRANCH  21  28
ENDBRANCH  18  24
ENDBRANCH   1  18
BRANCH  10  29
ATOM     29  O   UNL     1       4.618   2.986  19.360  0.00  0.00    +0.000 OA
BRANCH  29  30
ATOM     30  C   UNL     1       4.477   2.282  20.518  0.00  0.00    +0.000 C 
ATOM     31  C   UNL     1       3.075   2.370  21.039  0.00  0.00    +0.000 C 
ATOM     32  O   UNL     1       5.363   1.668  21.090  0.00  0.00    +0.000 OA
ENDBRANCH  29  30
ENDBRANCH  10  29
TORSDOF 7
ENDMDL
MODEL 5
REMARK VINA RESULT:      -7.2      1.090      1.576
REMARK  Name = 
REMARK  11 active torsions:
REMARK  status: ('A' for Active; 'I' for Inactive)
REMARK    1  A    between atoms: C_1  and  O_2
REMARK    2  A    between atoms: O_2  and  C_3
REMARK    3  A    between atoms: C_6  and  S_7
REMARK    4  A    between atoms: S_7  and  N_10
REMARK    5  A    between atoms: C_14  and  C_15
REMARK    6  A    between atoms: C_14  and  C_16
REMARK    7  A    between atoms: C_19  and  O_20
REMARK    8  A    between atoms: O_20  and  C_21
REMARK    9  A    between atoms: C_21  and  C_22
REMARK   10  A    between atoms: C_24  and  C_25
REMARK   11  A    between atoms: N_27  and  O_28
REMARK                            x       y       z     vdW  Elec       q    Type
REMARK                         _______ _______ _______ _____ _____    ______ ____
ROOT
ATOM      1  N   UNL     1       4.534   6.149  17.648  0.00  0.00    +0.000 NA
ATOM      2  C   UNL     1       4.279   5.677  16.245  0.00  0.00    +0.000 C 
ATOM      3  C   UNL     1       5.513   5.781  15.378  0.00  0.00    +0.000 C 
ATOM      4  O   UNL     1       5.419   5.134  14.109  0.00  0.00    +0.000 OA
ATOM      5  C   UNL     1       6.786   4.767  13.814  0.00  0.00    +0.000 C 
ATOM      6  C   UNL     1       6.813   3.312  13.366  0.00  0.00    +0.000 C 
ATOM      7  C   UNL     1       7.353   5.697  12.751  0.00  0.00    +0.000 C 
ATOM      8  O   UNL     1       7.587   4.922  15.000  0.00  0.00    +0.000 OA
ATOM      9  C   UNL     1       6.627   5.030  16.044  0.00  0.00    +0.000 C 
ATOM     10  C   UNL     1       7.077   5.779  17.281  0.00  0.00    +0.000 C 
ATOM     11  C   UNL     1       5.890   5.877  18.278  0.00  0.00    +0.000 C 
ENDROOT
BRANCH  11  12
ATOM     12  C   UNL     1       5.981   4.641  19.169  0.00  0.00    +0.000 C 
ATOM     13  O   UNL     1       6.609   4.615  20.226  0.00  0.00    +0.000 OA
ATOM     14  N   UNL     1       5.227   3.567  18.741  0.00  0.00    +0.000 N 
ATOM     15  H   UNL     1       5.162   3.362  17.743  0.00  0.00    +0.000 HD
BRANCH  14  16
ATOM     16  O   UNL     1       5.299   2.426  19.580  0.00  0.00    +0.000 OA
ATOM     17  H   UNL     1       6.045   1.914  19.196  0.00  0.00    +0.000 HD
ENDBRANCH  14  16
ENDBRANCH  11  12
BRANCH   1  18
ATOM     18  S   UNL     1       3.221   5.860  18.726  0.00  0.00    +0.000 S 
ATOM     19  O   UNL     1       3.799   5.639  20.036  0.00  0.00    +0.000 OA
ATOM     20  O   UNL     1       2.361   4.885  18.099  0.00  0.00    +0.000 OA
BRANCH  18  24
ATOM     21  C   UNL     1       1.368  10.021  18.912  0.00  0.00    +0.000 A 
ATOM     22  C   UNL     1       1.990   9.585  17.737  0.00  0.00    +0.000 A 
ATOM     23  C   UNL     1       2.497   8.288  17.637  0.00  0.00    +0.000 A 
ATOM     24  C   UNL     1       2.385   7.426  18.732  0.00  0.00    +0.000 A 
ATOM     25  C   UNL     1       1.735   7.840  19.898  0.00  0.00    +0.000 A 
ATOM     26  C   UNL     1       1.233   9.142  19.989  0.00  0.00    +0.000 A 
BRANCH  21  28
ATOM     27  C   UNL     1      -0.415  11.573  18.729  0.00  0.00    +0.000 C 
ATOM     28  O   UNL     1       0.976  11.330  18.900  0.00  0.00    +0.000 OA
ENDBRANCH  21  28
ENDBRANCH  18  24
ENDBRANCH   1  18
BRANCH  10  29
ATOM     29  O   UNL     1       7.508   7.125  16.943  0.00  0.00    +0.000 OA
BRANCH  29  30
ATOM     30  C   UNL     1       8.065   7.833  17.965  0.00  0.00    +0.000 C 
ATOM     31  C   UNL     1       8.003   9.307  17.703  0.00  0.00    +0.000 C 
ATOM     32  O   UNL     1       8.575   7.355  18.967  0.00  0.00    +0.000 OA
ENDBRANCH  29  30
ENDBRANCH  10  29
TORSDOF 7
ENDMDL
MODEL 6
REMARK VINA RESULT:      -7.2      7.156     13.326
REMARK  Name = 
REMARK  11 active torsions:
REMARK  status: ('A' for Active; 'I' for Inactive)
REMARK    1  A    between atoms: C_1  and  O_2
REMARK    2  A    between atoms: O_2  and  C_3
REMARK    3  A    between atoms: C_6  and  S_7
REMARK    4  A    between atoms: S_7  and  N_10
REMARK    5  A    between atoms: C_14  and  C_15
REMARK    6  A    between atoms: C_14  and  C_16
REMARK    7  A    between atoms: C_19  and  O_20
REMARK    8  A    between atoms: O_20  and  C_21
REMARK    9  A    between atoms: C_21  and  C_22
REMARK   10  A    between atoms: C_24  and  C_25
REMARK   11  A    between atoms: N_27  and  O_28
REMARK                            x       y       z     vdW  Elec       q    Type
REMARK                         _______ _______ _______ _____ _____    ______ ____
ROOT
ATOM      1  N   UNL     1      -3.095  13.098  22.210  0.00  0.00    +0.000 NA
ATOM      2  C   UNL     1      -3.379  13.056  20.737  0.00  0.00    +0.000 C 
ATOM      3  C   UNL     1      -4.838  12.787  20.447  0.00  0.00    +0.000 C 
ATOM      4  O   UNL     1      -5.231  12.969  19.087  0.00  0.00    +0.000 OA
ATOM      5  C   UNL     1      -6.624  13.343  19.183  0.00  0.00    +0.000 C 
ATOM      6  C   UNL     1      -6.860  14.566  18.307  0.00  0.00    +0.000 C 
ATOM      7  C   UNL     1      -7.504  12.172  18.770  0.00  0.00    +0.000 C 
ATOM      8  O   UNL     1      -6.938  13.662  20.551  0.00  0.00    +0.000 OA
ATOM      9  C   UNL     1      -5.662  13.815  21.163  0.00  0.00    +0.000 C 
ATOM     10  C   UNL     1      -5.610  13.560  22.655  0.00  0.00    +0.000 C 
ATOM     11  C   UNL     1      -4.141  13.686  23.143  0.00  0.00    +0.000 C 
ENDROOT
BRANCH  11  12
ATOM     12  C   UNL     1      -3.946  15.149  23.532  0.00  0.00    +0.000 C 
ATOM     13  O   UNL     1      -3.876  16.063  22.711  0.00  0.00    +0.000 OA
ATOM     14  N   UNL     1      -3.939  15.387  24.892  0.00  0.00    +0.000 N 
ATOM     15  H   UNL     1      -3.485  14.721  25.519  0.00  0.00    +0.000 HD
BRANCH  14  16
ATOM     16  O   UNL     1      -3.777  16.749  25.250  0.00  0.00    +0.000 OA
ATOM     17  H   UNL     1      -3.090  16.713  25.954  0.00  0.00    +0.000 HD
ENDBRANCH  14  16
ENDBRANCH  11  12
BRANCH   1  18
ATOM     18  S   UNL     1      -1.492  13.602  22.594  0.00  0.00    +0.000 S 
ATOM     19  O   UNL     1      -1.444  13.778  24.030  0.00  0.00    +0.000 OA
ATOM     20  O   UNL     1      -1.152  14.671  21.684  0.00  0.00    +0.000 OA
BRANCH  18  24
ATOM     21  C   UNL     1       0.691   9.823  21.280  0.00  0.00    +0.000 A 
ATOM     22  C   UNL     1       0.967  11.042  20.653  0.00  0.00    +0.000 A 
ATOM     23  C   UNL     1       0.363  12.223  21.091  0.00  0.00    +0.000 A 
ATOM     24  C   UNL     1      -0.532  12.172  22.164  0.00  0.00    +0.000 A 
ATOM     25  C   UNL     1      -0.788  10.966  22.820  0.00  0.00    +0.000 A 
ATOM     26  C   UNL     1      -0.180   9.789  22.372  0.00  0.00    +0.000 A 
BRANCH  21  28
ATOM     27  C   UNL     1       1.518   8.796  19.309  0.00  0.00    +0.000 C 
ATOM     28  O   UNL     1       1.296   8.737  20.713  0.00  0.00    +0.000 OA
ENDBRANCH  21  28
ENDBRANCH  18  24
ENDBRANCH   1  18
BRANCH  10  29
ATOM     29  O   UNL     1      -6.087  12.224  22.969  0.00  0.00    +0.000 OA
BRANCH  29  30
ATOM     30  C   UNL     1      -7.239  12.171  23.694  0.00  0.00    +0.000 C 
ATOM     31  C   UNL     1      -7.624  13.528  24.202  0.00  0.00    +0.000 C 
ATOM     32  O   UNL     1      -7.885  11.162  23.933  0.00  0.00    +0.000 OA
ENDBRANCH  29  30
ENDBRANCH  10  29
TORSDOF 7
ENDMDL
MODEL 7
REMARK VINA RESULT:      -7.0      4.918     11.045
REMARK  Name = 
REMARK  11 active torsions:
REMARK  status: ('A' for Active; 'I' for Inactive)
REMARK    1  A    between atoms: C_1  and  O_2
REMARK    2  A    between atoms: O_2  and  C_3
REMARK    3  A    between atoms: C_6  and  S_7
REMARK    4  A    between atoms: S_7  and  N_10
REMARK    5  A    between atoms: C_14  and  C_15
REMARK    6  A    between atoms: C_14  and  C_16
REMARK    7  A    between atoms: C_19  and  O_20
REMARK    8  A    between atoms: O_20  and  C_21
REMARK    9  A    between atoms: C_21  and  C_22
REMARK   10  A    between atoms: C_24  and  C_25
REMARK   11  A    between atoms: N_27  and  O_28
REMARK                            x       y       z     vdW  Elec       q    Type
REMARK                         _______ _______ _______ _____ _____    ______ ____
ROOT
ATOM      1  N   UNL     1      -1.018  11.681  20.111  0.00  0.00    +0.000 NA
ATOM      2  C   UNL     1      -1.809  11.107  18.971  0.00  0.00    +0.000 C 
ATOM      3  C   UNL     1      -3.299  11.200  19.209  0.00  0.00    +0.000 C 
ATOM      4  O   UNL     1      -4.115  10.897  18.079  0.00  0.00    +0.000 OA
ATOM      5  C   UNL     1      -5.307  11.683  18.301  0.00  0.00    +0.000 C 
ATOM      6  C   UNL     1      -5.648  12.424  17.015  0.00  0.00    +0.000 C 
ATOM      7  C   UNL     1      -6.447  10.779  18.751  0.00  0.00    +0.000 C 
ATOM      8  O   UNL     1      -5.063  12.632  19.355  0.00  0.00    +0.000 OA
ATOM      9  C   UNL     1      -3.646  12.633  19.487  0.00  0.00    +0.000 C 
ATOM     10  C   UNL     1      -3.108  13.033  20.844  0.00  0.00    +0.000 C 
ATOM     11  C   UNL     1      -1.561  12.899  20.840  0.00  0.00    +0.000 C 
ENDROOT
BRANCH  11  12
ATOM     12  C   UNL     1      -1.018  14.251  20.386  0.00  0.00    +0.000 C 
ATOM     13  O   UNL     1      -0.460  15.044  21.144  0.00  0.00    +0.000 OA
ATOM     14  N   UNL     1      -1.124  14.488  19.030  0.00  0.00    +0.000 N 
ATOM     15  H   UNL     1      -1.958  14.179  18.528  0.00  0.00    +0.000 HD
BRANCH  14  16
ATOM     16  O   UNL     1      -0.602  15.737  18.609  0.00  0.00    +0.000 OA
ATOM     17  H   UNL     1      -0.883  15.789  17.667  0.00  0.00    +0.000 HD
ENDBRANCH  14  16
ENDBRANCH  11  12
BRANCH   1  18
ATOM     18  S   UNL     1       0.674  11.784  19.799  0.00  0.00    +0.000 S 
ATOM     19  O   UNL     1       1.294  12.257  21.019  0.00  0.00    +0.000 OA
ATOM     20  O   UNL     1       0.835  12.480  18.544  0.00  0.00    +0.000 OA
BRANCH  18  24
ATOM     21  C   UNL     1       2.164   7.512  19.247  0.00  0.00    +0.000 A 
ATOM     22  C   UNL     1       1.602   7.903  20.467  0.00  0.00    +0.000 A 
ATOM     23  C   UNL     1       1.073   9.185  20.630  0.00  0.00    +0.000 A 
ATOM     24  C   UNL     1       1.119  10.082  19.558  0.00  0.00    +0.000 A 
ATOM     25  C   UNL     1       1.646   9.691  18.325  0.00  0.00    +0.000 A 
ATOM     26  C   UNL     1       2.176   8.405  18.173  0.00  0.00    +0.000 A 
BRANCH  21  28
ATOM     27  C   UNL     1       3.054   5.722  17.971  0.00  0.00    +0.000 C 
ATOM     28  O   UNL     1       2.703   6.256  19.242  0.00  0.00    +0.000 OA
ENDBRANCH  21  28
ENDBRANCH  18  24
ENDBRANCH   1  18
BRANCH  10  29
ATOM     29  O   UNL     1      -3.643  12.175  21.887  0.00  0.00    +0.000 OA
BRANCH  29  30
ATOM     30  C   UNL     1      -4.527  12.769  22.737  0.00  0.00    +0.000 C 
ATOM     31  C   UNL     1      -3.904  13.937  23.438  0.00  0.00    +0.000 C 
ATOM     32  O   UNL     1      -5.676  12.408  22.935  0.00  0.00    +0.000 OA
ENDBRANCH  29  30
ENDBRANCH  10  29
TORSDOF 7
ENDMDL
MODEL 8
REMARK VINA RESULT:      -7.0      5.712      9.156
REMARK  Name = 
REMARK  11 active torsions:
REMARK  status: ('A' for Active; 'I' for Inactive)
REMARK    1  A    between atoms: C_1  and  O_2
REMARK    2  A    between atoms: O_2  and  C_3
REMARK    3  A    between atoms: C_6  and  S_7
REMARK    4  A    between atoms: S_7  and  N_10
REMARK    5  A    between atoms: C_14  and  C_15
REMARK    6  A    between atoms: C_14  and  C_16
REMARK    7  A    between atoms: C_19  and  O_20
REMARK    8  A    between atoms: O_20  and  C_21
REMARK    9  A    between atoms: C_21  and  C_22
REMARK   10  A    between atoms: C_24  and  C_25
REMARK   11  A    between atoms: N_27  and  O_28
REMARK                            x       y       z     vdW  Elec       q    Type
REMARK                         _______ _______ _______ _____ _____    ______ ____
ROOT
ATOM      1  N   UNL     1       0.168  12.504  19.562  0.00  0.00    +0.000 NA
ATOM      2  C   UNL     1      -0.920  12.867  18.593  0.00  0.00    +0.000 C 
ATOM      3  C   UNL     1      -1.326  11.695  17.729  0.00  0.00    +0.000 C 
ATOM      4  O   UNL     1      -2.508  11.891  16.955  0.00  0.00    +0.000 OA
ATOM      5  C   UNL     1      -3.048  10.558  16.815  0.00  0.00    +0.000 C 
ATOM      6  C   UNL     1      -4.533  10.597  17.146  0.00  0.00    +0.000 C 
ATOM      7  C   UNL     1      -2.797  10.044  15.404  0.00  0.00    +0.000 C 
ATOM      8  O   UNL     1      -2.372   9.672  17.726  0.00  0.00    +0.000 OA
ATOM      9  C   UNL     1      -1.710  10.554  18.625  0.00  0.00    +0.000 C 
ATOM     10  C   UNL     1      -0.474  10.002  19.303  0.00  0.00    +0.000 C 
ATOM     11  C   UNL     1       0.169  11.114  20.178  0.00  0.00    +0.000 C 
ENDROOT
BRANCH  11  12
ATOM     12  C   UNL     1      -0.469  10.991  21.559  0.00  0.00    +0.000 C 
ATOM     13  O   UNL     1      -1.524  11.542  21.867  0.00  0.00    +0.000 OA
ATOM     14  N   UNL     1       0.188  10.136  22.422  0.00  0.00    +0.000 N 
ATOM     15  H   UNL     1       1.209  10.109  22.426  0.00  0.00    +0.000 HD
BRANCH  14  16
ATOM     16  O   UNL     1      -0.417  10.010  23.698  0.00  0.00    +0.000 OA
ATOM     17  H   UNL     1      -0.457  10.939  24.018  0.00  0.00    +0.000 HD
ENDBRANCH  14  16
ENDBRANCH  11  12
BRANCH   1  18
ATOM     18  S   UNL     1       0.522  13.745  20.705  0.00  0.00    +0.000 S 
ATOM     19  O   UNL     1       1.193  13.106  21.818  0.00  0.00    +0.000 OA
ATOM     20  O   UNL     1      -0.686  14.516  20.884  0.00  0.00    +0.000 OA
BRANCH  18  24
ATOM     21  C   UNL     1       3.642  16.451  18.776  0.00  0.00    +0.000 A 
ATOM     22  C   UNL     1       3.951  15.115  19.051  0.00  0.00    +0.000 A 
ATOM     23  C   UNL     1       2.985  14.252  19.572  0.00  0.00    +0.000 A 
ATOM     24  C   UNL     1       1.700  14.742  19.827  0.00  0.00    +0.000 A 
ATOM     25  C   UNL     1       1.371  16.065  19.525  0.00  0.00    +0.000 A 
ATOM     26  C   UNL     1       2.347  16.922  19.005  0.00  0.00    +0.000 A 
BRANCH  21  28
ATOM     27  C   UNL     1       5.883  17.150  19.108  0.00  0.00    +0.000 C 
ATOM     28  O   UNL     1       4.693  17.202  18.331  0.00  0.00    +0.000 OA
ENDBRANCH  21  28
ENDBRANCH  18  24
ENDBRANCH   1  18
BRANCH  10  29
ATOM     29  O   UNL     1       0.504   9.564  18.322  0.00  0.00    +0.000 OA
BRANCH  29  30
ATOM     30  C   UNL     1       1.513   8.790  18.810  0.00  0.00    +0.000 C 
ATOM     31  C   UNL     1       2.517   8.471  17.744  0.00  0.00    +0.000 C 
ATOM     32  O   UNL     1       1.605   8.378  19.956  0.00  0.00    +0.000 OA
ENDBRANCH  29  30
ENDBRANCH  10  29
TORSDOF 7
ENDMDL
MODEL 9
REMARK VINA RESULT:      -6.9      5.634     11.759
REMARK  Name = 
REMARK  11 active torsions:
REMARK  status: ('A' for Active; 'I' for Inactive)
REMARK    1  A    between atoms: C_1  and  O_2
REMARK    2  A    between atoms: O_2  and  C_3
REMARK    3  A    between atoms: C_6  and  S_7
REMARK    4  A    between atoms: S_7  and  N_10
REMARK    5  A    between atoms: C_14  and  C_15
REMARK    6  A    between atoms: C_14  and  C_16
REMARK    7  A    between atoms: C_19  and  O_20
REMARK    8  A    between atoms: O_20  and  C_21
REMARK    9  A    between atoms: C_21  and  C_22
REMARK   10  A    between atoms: C_24  and  C_25
REMARK   11  A    between atoms: N_27  and  O_28
REMARK                            x       y       z     vdW  Elec       q    Type
REMARK                         _______ _______ _______ _____ _____    ______ ____
ROOT
ATOM      1  N   UNL     1      -1.785  12.323  20.632  0.00  0.00    +0.000 NA
ATOM      2  C   UNL     1      -2.441  11.859  19.363  0.00  0.00    +0.000 C 
ATOM      3  C   UNL     1      -3.947  11.799  19.491  0.00  0.00    +0.000 C 
ATOM      4  O   UNL     1      -4.653  11.600  18.267  0.00  0.00    +0.000 OA
ATOM      5  C   UNL     1      -5.923  12.250  18.498  0.00  0.00    +0.000 C 
ATOM      6  C   UNL     1      -6.239  13.140  17.304  0.00  0.00    +0.000 C 
ATOM      7  C   UNL     1      -7.005  11.203  18.725  0.00  0.00    +0.000 C 
ATOM      8  O   UNL     1      -5.838  13.052  19.690  0.00  0.00    +0.000 OA
ATOM      9  C   UNL     1      -4.439  13.145  19.935  0.00  0.00    +0.000 C 
ATOM     10  C   UNL     1      -4.034  13.385  21.374  0.00  0.00    +0.000 C 
ATOM     11  C   UNL     1      -2.484  13.375  21.477  0.00  0.00    +0.000 C 
ENDROOT
BRANCH  11  12
ATOM     12  C   UNL     1      -2.034  14.817  21.260  0.00  0.00    +0.000 C 
ATOM     13  O   UNL     1      -1.478  15.489  22.128  0.00  0.00    +0.000 OA
ATOM     14  N   UNL     1      -2.223  15.292  19.977  0.00  0.00    +0.000 N 
ATOM     15  H   UNL     1      -3.064  15.032  19.461  0.00  0.00    +0.000 HD
BRANCH  14  16
ATOM     16  O   UNL     1      -1.787  16.626  19.774  0.00  0.00    +0.000 OA
ATOM     17  H   UNL     1      -2.534  17.160  20.127  0.00  0.00    +0.000 HD
ENDBRANCH  14  16
ENDBRANCH  11  12
BRANCH   1  18
ATOM     18  S   UNL     1      -0.092  12.602  20.475  0.00  0.00    +0.000 S 
ATOM     19  O   UNL     1       0.420  12.816  21.812  0.00  0.00    +0.000 OA
ATOM     20  O   UNL     1       0.083  13.581  19.427  0.00  0.00    +0.000 OA
BRANCH  18  24
ATOM     21  C   UNL     1       1.761   8.691  19.045  0.00  0.00    +0.000 A 
ATOM     22  C   UNL     1       1.189   8.768  20.319  0.00  0.00    +0.000 A 
ATOM     23  C   UNL     1       0.551   9.935  20.746  0.00  0.00    +0.000 A 
ATOM     24  C   UNL     1       0.497  11.035  19.885  0.00  0.00    +0.000 A 
ATOM     25  C   UNL     1       1.035  10.958  18.598  0.00  0.00    +0.000 A 
ATOM     26  C   UNL     1       1.674   9.786  18.181  0.00  0.00    +0.000 A 
BRANCH  21  28
ATOM     27  C   UNL     1       2.319   6.504  19.771  0.00  0.00    +0.000 C 
ATOM     28  O   UNL     1       2.409   7.518  18.778  0.00  0.00    +0.000 OA
ENDBRANCH  21  28
ENDBRANCH  18  24
ENDBRANCH   1  18
BRANCH  10  29
ATOM     29  O   UNL     1      -4.561  12.345  22.241  0.00  0.00    +0.000 OA
BRANCH  29  30
ATOM     30  C   UNL     1      -4.736  12.704  23.543  0.00  0.00    +0.000 C 
ATOM     31  C   UNL     1      -5.412  14.037  23.653  0.00  0.00    +0.000 C 
ATOM     32  O   UNL     1      -4.381  12.055  24.515  0.00  0.00    +0.000 OA
ENDBRANCH  29  30
ENDBRANCH  10  29
TORSDOF 7
ENDMDL
