MODEL 1
REMARK VINA RESULT:      -7.0      0.000      0.000
REMARK  Name = 
REMARK  5 active torsions:
REMARK  status: ('A' for Active; 'I' for Inactive)
REMARK    1  A    between atoms: C_1  and  O_2
REMARK    2  A    between atoms: O_2  and  C_3
REMARK    3  A    between atoms: C_5  and  C_6
REMARK    4  A    between atoms: C_10  and  S_11
REMARK    5  A    between atoms: S_11  and  N_14
REMARK                            x       y       z     vdW  Elec       q    Type
REMARK                         _______ _______ _______ _____ _____    ______ ____
ROOT
ATOM      1  C   UNL     1       2.620   5.200  20.010  0.00  0.00    +0.000 A 
ATOM      2  C   UNL     1       1.869   6.151  20.739  0.00  0.00    +0.000 A 
ATOM      3  C   UNL     1       1.611   7.451  20.260  0.00  0.00    +0.000 A 
ATOM      4  C   UNL     1       0.796   8.402  21.098  0.00  0.00    +0.000 C 
ATOM      5  C   UNL     1       2.115   7.810  19.014  0.00  0.00    +0.000 A 
ATOM      6 BR   UNL     1       1.811   9.512  18.239  0.00  0.00    +0.000 Br
ATOM      7  C   UNL     1       2.886   6.899  18.300  0.00  0.00    +0.000 A 
ATOM      8  C   UNL     1       3.161   5.600  18.791  0.00  0.00    +0.000 A 
ENDROOT
BRANCH   8   9
ATOM      9  S   UNL     1       4.213   4.703  17.679  0.00  0.00    +0.000 S 
ATOM     10  O   UNL     1       5.178   4.047  18.541  0.00  0.00    +0.000 OA
ATOM     11  O   UNL     1       3.307   3.893  16.890  0.00  0.00    +0.000 OA
BRANCH   9  12
ATOM     12  N   UNL     1       5.124   5.629  16.581  0.00  0.00    +0.000 NA
ATOM     13  C   UNL     1       5.469   5.058  15.242  0.00  0.00    +0.000 C 
ATOM     14  C   UNL     1       6.584   4.008  15.311  0.00  0.00    +0.000 C 
ATOM     15  O   UNL     1       7.768   4.526  15.930  0.00  0.00    +0.000 OA
ATOM     16  C   UNL     1       7.488   5.014  17.249  0.00  0.00    +0.000 C 
ATOM     17  C   UNL     1       6.422   6.121  17.212  0.00  0.00    +0.000 C 
ENDBRANCH   9  12
ENDBRANCH   8   9
BRANCH   1  19
ATOM     18  C   UNL     1       2.085   3.520  21.617  0.00  0.00    +0.000 C 
ATOM     19  O   UNL     1       2.821   3.928  20.463  0.00  0.00    +0.000 OA
ENDBRANCH   1  19
TORSDOF 3
ENDMDL
MODEL 2
REMARK VINA RESULT:      -6.8      3.338      6.280
REMARK  Name = 
REMARK  5 active torsions:
REMARK  status: ('A' for Active; 'I' for Inactive)
REMARK    1  A    between atoms: C_1  and  O_2
REMARK    2  A    between atoms: O_2  and  C_3
REMARK    3  A    between atoms: C_5  and  C_6
REMARK    4  A    between atoms: C_10  and  S_11
REMARK    5  A    between atoms: S_11  and  N_14
REMARK                            x       y       z     vdW  Elec       q    Type
REMARK                         _______ _______ _______ _____ _____    ______ ____
ROOT
ATOM      1  C   UNL     1       6.904   5.461  16.517  0.00  0.00    +0.000 A 
ATOM      2  C   UNL     1       7.563   5.559  15.269  0.00  0.00    +0.000 A 
ATOM      3  C   UNL     1       7.077   4.943  14.098  0.00  0.00    +0.000 A 
ATOM      4  C   UNL     1       7.837   5.102  12.807  0.00  0.00    +0.000 C 
ATOM      5  C   UNL     1       5.897   4.211  14.176  0.00  0.00    +0.000 A 
ATOM      6 BR   UNL     1       5.117   3.364  12.671  0.00  0.00    +0.000 Br
ATOM      7  C   UNL     1       5.256   4.075  15.402  0.00  0.00    +0.000 A 
ATOM      8  C   UNL     1       5.755   4.678  16.582  0.00  0.00    +0.000 A 
ENDROOT
BRANCH   8   9
ATOM      9  S   UNL     1       4.749   4.272  17.986  0.00  0.00    +0.000 S 
ATOM     10  O   UNL     1       5.698   3.901  19.018  0.00  0.00    +0.000 OA
ATOM     11  O   UNL     1       3.910   5.437  18.185  0.00  0.00    +0.000 OA
BRANCH   9  12
ATOM     12  N   UNL     1       3.705   2.941  17.814  0.00  0.00    +0.000 NA
ATOM     13  C   UNL     1       2.269   3.170  17.465  0.00  0.00    +0.000 C 
ATOM     14  C   UNL     1       1.443   3.687  18.648  0.00  0.00    +0.000 C 
ATOM     15  O   UNL     1       1.528   2.814  19.781  0.00  0.00    +0.000 OA
ATOM     16  C   UNL     1       2.890   2.633  20.191  0.00  0.00    +0.000 C 
ATOM     17  C   UNL     1       3.735   2.047  19.048  0.00  0.00    +0.000 C 
ENDBRANCH   9  12
ENDBRANCH   8   9
BRANCH   1  19
ATOM     18  C   UNL     1       7.549   7.517  17.542  0.00  0.00    +0.000 C 
ATOM     19  O   UNL     1       7.358   6.104  17.633  0.00  0.00    +0.000 OA
ENDBRANCH   1  19
TORSDOF 3
ENDMDL
MODEL 3
REMARK VINA RESULT:      -6.8      2.927      6.157
REMARK  Name = 
REMARK  5 active torsions:
REMARK  status: ('A' for Active; 'I' for Inactive)
REMARK    1  A    between atoms: C_1  and  O_2
REMARK    2  A    between atoms: O_2  and  C_3
REMARK    3  A    between atoms: C_5  and  C_6
REMARK    4  A    between atoms: C_10  and  S_11
REMARK    5  A    between atoms: S_11  and  N_14
REMARK                            x       y       z     vdW  Elec       q    Type
REMARK                         _______ _______ _______ _____ _____    ______ ____
ROOT
ATOM      1  C   UNL     1       6.277   5.192  17.395  0.00  0.00    +0.000 A 
ATOM      2  C   UNL     1       7.087   5.549  16.292  0.00  0.00    +0.000 A 
ATOM      3  C   UNL     1       6.870   5.052  14.991  0.00  0.00    +0.000 A 
ATOM      4  C   UNL     1       7.777   5.489  13.870  0.00  0.00    +0.000 C 
ATOM      5  C   UNL     1       5.811   4.175  14.786  0.00  0.00    +0.000 A 
ATOM      6 BR   UNL     1       5.388   3.462  13.081  0.00  0.00    +0.000 Br
ATOM      7  C   UNL     1       5.026   3.785  15.866  0.00  0.00    +0.000 A 
ATOM      8  C   UNL     1       5.257   4.269  17.175  0.00  0.00    +0.000 A 
ENDROOT
BRANCH   8   9
ATOM      9  S   UNL     1       4.129   3.543  18.337  0.00  0.00    +0.000 S 
ATOM     10  O   UNL     1       3.504   2.458  17.605  0.00  0.00    +0.000 OA
ATOM     11  O   UNL     1       4.942   3.236  19.495  0.00  0.00    +0.000 OA
BRANCH   9  12
ATOM     12  N   UNL     1       2.856   4.532  18.880  0.00  0.00    +0.000 NA
ATOM     13  C   UNL     1       2.746   4.859  20.335  0.00  0.00    +0.000 C 
ATOM     14  C   UNL     1       2.218   3.687  21.171  0.00  0.00    +0.000 C 
ATOM     15  O   UNL     1       0.954   3.215  20.690  0.00  0.00    +0.000 OA
ATOM     16  C   UNL     1       1.043   2.819  19.314  0.00  0.00    +0.000 C 
ATOM     17  C   UNL     1       1.503   3.992  18.433  0.00  0.00    +0.000 C 
ENDBRANCH   9  12
ENDBRANCH   8   9
BRANCH   1  19
ATOM     18  C   UNL     1       7.812   5.824  19.107  0.00  0.00    +0.000 C 
ATOM     19  O   UNL     1       6.466   5.719  18.640  0.00  0.00    +0.000 OA
ENDBRANCH   1  19
TORSDOF 3
ENDMDL
MODEL 4
REMARK VINA RESULT:      -6.6      1.104      1.618
REMARK  Name = 
REMARK  5 active torsions:
REMARK  status: ('A' for Active; 'I' for Inactive)
REMARK    1  A    between atoms: C_1  and  O_2
REMARK    2  A    between atoms: O_2  and  C_3
REMARK    3  A    between atoms: C_5  and  C_6
REMARK    4  A    between atoms: C_10  and  S_11
REMARK    5  A    between atoms: S_11  and  N_14
REMARK                            x       y       z     vdW  Elec       q    Type
REMARK                         _______ _______ _______ _____ _____    ______ ____
ROOT
ATOM      1  C   UNL     1       2.972   4.965  19.944  0.00  0.00    +0.000 A 
ATOM      2  C   UNL     1       2.211   5.932  20.641  0.00  0.00    +0.000 A 
ATOM      3  C   UNL     1       1.902   7.197  20.101  0.00  0.00    +0.000 A 
ATOM      4  C   UNL     1       1.079   8.167  20.908  0.00  0.00    +0.000 C 
ATOM      5  C   UNL     1       2.366   7.503  18.826  0.00  0.00    +0.000 A 
ATOM      6 BR   UNL     1       1.992   9.152  17.970  0.00  0.00    +0.000 Br
ATOM      7  C   UNL     1       3.146   6.578  18.141  0.00  0.00    +0.000 A 
ATOM      8  C   UNL     1       3.472   5.315  18.692  0.00  0.00    +0.000 A 
ENDROOT
BRANCH   8   9
ATOM      9  S   UNL     1       4.524   4.391  17.603  0.00  0.00    +0.000 S 
ATOM     10  O   UNL     1       4.160   3.006  17.834  0.00  0.00    +0.000 OA
ATOM     11  O   UNL     1       4.297   4.971  16.295  0.00  0.00    +0.000 OA
BRANCH   9  12
ATOM     12  N   UNL     1       6.196   4.488  17.898  0.00  0.00    +0.000 NA
ATOM     13  C   UNL     1       6.764   5.720  18.526  0.00  0.00    +0.000 C 
ATOM     14  C   UNL     1       6.849   6.901  17.553  0.00  0.00    +0.000 C 
ATOM     15  O   UNL     1       7.602   6.572  16.379  0.00  0.00    +0.000 OA
ATOM     16  C   UNL     1       7.037   5.438  15.706  0.00  0.00    +0.000 C 
ATOM     17  C   UNL     1       7.001   4.212  16.633  0.00  0.00    +0.000 C 
ENDBRANCH   9  12
ENDBRANCH   8   9
BRANCH   1  19
ATOM     18  C   UNL     1       2.112   3.003  20.993  0.00  0.00    +0.000 C 
ATOM     19  O   UNL     1       3.222   3.725  20.458  0.00  0.00    +0.000 OA
ENDBRANCH   1  19
TORSDOF 3
ENDMDL
MODEL 5
REMARK VINA RESULT:      -6.6      1.863      2.474
REMARK  Name = 
REMARK  5 active torsions:
REMARK  status: ('A' for Active; 'I' for Inactive)
REMARK    1  A    between atoms: C_1  and  O_2
REMARK    2  A    between atoms: O_2  and  C_3
REMARK    3  A    between atoms: C_5  and  C_6
REMARK    4  A    between atoms: C_10  and  S_11
REMARK    5  A    between atoms: S_11  and  N_14
REMARK                            x       y       z     vdW  Elec       q    Type
REMARK                         _______ _______ _______ _____ _____    ______ ____
ROOT
ATOM      1  C   UNL     1       4.151   4.704  18.629  0.00  0.00    +0.000 A 
ATOM      2  C   UNL     1       3.283   5.242  19.607  0.00  0.00    +0.000 A 
ATOM      3  C   UNL     1       2.658   6.497  19.466  0.00  0.00    +0.000 A 
ATOM      4  C   UNL     1       1.741   6.995  20.553  0.00  0.00    +0.000 C 
ATOM      5  C   UNL     1       2.904   7.234  18.312  0.00  0.00    +0.000 A 
ATOM      6 BR   UNL     1       2.100   8.918  17.982  0.00  0.00    +0.000 Br
ATOM      7  C   UNL     1       3.783   6.735  17.357  0.00  0.00    +0.000 A 
ATOM      8  C   UNL     1       4.427   5.484  17.509  0.00  0.00    +0.000 A 
ENDROOT
BRANCH   8   9
ATOM      9  S   UNL     1       5.526   5.158  16.154  0.00  0.00    +0.000 S 
ATOM     10  O   UNL     1       5.251   3.781  15.788  0.00  0.00    +0.000 OA
ATOM     11  O   UNL     1       5.250   6.210  15.197  0.00  0.00    +0.000 OA
BRANCH   9  12
ATOM     12  N   UNL     1       7.191   5.227  16.493  0.00  0.00    +0.000 NA
ATOM     13  C   UNL     1       7.703   4.681  17.788  0.00  0.00    +0.000 C 
ATOM     14  C   UNL     1       7.404   5.597  18.980  0.00  0.00    +0.000 C 
ATOM     15  O   UNL     1       7.918   6.919  18.780  0.00  0.00    +0.000 OA
ATOM     16  C   UNL     1       7.385   7.504  17.584  0.00  0.00    +0.000 C 
ATOM     17  C   UNL     1       7.728   6.646  16.354  0.00  0.00    +0.000 C 
ENDBRANCH   9  12
ENDBRANCH   8   9
BRANCH   1  19
ATOM     18  C   UNL     1       4.109   2.566  19.686  0.00  0.00    +0.000 C 
ATOM     19  O   UNL     1       4.712   3.465  18.755  0.00  0.00    +0.000 OA
ENDBRANCH   1  19
TORSDOF 3
ENDMDL
MODEL 6
REMARK VINA RESULT:      -6.5      3.005      3.896
REMARK  Name = 
REMARK  5 active torsions:
REMARK  status: ('A' for Active; 'I' for Inactive)
REMARK    1  A    between atoms: C_1  and  O_2
REMARK    2  A    between atoms: O_2  and  C_3
REMARK    3  A    between atoms: C_5  and  C_6
REMARK    4  A    between atoms: C_10  and  S_11
REMARK    5  A    between atoms: S_11  and  N_14
REMARK                            x       y       z     vdW  Elec       q    Type
REMARK                         _______ _______ _______ _____ _____    ______ ____
ROOT
ATOM      1  C   UNL     1       3.560   6.210  17.794  0.00  0.00    +0.000 A 
ATOM      2  C   UNL     1       2.615   5.740  18.736  0.00  0.00    +0.000 A 
ATOM      3  C   UNL     1       2.410   4.369  18.994  0.00  0.00    +0.000 A 
ATOM      4  C   UNL     1       1.387   3.953  20.019  0.00  0.00    +0.000 C 
ATOM      5  C   UNL     1       3.173   3.442  18.293  0.00  0.00    +0.000 A 
ATOM      6 BR   UNL     1       3.021   1.573  18.570  0.00  0.00    +0.000 Br
ATOM      7  C   UNL     1       4.081   3.885  17.337  0.00  0.00    +0.000 A 
ATOM      8  C   UNL     1       4.273   5.261  17.065  0.00  0.00    +0.000 A 
ENDROOT
BRANCH   8   9
ATOM      9  S   UNL     1       5.451   5.499  15.760  0.00  0.00    +0.000 S 
ATOM     10  O   UNL     1       5.252   4.363  14.879  0.00  0.00    +0.000 OA
ATOM     11  O   UNL     1       5.182   6.833  15.262  0.00  0.00    +0.000 OA
BRANCH   9  12
ATOM     12  N   UNL     1       7.093   5.463  16.202  0.00  0.00    +0.000 NA
ATOM     13  C   UNL     1       7.535   4.581  17.326  0.00  0.00    +0.000 C 
ATOM     14  C   UNL     1       7.156   5.136  18.704  0.00  0.00    +0.000 C 
ATOM     15  O   UNL     1       7.668   6.460  18.904  0.00  0.00    +0.000 OA
ATOM     16  C   UNL     1       7.199   7.352  17.884  0.00  0.00    +0.000 C 
ATOM     17  C   UNL     1       7.622   6.863  16.490  0.00  0.00    +0.000 C 
ENDBRANCH   9  12
ENDBRANCH   8   9
BRANCH   1  19
ATOM     18  C   UNL     1       2.679   8.426  17.770  0.00  0.00    +0.000 C 
ATOM     19  O   UNL     1       3.785   7.540  17.589  0.00  0.00    +0.000 OA
ENDBRANCH   1  19
TORSDOF 3
ENDMDL
MODEL 7
REMARK VINA RESULT:      -6.5      2.940      5.014
REMARK  Name = 
REMARK  5 active torsions:
REMARK  status: ('A' for Active; 'I' for Inactive)
REMARK    1  A    between atoms: C_1  and  O_2
REMARK    2  A    between atoms: O_2  and  C_3
REMARK    3  A    between atoms: C_5  and  C_6
REMARK    4  A    between atoms: C_10  and  S_11
REMARK    5  A    between atoms: S_11  and  N_14
REMARK                            x       y       z     vdW  Elec       q    Type
REMARK                         _______ _______ _______ _____ _____    ______ ____
ROOT
ATOM      1  C   UNL     1       3.947   5.546  18.745  0.00  0.00    +0.000 A 
ATOM      2  C   UNL     1       5.190   6.210  18.629  0.00  0.00    +0.000 A 
ATOM      3  C   UNL     1       6.100   5.953  17.584  0.00  0.00    +0.000 A 
ATOM      4  C   UNL     1       7.401   6.711  17.531  0.00  0.00    +0.000 C 
ATOM      5  C   UNL     1       5.757   5.006  16.625  0.00  0.00    +0.000 A 
ATOM      6 BR   UNL     1       6.873   4.591  15.151  0.00  0.00    +0.000 Br
ATOM      7  C   UNL     1       4.555   4.317  16.744  0.00  0.00    +0.000 A 
ATOM      8  C   UNL     1       3.650   4.562  17.805  0.00  0.00    +0.000 A 
ENDROOT
BRANCH   8   9
ATOM      9  S   UNL     1       2.241   3.488  17.709  0.00  0.00    +0.000 S 
ATOM     10  O   UNL     1       1.130   4.305  18.157  0.00  0.00    +0.000 OA
ATOM     11  O   UNL     1       2.249   2.995  16.346  0.00  0.00    +0.000 OA
BRANCH   9  12
ATOM     12  N   UNL     1       2.255   2.123  18.724  0.00  0.00    +0.000 NA
ATOM     13  C   UNL     1       1.631   2.207  20.080  0.00  0.00    +0.000 C 
ATOM     14  C   UNL     1       2.489   2.985  21.084  0.00  0.00    +0.000 C 
ATOM     15  O   UNL     1       3.808   2.438  21.197  0.00  0.00    +0.000 OA
ATOM     16  C   UNL     1       4.466   2.415  19.923  0.00  0.00    +0.000 C 
ATOM     17  C   UNL     1       3.668   1.582  18.907  0.00  0.00    +0.000 C 
ENDBRANCH   9  12
ENDBRANCH   8   9
BRANCH   1  19
ATOM     18  C   UNL     1       2.401   7.110  19.670  0.00  0.00    +0.000 C 
ATOM     19  O   UNL     1       3.052   5.840  19.733  0.00  0.00    +0.000 OA
ENDBRANCH   1  19
TORSDOF 3
ENDMDL
MODEL 8
REMARK VINA RESULT:      -6.4      2.754      6.388
REMARK  Name = 
REMARK  5 active torsions:
REMARK  status: ('A' for Active; 'I' for Inactive)
REMARK    1  A    between atoms: C_1  and  O_2
REMARK    2  A    between atoms: O_2  and  C_3
REMARK    3  A    between atoms: C_5  and  C_6
REMARK    4  A    between atoms: C_10  and  S_11
REMARK    5  A    between atoms: S_11  and  N_14
REMARK                            x       y       z     vdW  Elec       q    Type
REMARK                         _______ _______ _______ _____ _____    ______ ____
ROOT
ATOM      1  C   UNL     1       6.965   5.166  16.245  0.00  0.00    +0.000 A 
ATOM      2  C   UNL     1       7.589   5.281  14.981  0.00  0.00    +0.000 A 
ATOM      3  C   UNL     1       7.024   4.760  13.799  0.00  0.00    +0.000 A 
ATOM      4  C   UNL     1       7.752   4.932  12.491  0.00  0.00    +0.000 C 
ATOM      5  C   UNL     1       5.798   4.109  13.882  0.00  0.00    +0.000 A 
ATOM      6 BR   UNL     1       4.913   3.396  12.365  0.00  0.00    +0.000 Br
ATOM      7  C   UNL     1       5.188   3.955  15.122  0.00  0.00    +0.000 A 
ATOM      8  C   UNL     1       5.766   4.461  16.311  0.00  0.00    +0.000 A 
ENDROOT
BRANCH   8   9
ATOM      9  S   UNL     1       4.778   4.055  17.728  0.00  0.00    +0.000 S 
ATOM     10  O   UNL     1       4.082   2.840  17.349  0.00  0.00    +0.000 OA
ATOM     11  O   UNL     1       5.717   4.014  18.831  0.00  0.00    +0.000 OA
BRANCH   9  12
ATOM     12  N   UNL     1       3.568   5.170  18.156  0.00  0.00    +0.000 NA
ATOM     13  C   UNL     1       3.451   5.623  19.577  0.00  0.00    +0.000 C 
ATOM     14  C   UNL     1       2.824   4.563  20.490  0.00  0.00    +0.000 C 
ATOM     15  O   UNL     1       1.540   4.142  20.015  0.00  0.00    +0.000 OA
ATOM     16  C   UNL     1       1.628   3.629  18.679  0.00  0.00    +0.000 C 
ATOM     17  C   UNL     1       2.189   4.690  17.719  0.00  0.00    +0.000 C 
ENDBRANCH   9  12
ENDBRANCH   8   9
BRANCH   1  19
ATOM     18  C   UNL     1       7.305   7.118  17.571  0.00  0.00    +0.000 C 
ATOM     19  O   UNL     1       7.498   5.717  17.374  0.00  0.00    +0.000 OA
ENDBRANCH   1  19
TORSDOF 3
ENDMDL
MODEL 9
REMARK VINA RESULT:      -6.4      2.162      4.249
REMARK  Name = 
REMARK  5 active torsions:
REMARK  status: ('A' for Active; 'I' for Inactive)
REMARK    1  A    between atoms: C_1  and  O_2
REMARK    2  A    between atoms: O_2  and  C_3
REMARK    3  A    between atoms: C_5  and  C_6
REMARK    4  A    between atoms: C_10  and  S_11
REMARK    5  A    between atoms: S_11  and  N_14
REMARK                            x       y       z     vdW  Elec       q    Type
REMARK                         _______ _______ _______ _____ _____    ______ ____
ROOT
ATOM      1  C   UNL     1       3.749   6.704  17.720  0.00  0.00    +0.000 A 
ATOM      2  C   UNL     1       3.079   7.937  17.541  0.00  0.00    +0.000 A 
ATOM      3  C   UNL     1       2.215   8.485  18.510  0.00  0.00    +0.000 A 
ATOM      4  C   UNL     1       1.545   9.808  18.244  0.00  0.00    +0.000 C 
ATOM      5  C   UNL     1       2.017   7.781  19.694  0.00  0.00    +0.000 A 
ATOM      6 BR   UNL     1       0.909   8.422  21.092  0.00  0.00    +0.000 Br
ATOM      7  C   UNL     1       2.639   6.550  19.871  0.00  0.00    +0.000 A 
ATOM      8  C   UNL     1       3.492   5.992  18.888  0.00  0.00    +0.000 A 
ENDROOT
BRANCH   8   9
ATOM      9  S   UNL     1       4.083   4.394  19.384  0.00  0.00    +0.000 S 
ATOM     10  O   UNL     1       5.528   4.505  19.318  0.00  0.00    +0.000 OA
ATOM     11  O   UNL     1       3.453   4.152  20.666  0.00  0.00    +0.000 OA
BRANCH   9  12
ATOM     12  N   UNL     1       3.669   3.085  18.380  0.00  0.00    +0.000 NA
ATOM     13  C   UNL     1       2.676   3.285  17.280  0.00  0.00    +0.000 C 
ATOM     14  C   UNL     1       1.233   3.375  17.788  0.00  0.00    +0.000 C 
ATOM     15  O   UNL     1       0.867   2.225  18.561  0.00  0.00    +0.000 OA
ATOM     16  C   UNL     1       1.755   2.048  19.673  0.00  0.00    +0.000 C 
ATOM     17  C   UNL     1       3.207   1.883  19.195  0.00  0.00    +0.000 C 
ENDBRANCH   9  12
ENDBRANCH   8   9
BRANCH   1  19
ATOM     18  C   UNL     1       5.939   6.764  16.774  0.00  0.00    +0.000 C 
ATOM     19  O   UNL     1       4.623   6.209  16.795  0.00  0.00    +0.000 OA
ENDBRANCH   1  19
TORSDOF 3
ENDMDL
