MODEL 1
REMARK VINA RESULT:      -7.9      0.000      0.000
REMARK  Name = 
REMARK  8 active torsions:
REMARK  status: ('A' for Active; 'I' for Inactive)
REMARK    1  A    between atoms: C_1  and  C_2
REMARK    2  A    between atoms: C_2  and  C_3
REMARK    3  A    between atoms: C_2  and  N_4
REMARK    4  A    between atoms: C_5  and  C_7
REMARK    5  A    between atoms: C_7  and  C_8
REMARK    6  A    between atoms: C_7  and  C_10
REMARK    7  A    between atoms: C_10  and  C_12
REMARK    8  A    between atoms: C_14  and  C_15
REMARK                            x       y       z     vdW  Elec       q    Type
REMARK                         _______ _______ _______ _____ _____    ______ ____
ROOT
ATOM      1  C   UNL     1       5.073   6.610  17.105  0.00  0.00    +0.000 C 
ATOM      2  O   UNL     1       4.747   7.052  16.006  0.00  0.00    +0.000 OA
ENDROOT
BRANCH   1   3
ATOM      3  C   UNL     1       4.020   6.275  18.116  0.00  0.00    +0.000 C 
ATOM      4  C   UNL     1       2.569   6.427  17.737  0.00  0.00    +0.000 C 
ATOM      5  C   UNL     1       3.150   5.041  17.909  0.00  0.00    +0.000 C 
BRANCH   5   6
ATOM      6  C   UNL     1       2.684   4.194  19.072  0.00  0.00    +0.000 A 
ATOM      7  C   UNL     1       1.356   4.230  19.531  0.00  0.00    +0.000 A 
ATOM      8  C   UNL     1       0.946   3.452  20.619  0.00  0.00    +0.000 A 
ATOM      9  C   UNL     1       1.864   2.635  21.268  0.00  0.00    +0.000 A 
ATOM     10  F   UNL     1       1.468   1.892  22.309  0.00  0.00    +0.000 F 
ATOM     11  C   UNL     1       3.185   2.584  20.856  0.00  0.00    +0.000 A 
ATOM     12  C   UNL     1       3.579   3.363  19.773  0.00  0.00    +0.000 A 
ATOM     13  F   UNL     1       4.866   3.314  19.393  0.00  0.00    +0.000 F 
ENDBRANCH   5   6
ENDBRANCH   1   3
BRANCH   1  14
ATOM     14  C   UNL     1       6.499   6.281  17.469  0.00  0.00    +0.000 C 
BRANCH  14  16
ATOM     15  N   UNL     1       6.670   5.454  15.149  0.00  0.00    +0.000 N 
ATOM     16  C   UNL     1       7.068   5.297  16.464  0.00  0.00    +0.000 C 
ATOM     17  O   UNL     1       7.826   4.397  16.827  0.00  0.00    +0.000 OA
ATOM     18  H   UNL     1       5.901   6.084  14.926  0.00  0.00    +0.000 HD
BRANCH  15  20
ATOM     19  C   UNL     1       6.000   3.831  13.426  0.00  0.00    +0.000 C 
ATOM     20  C   UNL     1       7.155   4.591  14.074  0.00  0.00    +0.000 C 
ATOM     21  C   UNL     1       7.911   5.411  13.031  0.00  0.00    +0.000 C 
ENDBRANCH  15  20
ENDBRANCH  14  16
BRANCH  14  22
ATOM     22  C   UNL     1       7.350   7.540  17.437  0.00  0.00    +0.000 C 
ATOM     23  N   UNL     1       8.057   8.584  17.410  0.00  0.00    +0.000 NA
ENDBRANCH  14  22
ENDBRANCH   1  14
TORSDOF 6
ENDMDL
MODEL 2
REMARK VINA RESULT:      -7.6      1.152      1.343
REMARK  Name = 
REMARK  8 active torsions:
REMARK  status: ('A' for Active; 'I' for Inactive)
REMARK    1  A    between atoms: C_1  and  C_2
REMARK    2  A    between atoms: C_2  and  C_3
REMARK    3  A    between atoms: C_2  and  N_4
REMARK    4  A    between atoms: C_5  and  C_7
REMARK    5  A    between atoms: C_7  and  C_8
REMARK    6  A    between atoms: C_7  and  C_10
REMARK    7  A    between atoms: C_10  and  C_12
REMARK    8  A    between atoms: C_14  and  C_15
REMARK                            x       y       z     vdW  Elec       q    Type
REMARK                         _______ _______ _______ _____ _____    ______ ____
ROOT
ATOM      1  C   UNL     1       4.965   6.743  17.158  0.00  0.00    +0.000 C 
ATOM      2  O   UNL     1       4.626   7.126  16.041  0.00  0.00    +0.000 OA
ENDROOT
BRANCH   1   3
ATOM      3  C   UNL     1       3.928   6.522  18.216  0.00  0.00    +0.000 C 
ATOM      4  C   UNL     1       2.505   6.935  17.942  0.00  0.00    +0.000 C 
ATOM      5  C   UNL     1       2.852   5.464  18.000  0.00  0.00    +0.000 C 
BRANCH   5   6
ATOM      6  C   UNL     1       2.315   4.632  19.142  0.00  0.00    +0.000 A 
ATOM      7  C   UNL     1       2.785   4.786  20.458  0.00  0.00    +0.000 A 
ATOM      8  C   UNL     1       2.289   3.995  21.500  0.00  0.00    +0.000 A 
ATOM      9  C   UNL     1       1.321   3.034  21.236  0.00  0.00    +0.000 A 
ATOM     10  F   UNL     1       0.848   2.279  22.236  0.00  0.00    +0.000 F 
ATOM     11  C   UNL     1       0.844   2.840  19.950  0.00  0.00    +0.000 A 
ATOM     12  C   UNL     1       1.347   3.632  18.924  0.00  0.00    +0.000 A 
ATOM     13  F   UNL     1       0.885   3.425  17.680  0.00  0.00    +0.000 F 
ENDBRANCH   5   6
ENDBRANCH   1   3
BRANCH   1  14
ATOM     14  C   UNL     1       6.385   6.377  17.507  0.00  0.00    +0.000 C 
BRANCH  14  16
ATOM     15  N   UNL     1       6.836   5.648  15.191  0.00  0.00    +0.000 N 
ATOM     16  C   UNL     1       6.895   5.329  16.535  0.00  0.00    +0.000 C 
ATOM     17  O   UNL     1       7.314   4.245  16.943  0.00  0.00    +0.000 OA
ATOM     18  H   UNL     1       6.310   6.468  14.890  0.00  0.00    +0.000 HD
BRANCH  15  20
ATOM     19  C   UNL     1       6.173   3.865  13.632  0.00  0.00    +0.000 C 
ATOM     20  C   UNL     1       7.311   4.743  14.147  0.00  0.00    +0.000 C 
ATOM     21  C   UNL     1       7.941   5.532  13.002  0.00  0.00    +0.000 C 
ENDBRANCH  15  20
ENDBRANCH  14  16
BRANCH  14  22
ATOM     22  C   UNL     1       7.281   7.600  17.401  0.00  0.00    +0.000 C 
ATOM     23  N   UNL     1       8.025   8.615  17.314  0.00  0.00    +0.000 NA
ENDBRANCH  14  22
ENDBRANCH   1  14
TORSDOF 6
ENDMDL
MODEL 3
REMARK VINA RESULT:      -7.5      1.472      1.613
REMARK  Name = 
REMARK  8 active torsions:
REMARK  status: ('A' for Active; 'I' for Inactive)
REMARK    1  A    between atoms: C_1  and  C_2
REMARK    2  A    between atoms: C_2  and  C_3
REMARK    3  A    between atoms: C_2  and  N_4
REMARK    4  A    between atoms: C_5  and  C_7
REMARK    5  A    between atoms: C_7  and  C_8
REMARK    6  A    between atoms: C_7  and  C_10
REMARK    7  A    between atoms: C_10  and  C_12
REMARK    8  A    between atoms: C_14  and  C_15
REMARK                            x       y       z     vdW  Elec       q    Type
REMARK                         _______ _______ _______ _____ _____    ______ ____
ROOT
ATOM      1  C   UNL     1       5.336   5.680  16.453  0.00  0.00    +0.000 C 
ATOM      2  O   UNL     1       5.248   6.565  15.605  0.00  0.00    +0.000 OA
ENDROOT
BRANCH   1   3
ATOM      3  C   UNL     1       4.458   5.721  17.666  0.00  0.00    +0.000 C 
ATOM      4  C   UNL     1       3.139   6.445  17.589  0.00  0.00    +0.000 C 
ATOM      5  C   UNL     1       3.153   4.934  17.670  0.00  0.00    +0.000 C 
BRANCH   5   6
ATOM      6  C   UNL     1       2.632   4.267  18.924  0.00  0.00    +0.000 A 
ATOM      7  C   UNL     1       1.382   4.596  19.475  0.00  0.00    +0.000 A 
ATOM      8  C   UNL     1       0.923   3.981  20.645  0.00  0.00    +0.000 A 
ATOM      9  C   UNL     1       1.715   3.034  21.283  0.00  0.00    +0.000 A 
ATOM     10  F   UNL     1       1.273   2.448  22.402  0.00  0.00    +0.000 F 
ATOM     11  C   UNL     1       2.960   2.695  20.780  0.00  0.00    +0.000 A 
ATOM     12  C   UNL     1       3.404   3.314  19.617  0.00  0.00    +0.000 A 
ATOM     13  F   UNL     1       4.618   2.985  19.148  0.00  0.00    +0.000 F 
ENDBRANCH   5   6
ENDBRANCH   1   3
BRANCH   1  14
ATOM     14  C   UNL     1       6.225   4.473  16.294  0.00  0.00    +0.000 C 
BRANCH  14  16
ATOM     15  N   UNL     1       6.242   3.673  13.958  0.00  0.00    +0.000 N 
ATOM     16  C   UNL     1       6.845   4.475  14.908  0.00  0.00    +0.000 C 
ATOM     17  O   UNL     1       7.849   5.148  14.671  0.00  0.00    +0.000 OA
ATOM     18  H   UNL     1       5.539   2.994  14.244  0.00  0.00    +0.000 HD
BRANCH  15  20
ATOM     19  C   UNL     1       5.625   3.067  11.655  0.00  0.00    +0.000 C 
ATOM     20  C   UNL     1       6.720   3.594  12.579  0.00  0.00    +0.000 C 
ATOM     21  C   UNL     1       7.212   4.959  12.105  0.00  0.00    +0.000 C 
ENDBRANCH  15  20
ENDBRANCH  14  16
BRANCH  14  22
ATOM     22  C   UNL     1       7.348   4.513  17.318  0.00  0.00    +0.000 C 
ATOM     23  N   UNL     1       8.280   4.546  18.166  0.00  0.00    +0.000 NA
ENDBRANCH  14  22
ENDBRANCH   1  14
TORSDOF 6
ENDMDL
MODEL 4
REMARK VINA RESULT:      -7.1      2.879      4.724
REMARK  Name = 
REMARK  8 active torsions:
REMARK  status: ('A' for Active; 'I' for Inactive)
REMARK    1  A    between atoms: C_1  and  C_2
REMARK    2  A    between atoms: C_2  and  C_3
REMARK    3  A    between atoms: C_2  and  N_4
REMARK    4  A    between atoms: C_5  and  C_7
REMARK    5  A    between atoms: C_7  and  C_8
REMARK    6  A    between atoms: C_7  and  C_10
REMARK    7  A    between atoms: C_10  and  C_12
REMARK    8  A    between atoms: C_14  and  C_15
REMARK                            x       y       z     vdW  Elec       q    Type
REMARK                         _______ _______ _______ _____ _____    ______ ____
ROOT
ATOM      1  C   UNL     1       4.551   4.269  16.600  0.00  0.00    +0.000 C 
ATOM      2  O   UNL     1       4.889   3.122  16.881  0.00  0.00    +0.000 OA
ENDROOT
BRANCH   1   3
ATOM      3  C   UNL     1       3.397   4.901  17.315  0.00  0.00    +0.000 C 
ATOM      4  C   UNL     1       3.011   4.387  18.678  0.00  0.00    +0.000 C 
ATOM      5  C   UNL     1       3.659   5.748  18.554  0.00  0.00    +0.000 C 
BRANCH   5   6
ATOM      6  C   UNL     1       2.835   6.978  18.865  0.00  0.00    +0.000 A 
ATOM      7  C   UNL     1       2.125   7.112  20.070  0.00  0.00    +0.000 A 
ATOM      8  C   UNL     1       1.354   8.250  20.333  0.00  0.00    +0.000 A 
ATOM      9  C   UNL     1       1.277   9.265  19.387  0.00  0.00    +0.000 A 
ATOM     10  F   UNL     1       0.539  10.352  19.643  0.00  0.00    +0.000 F 
ATOM     11  C   UNL     1       1.949   9.163  18.180  0.00  0.00    +0.000 A 
ATOM     12  C   UNL     1       2.711   8.027  17.932  0.00  0.00    +0.000 A 
ATOM     13  F   UNL     1       3.347   7.936  16.753  0.00  0.00    +0.000 F 
ENDBRANCH   5   6
ENDBRANCH   1   3
BRANCH   1  14
ATOM     14  C   UNL     1       5.309   5.136  15.627  0.00  0.00    +0.000 C 
BRANCH  14  16
ATOM     15  N   UNL     1       6.653   6.732  16.946  0.00  0.00    +0.000 N 
ATOM     16  C   UNL     1       6.637   5.546  16.237  0.00  0.00    +0.000 C 
ATOM     17  O   UNL     1       7.642   4.853  16.077  0.00  0.00    +0.000 OA
ATOM     18  H   UNL     1       5.855   7.364  16.892  0.00  0.00    +0.000 HD
BRANCH  15  20
ATOM     19  C   UNL     1       7.804   8.759  17.734  0.00  0.00    +0.000 C 
ATOM     20  C   UNL     1       7.856   7.238  17.603  0.00  0.00    +0.000 C 
ATOM     21  C   UNL     1       8.031   6.587  18.973  0.00  0.00    +0.000 C 
ENDBRANCH  15  20
ENDBRANCH  14  16
BRANCH  14  22
ATOM     22  C   UNL     1       5.592   4.363  14.349  0.00  0.00    +0.000 C 
ATOM     23  N   UNL     1       5.826   3.722  13.288  0.00  0.00    +0.000 NA
ENDBRANCH  14  22
ENDBRANCH   1  14
TORSDOF 6
ENDMDL
MODEL 5
REMARK VINA RESULT:      -7.1      3.840      5.691
REMARK  Name = 
REMARK  8 active torsions:
REMARK  status: ('A' for Active; 'I' for Inactive)
REMARK    1  A    between atoms: C_1  and  C_2
REMARK    2  A    between atoms: C_2  and  C_3
REMARK    3  A    between atoms: C_2  and  N_4
REMARK    4  A    between atoms: C_5  and  C_7
REMARK    5  A    between atoms: C_7  and  C_8
REMARK    6  A    between atoms: C_7  and  C_10
REMARK    7  A    between atoms: C_10  and  C_12
REMARK    8  A    between atoms: C_14  and  C_15
REMARK                            x       y       z     vdW  Elec       q    Type
REMARK                         _______ _______ _______ _____ _____    ______ ____
ROOT
ATOM      1  C   UNL     1       4.119   5.835  18.114  0.00  0.00    +0.000 C 
ATOM      2  O   UNL     1       3.798   5.317  17.048  0.00  0.00    +0.000 OA
ENDROOT
BRANCH   1   3
ATOM      3  C   UNL     1       3.615   7.202  18.460  0.00  0.00    +0.000 C 
ATOM      4  C   UNL     1       2.918   8.014  17.399  0.00  0.00    +0.000 C 
ATOM      5  C   UNL     1       2.113   7.446  18.547  0.00  0.00    +0.000 C 
BRANCH   5   6
ATOM      6  C   UNL     1       1.520   8.397  19.562  0.00  0.00    +0.000 A 
ATOM      7  C   UNL     1       1.216   9.731  19.240  0.00  0.00    +0.000 A 
ATOM      8  C   UNL     1       0.683  10.602  20.198  0.00  0.00    +0.000 A 
ATOM      9  C   UNL     1       0.458  10.150  21.492  0.00  0.00    +0.000 A 
ATOM     10  F   UNL     1      -0.052  10.987  22.405  0.00  0.00    +0.000 F 
ATOM     11  C   UNL     1       0.760   8.848  21.852  0.00  0.00    +0.000 A 
ATOM     12  C   UNL     1       1.290   7.993  20.892  0.00  0.00    +0.000 A 
ATOM     13  F   UNL     1       1.590   6.737  21.258  0.00  0.00    +0.000 F 
ENDBRANCH   5   6
ENDBRANCH   1   3
BRANCH   1  14
ATOM     14  C   UNL     1       4.926   5.118  19.167  0.00  0.00    +0.000 C 
BRANCH  14  16
ATOM     15  N   UNL     1       2.856   3.836  19.571  0.00  0.00    +0.000 N 
ATOM     16  C   UNL     1       4.238   3.819  19.542  0.00  0.00    +0.000 C 
ATOM     17  O   UNL     1       4.897   2.818  19.824  0.00  0.00    +0.000 OA
ATOM     18  H   UNL     1       2.361   4.725  19.519  0.00  0.00    +0.000 HD
BRANCH  15  20
ATOM     19  C   UNL     1       1.488   2.754  21.306  0.00  0.00    +0.000 C 
ATOM     20  C   UNL     1       2.063   2.652  19.895  0.00  0.00    +0.000 C 
ATOM     21  C   UNL     1       0.945   2.461  18.872  0.00  0.00    +0.000 C 
ENDBRANCH  15  20
ENDBRANCH  14  16
BRANCH  14  22
ATOM     22  C   UNL     1       6.309   4.786  18.628  0.00  0.00    +0.000 C 
ATOM     23  N   UNL     1       7.455   4.510  18.182  0.00  0.00    +0.000 NA
ENDBRANCH  14  22
ENDBRANCH   1  14
TORSDOF 6
ENDMDL
MODEL 6
REMARK VINA RESULT:      -7.0      2.981      4.861
REMARK  Name = 
REMARK  8 active torsions:
REMARK  status: ('A' for Active; 'I' for Inactive)
REMARK    1  A    between atoms: C_1  and  C_2
REMARK    2  A    between atoms: C_2  and  C_3
REMARK    3  A    between atoms: C_2  and  N_4
REMARK    4  A    between atoms: C_5  and  C_7
REMARK    5  A    between atoms: C_7  and  C_8
REMARK    6  A    between atoms: C_7  and  C_10
REMARK    7  A    between atoms: C_10  and  C_12
REMARK    8  A    between atoms: C_14  and  C_15
REMARK                            x       y       z     vdW  Elec       q    Type
REMARK                         _______ _______ _______ _____ _____    ______ ____
ROOT
ATOM      1  C   UNL     1       4.476   4.504  16.739  0.00  0.00    +0.000 C 
ATOM      2  O   UNL     1       4.835   3.414  17.177  0.00  0.00    +0.000 OA
ENDROOT
BRANCH   1   3
ATOM      3  C   UNL     1       3.265   5.175  17.311  0.00  0.00    +0.000 C 
ATOM      4  C   UNL     1       2.708   4.683  18.622  0.00  0.00    +0.000 C 
ATOM      5  C   UNL     1       3.405   6.024  18.569  0.00  0.00    +0.000 C 
BRANCH   5   6
ATOM      6  C   UNL     1       2.587   7.279  18.775  0.00  0.00    +0.000 A 
ATOM      7  C   UNL     1       2.512   8.285  17.796  0.00  0.00    +0.000 A 
ATOM      8  C   UNL     1       1.763   9.448  18.011  0.00  0.00    +0.000 A 
ATOM      9  C   UNL     1       1.089   9.623  19.212  0.00  0.00    +0.000 A 
ATOM     10  F   UNL     1       0.374  10.737  19.414  0.00  0.00    +0.000 F 
ATOM     11  C   UNL     1       1.152   8.662  20.208  0.00  0.00    +0.000 A 
ATOM     12  C   UNL     1       1.899   7.512  19.982  0.00  0.00    +0.000 A 
ATOM     13  F   UNL     1       1.962   6.595  20.961  0.00  0.00    +0.000 F 
ENDBRANCH   5   6
ENDBRANCH   1   3
BRANCH   1  14
ATOM     14  C   UNL     1       5.259   5.274  15.705  0.00  0.00    +0.000 C 
BRANCH  14  16
ATOM     15  N   UNL     1       6.654   5.923  17.636  0.00  0.00    +0.000 N 
ATOM     16  C   UNL     1       6.607   5.671  16.277  0.00  0.00    +0.000 C 
ATOM     17  O   UNL     1       7.592   5.779  15.546  0.00  0.00    +0.000 OA
ATOM     18  H   UNL     1       5.787   6.008  18.164  0.00  0.00    +0.000 HD
BRANCH  15  20
ATOM     19  C   UNL     1       8.089   7.808  18.299  0.00  0.00    +0.000 C 
ATOM     20  C   UNL     1       7.889   6.294  18.323  0.00  0.00    +0.000 C 
ATOM     21  C   UNL     1       7.878   5.777  19.760  0.00  0.00    +0.000 C 
ENDBRANCH  15  20
ENDBRANCH  14  16
BRANCH  14  22
ATOM     22  C   UNL     1       5.499   4.406  14.480  0.00  0.00    +0.000 C 
ATOM     23  N   UNL     1       5.698   3.688  13.463  0.00  0.00    +0.000 NA
ENDBRANCH  14  22
ENDBRANCH   1  14
TORSDOF 6
ENDMDL
MODEL 7
REMARK VINA RESULT:      -7.0      1.045      1.169
REMARK  Name = 
REMARK  8 active torsions:
REMARK  status: ('A' for Active; 'I' for Inactive)
REMARK    1  A    between atoms: C_1  and  C_2
REMARK    2  A    between atoms: C_2  and  C_3
REMARK    3  A    between atoms: C_2  and  N_4
REMARK    4  A    between atoms: C_5  and  C_7
REMARK    5  A    between atoms: C_7  and  C_8
REMARK    6  A    between atoms: C_7  and  C_10
REMARK    7  A    between atoms: C_10  and  C_12
REMARK    8  A    between atoms: C_14  and  C_15
REMARK                            x       y       z     vdW  Elec       q    Type
REMARK                         _______ _______ _______ _____ _____    ______ ____
ROOT
ATOM      1  C   UNL     1       5.099   6.629  17.021  0.00  0.00    +0.000 C 
ATOM      2  O   UNL     1       4.794   7.034  15.902  0.00  0.00    +0.000 OA
ENDROOT
BRANCH   1   3
ATOM      3  C   UNL     1       4.028   6.361  18.033  0.00  0.00    +0.000 C 
ATOM      4  C   UNL     1       2.591   6.634  17.667  0.00  0.00    +0.000 C 
ATOM      5  C   UNL     1       3.062   5.203  17.811  0.00  0.00    +0.000 C 
BRANCH   5   6
ATOM      6  C   UNL     1       2.536   4.375  18.962  0.00  0.00    +0.000 A 
ATOM      7  C   UNL     1       2.215   3.015  18.812  0.00  0.00    +0.000 A 
ATOM      8  C   UNL     1       1.713   2.269  19.884  0.00  0.00    +0.000 A 
ATOM      9  C   UNL     1       1.518   2.877  21.118  0.00  0.00    +0.000 A 
ATOM     10  F   UNL     1       1.038   2.160  22.141  0.00  0.00    +0.000 F 
ATOM     11  C   UNL     1       1.808   4.219  21.301  0.00  0.00    +0.000 A 
ATOM     12  C   UNL     1       2.305   4.950  20.228  0.00  0.00    +0.000 A 
ATOM     13  F   UNL     1       2.568   6.253  20.416  0.00  0.00    +0.000 F 
ENDBRANCH   5   6
ENDBRANCH   1   3
BRANCH   1  14
ATOM     14  C   UNL     1       6.512   6.281  17.414  0.00  0.00    +0.000 C 
BRANCH  14  16
ATOM     15  N   UNL     1       6.694   5.452  15.095  0.00  0.00    +0.000 N 
ATOM     16  C   UNL     1       7.094   5.303  16.410  0.00  0.00    +0.000 C 
ATOM     17  O   UNL     1       7.865   4.415  16.774  0.00  0.00    +0.000 OA
ATOM     18  H   UNL     1       5.916   6.071  14.871  0.00  0.00    +0.000 HD
BRANCH  15  20
ATOM     19  C   UNL     1       6.048   3.801  13.389  0.00  0.00    +0.000 C 
ATOM     20  C   UNL     1       7.190   4.595  14.021  0.00  0.00    +0.000 C 
ATOM     21  C   UNL     1       7.915   5.426  12.965  0.00  0.00    +0.000 C 
ENDBRANCH  15  20
ENDBRANCH  14  16
BRANCH  14  22
ATOM     22  C   UNL     1       7.377   7.532  17.416  0.00  0.00    +0.000 C 
ATOM     23  N   UNL     1       8.094   8.569  17.418  0.00  0.00    +0.000 NA
ENDBRANCH  14  22
ENDBRANCH   1  14
TORSDOF 6
ENDMDL
MODEL 8
REMARK VINA RESULT:      -6.9      2.587      4.278
REMARK  Name = 
REMARK  8 active torsions:
REMARK  status: ('A' for Active; 'I' for Inactive)
REMARK    1  A    between atoms: C_1  and  C_2
REMARK    2  A    between atoms: C_2  and  C_3
REMARK    3  A    between atoms: C_2  and  N_4
REMARK    4  A    between atoms: C_5  and  C_7
REMARK    5  A    between atoms: C_7  and  C_8
REMARK    6  A    between atoms: C_7  and  C_10
REMARK    7  A    between atoms: C_10  and  C_12
REMARK    8  A    between atoms: C_14  and  C_15
REMARK                            x       y       z     vdW  Elec       q    Type
REMARK                         _______ _______ _______ _____ _____    ______ ____
ROOT
ATOM      1  C   UNL     1       6.671   6.358  16.940  0.00  0.00    +0.000 C 
ATOM      2  O   UNL     1       6.676   6.246  15.717  0.00  0.00    +0.000 OA
ENDROOT
BRANCH   1   3
ATOM      3  C   UNL     1       5.453   5.966  17.719  0.00  0.00    +0.000 C 
ATOM      4  C   UNL     1       4.178   6.747  17.524  0.00  0.00    +0.000 C 
ATOM      5  C   UNL     1       4.272   5.334  16.992  0.00  0.00    +0.000 C 
BRANCH   5   6
ATOM      6  C   UNL     1       3.428   4.255  17.634  0.00  0.00    +0.000 A 
ATOM      7  C   UNL     1       3.967   3.009  17.996  0.00  0.00    +0.000 A 
ATOM      8  C   UNL     1       3.167   2.016  18.574  0.00  0.00    +0.000 A 
ATOM      9  C   UNL     1       1.816   2.256  18.788  0.00  0.00    +0.000 A 
ATOM     10  F   UNL     1       1.054   1.304  19.341  0.00  0.00    +0.000 F 
ATOM     11  C   UNL     1       1.244   3.466  18.429  0.00  0.00    +0.000 A 
ATOM     12  C   UNL     1       2.050   4.443  17.855  0.00  0.00    +0.000 A 
ATOM     13  F   UNL     1       1.480   5.606  17.501  0.00  0.00    +0.000 F 
ENDBRANCH   5   6
ENDBRANCH   1   3
BRANCH   1  14
ATOM     14  C   UNL     1       7.881   6.781  17.733  0.00  0.00    +0.000 C 
BRANCH  14  16
ATOM     15  N   UNL     1       8.830   8.819  18.754  0.00  0.00    +0.000 N 
ATOM     16  C   UNL     1       7.878   8.289  17.902  0.00  0.00    +0.000 C 
ATOM     17  O   UNL     1       7.047   8.984  17.319  0.00  0.00    +0.000 OA
ATOM     18  H   UNL     1       9.368   8.200  19.358  0.00  0.00    +0.000 HD
BRANCH  15  20
ATOM     19  C   UNL     1       9.425  10.527  20.422  0.00  0.00    +0.000 C 
ATOM     20  C   UNL     1       8.955  10.255  18.994  0.00  0.00    +0.000 C 
ATOM     21  C   UNL     1       9.913  10.884  17.985  0.00  0.00    +0.000 C 
ENDBRANCH  15  20
ENDBRANCH  14  16
BRANCH  14  22
ATOM     22  C   UNL     1       7.848   6.147  19.115  0.00  0.00    +0.000 C 
ATOM     23  N   UNL     1       7.821   5.621  20.261  0.00  0.00    +0.000 NA
ENDBRANCH  14  22
ENDBRANCH   1  14
TORSDOF 6
ENDMDL
MODEL 9
REMARK VINA RESULT:      -6.9      4.081      5.883
REMARK  Name = 
REMARK  8 active torsions:
REMARK  status: ('A' for Active; 'I' for Inactive)
REMARK    1  A    between atoms: C_1  and  C_2
REMARK    2  A    between atoms: C_2  and  C_3
REMARK    3  A    between atoms: C_2  and  N_4
REMARK    4  A    between atoms: C_5  and  C_7
REMARK    5  A    between atoms: C_7  and  C_8
REMARK    6  A    between atoms: C_7  and  C_10
REMARK    7  A    between atoms: C_10  and  C_12
REMARK    8  A    between atoms: C_14  and  C_15
REMARK                            x       y       z     vdW  Elec       q    Type
REMARK                         _______ _______ _______ _____ _____    ______ ____
ROOT
ATOM      1  C   UNL     1       4.108   5.821  18.168  0.00  0.00    +0.000 C 
ATOM      2  O   UNL     1       3.779   5.296  17.107  0.00  0.00    +0.000 OA
ENDROOT
BRANCH   1   3
ATOM      3  C   UNL     1       3.606   7.190  18.509  0.00  0.00    +0.000 C 
ATOM      4  C   UNL     1       2.867   7.980  17.460  0.00  0.00    +0.000 C 
ATOM      5  C   UNL     1       2.106   7.424  18.643  0.00  0.00    +0.000 C 
BRANCH   5   6
ATOM      6  C   UNL     1       1.540   8.386  19.663  0.00  0.00    +0.000 A 
ATOM      7  C   UNL     1       1.525   8.088  21.037  0.00  0.00    +0.000 A 
ATOM      8  C   UNL     1       0.982   8.984  21.965  0.00  0.00    +0.000 A 
ATOM      9  C   UNL     1       0.437  10.185  21.528  0.00  0.00    +0.000 A 
ATOM     10  F   UNL     1      -0.082  11.039  22.419  0.00  0.00    +0.000 F 
ATOM     11  C   UNL     1       0.418  10.508  20.181  0.00  0.00    +0.000 A 
ATOM     12  C   UNL     1       0.960   9.609  19.269  0.00  0.00    +0.000 A 
ATOM     13  F   UNL     1       0.923   9.928  17.966  0.00  0.00    +0.000 F 
ENDBRANCH   5   6
ENDBRANCH   1   3
BRANCH   1  14
ATOM     14  C   UNL     1       4.926   5.112  19.218  0.00  0.00    +0.000 C 
BRANCH  14  16
ATOM     15  N   UNL     1       2.889   3.799  19.690  0.00  0.00    +0.000 N 
ATOM     16  C   UNL     1       4.266   3.793  19.574  0.00  0.00    +0.000 C 
ATOM     17  O   UNL     1       4.945   2.784  19.767  0.00  0.00    +0.000 OA
ATOM     18  H   UNL     1       2.389   4.687  19.710  0.00  0.00    +0.000 HD
BRANCH  15  20
ATOM     19  C   UNL     1       1.362   2.769  21.320  0.00  0.00    +0.000 C 
ATOM     20  C   UNL     1       2.122   2.597  20.007  0.00  0.00    +0.000 C 
ATOM     21  C   UNL     1       1.159   2.262  18.870  0.00  0.00    +0.000 C 
ENDBRANCH  15  20
ENDBRANCH  14  16
BRANCH  14  22
ATOM     22  C   UNL     1       6.320   4.819  18.685  0.00  0.00    +0.000 C 
ATOM     23  N   UNL     1       7.475   4.577  18.243  0.00  0.00    +0.000 NA
ENDBRANCH  14  22
ENDBRANCH   1  14
TORSDOF 6
ENDMDL
