MODEL 1
REMARK VINA RESULT:      -7.2      0.000      0.000
REMARK  Name = 
REMARK  11 active torsions:
REMARK  status: ('A' for Active; 'I' for Inactive)
REMARK    1  A    between atoms: C_1  and  N_2
REMARK    2  A    between atoms: N_2  and  C_3
REMARK    3  A    between atoms: N_2  and  C_4
REMARK    4  A    between atoms: C_4  and  C_5
REMARK    5  A    between atoms: C_5  and  N_6
REMARK    6  A    between atoms: N_6  and  C_7
REMARK    7  A    between atoms: C_12  and  S_13
REMARK    8  A    between atoms: S_13  and  N_16
REMARK    9  A    between atoms: N_16  and  C_17
REMARK   10  A    between atoms: C_22  and  C_23
REMARK   11  A    between atoms: C_23  and  O_25
REMARK                            x       y       z     vdW  Elec       q    Type
REMARK                         _______ _______ _______ _____ _____    ______ ____
ROOT
ATOM      1  S   UNL     1       0.570   9.556  21.502  0.00  0.00    +0.000 S 
ATOM      2  O   UNL     1      -0.683   8.871  21.763  0.00  0.00    +0.000 OA
ATOM      3  O   UNL     1       1.601   9.563  22.510  0.00  0.00    +0.000 OA
ENDROOT
BRANCH   1   9
ATOM      4  C   UNL     1       1.906   7.584  19.959  0.00  0.00    +0.000 A 
ATOM      5  C   UNL     1       2.584   7.270  18.760  0.00  0.00    +0.000 A 
ATOM      6  C   UNL     1       2.667   8.160  17.685  0.00  0.00    +0.000 A 
ATOM      7  C   UNL     1       2.031   9.387  17.753  0.00  0.00    +0.000 A 
ATOM      8  C   UNL     1       1.327   9.729  18.904  0.00  0.00    +0.000 A 
ATOM      9  C   UNL     1       1.259   8.847  20.002  0.00  0.00    +0.000 A 
BRANCH   4  10
ATOM     10  N   UNL     1       1.825   6.635  21.005  0.00  0.00    +0.000 N 
ATOM     11  H   UNL     1       2.213   7.034  21.870  0.00  0.00    +0.000 HD
BRANCH  10  12
ATOM     12  C   UNL     1       2.267   5.241  20.761  0.00  0.00    +0.000 C 
BRANCH  12  13
ATOM     13  C   UNL     1       1.109   4.354  20.241  0.00  0.00    +0.000 C 
BRANCH  13  15
ATOM     14  C   UNL     1       2.764   3.656  18.633  0.00  0.00    +0.000 C 
ATOM     15  N   UNL     1       1.325   3.705  18.923  0.00  0.00    +0.000 NA
ATOM     16  C   UNL     1       0.777   2.349  18.850  0.00  0.00    +0.000 C 
ENDBRANCH  13  15
ENDBRANCH  12  13
ENDBRANCH  10  12
ENDBRANCH   4  10
ENDBRANCH   1   9
BRANCH   1  17
ATOM     17  N   UNL     1       0.172  11.153  21.189  0.00  0.00    +0.000 N 
ATOM     18  H   UNL     1       1.005  11.753  21.238  0.00  0.00    +0.000 HD
BRANCH  17  19
ATOM     19  C   UNL     1      -1.033  11.795  21.626  0.00  0.00    +0.000 A 
ATOM     20  C   UNL     1      -1.331  11.903  22.986  0.00  0.00    +0.000 A 
ATOM     21  C   UNL     1      -2.610  12.326  23.398  0.00  0.00    +0.000 A 
ATOM     22  C   UNL     1      -3.615  12.662  22.468  0.00  0.00    +0.000 A 
ATOM     23  C   UNL     1      -3.319  12.573  21.103  0.00  0.00    +0.000 A 
ATOM     24  C   UNL     1      -2.024  12.149  20.695  0.00  0.00    +0.000 A 
ATOM     25  C   UNL     1      -4.395  12.733  20.069  0.00  0.00    +0.000 C 
ATOM     26  C   UNL     1      -5.706  13.384  20.470  0.00  0.00    +0.000 C 
ATOM     27  C   UNL     1      -5.999  13.560  21.947  0.00  0.00    +0.000 C 
ATOM     28  C   UNL     1      -5.003  12.991  22.959  0.00  0.00    +0.000 C 
BRANCH  24  29
ATOM     29  C   UNL     1      -1.731  12.005  19.252  0.00  0.00    +0.000 C 
ATOM     30  O   UNL     1      -1.872  11.006  18.574  0.00  0.00    +0.000 OA
BRANCH  29  31
ATOM     31  O   UNL     1      -1.211  13.140  18.737  0.00  0.00    +0.000 OA
ATOM     32  H   UNL     1      -1.994  13.544  18.302  0.00  0.00    +0.000 HD
ENDBRANCH  29  31
ENDBRANCH  24  29
ENDBRANCH  17  19
ENDBRANCH   1  17
TORSDOF 9
ENDMDL
MODEL 2
REMARK VINA RESULT:      -7.1      2.978      5.608
REMARK  Name = 
REMARK  11 active torsions:
REMARK  status: ('A' for Active; 'I' for Inactive)
REMARK    1  A    between atoms: C_1  and  N_2
REMARK    2  A    between atoms: N_2  and  C_3
REMARK    3  A    between atoms: N_2  and  C_4
REMARK    4  A    between atoms: C_4  and  C_5
REMARK    5  A    between atoms: C_5  and  N_6
REMARK    6  A    between atoms: N_6  and  C_7
REMARK    7  A    between atoms: C_12  and  S_13
REMARK    8  A    between atoms: S_13  and  N_16
REMARK    9  A    between atoms: N_16  and  C_17
REMARK   10  A    between atoms: C_22  and  C_23
REMARK   11  A    between atoms: C_23  and  O_25
REMARK                            x       y       z     vdW  Elec       q    Type
REMARK                         _______ _______ _______ _____ _____    ______ ____
ROOT
ATOM      1  S   UNL     1       2.891   6.147  18.943  0.00  0.00    +0.000 S 
ATOM      2  O   UNL     1       4.228   6.542  18.536  0.00  0.00    +0.000 OA
ATOM      3  O   UNL     1       1.886   5.899  17.940  0.00  0.00    +0.000 OA
ENDROOT
BRANCH   1   9
ATOM      4  C   UNL     1       3.840   3.546  19.561  0.00  0.00    +0.000 A 
ATOM      5  C   UNL     1       3.692   2.381  20.348  0.00  0.00    +0.000 A 
ATOM      6  C   UNL     1       2.795   2.302  21.417  0.00  0.00    +0.000 A 
ATOM      7  C   UNL     1       2.041   3.409  21.770  0.00  0.00    +0.000 A 
ATOM      8  C   UNL     1       2.174   4.586  21.041  0.00  0.00    +0.000 A 
ATOM      9  C   UNL     1       3.059   4.667  19.946  0.00  0.00    +0.000 A 
BRANCH   4  10
ATOM     10  N   UNL     1       4.785   3.583  18.510  0.00  0.00    +0.000 N 
ATOM     11  H   UNL     1       5.290   4.479  18.524  0.00  0.00    +0.000 HD
BRANCH  10  12
ATOM     12  C   UNL     1       4.375   3.173  17.144  0.00  0.00    +0.000 C 
BRANCH  12  13
ATOM     13  C   UNL     1       4.886   4.164  16.070  0.00  0.00    +0.000 C 
BRANCH  13  15
ATOM     14  C   UNL     1       6.257   4.191  14.086  0.00  0.00    +0.000 C 
ATOM     15  N   UNL     1       6.241   3.896  15.526  0.00  0.00    +0.000 NA
ATOM     16  C   UNL     1       7.293   4.674  16.184  0.00  0.00    +0.000 C 
ENDBRANCH  13  15
ENDBRANCH  12  13
ENDBRANCH  10  12
ENDBRANCH   4  10
ENDBRANCH   1   9
BRANCH   1  17
ATOM     17  N   UNL     1       2.319   7.380  19.923  0.00  0.00    +0.000 N 
ATOM     18  H   UNL     1       1.890   6.999  20.775  0.00  0.00    +0.000 HD
BRANCH  17  19
ATOM     19  C   UNL     1       1.697   8.580  19.446  0.00  0.00    +0.000 A 
ATOM     20  C   UNL     1       2.120   9.180  18.259  0.00  0.00    +0.000 A 
ATOM     21  C   UNL     1       1.666  10.469  17.915  0.00  0.00    +0.000 A 
ATOM     22  C   UNL     1       0.773  11.184  18.740  0.00  0.00    +0.000 A 
ATOM     23  C   UNL     1       0.331  10.583  19.924  0.00  0.00    +0.000 A 
ATOM     24  C   UNL     1       0.790   9.280  20.262  0.00  0.00    +0.000 A 
ATOM     25  C   UNL     1      -0.465  11.361  20.932  0.00  0.00    +0.000 C 
ATOM     26  C   UNL     1      -1.131  12.653  20.500  0.00  0.00    +0.000 C 
ATOM     27  C   UNL     1      -0.717  13.268  19.177  0.00  0.00    +0.000 C 
ATOM     28  C   UNL     1       0.414  12.606  18.389  0.00  0.00    +0.000 C 
BRANCH  24  29
ATOM     29  C   UNL     1       0.363   8.670  21.539  0.00  0.00    +0.000 C 
ATOM     30  O   UNL     1      -0.682   8.093  21.760  0.00  0.00    +0.000 OA
BRANCH  29  31
ATOM     31  O   UNL     1       1.277   8.873  22.513  0.00  0.00    +0.000 OA
ATOM     32  H   UNL     1       2.032   8.326  22.202  0.00  0.00    +0.000 HD
ENDBRANCH  29  31
ENDBRANCH  24  29
ENDBRANCH  17  19
ENDBRANCH   1  17
TORSDOF 9
ENDMDL
MODEL 3
REMARK VINA RESULT:      -7.0      3.915      9.591
REMARK  Name = 
REMARK  11 active torsions:
REMARK  status: ('A' for Active; 'I' for Inactive)
REMARK    1  A    between atoms: C_1  and  N_2
REMARK    2  A    between atoms: N_2  and  C_3
REMARK    3  A    between atoms: N_2  and  C_4
REMARK    4  A    between atoms: C_4  and  C_5
REMARK    5  A    between atoms: C_5  and  N_6
REMARK    6  A    between atoms: N_6  and  C_7
REMARK    7  A    between atoms: C_12  and  S_13
REMARK    8  A    between atoms: S_13  and  N_16
REMARK    9  A    between atoms: N_16  and  C_17
REMARK   10  A    between atoms: C_22  and  C_23
REMARK   11  A    between atoms: C_23  and  O_25
REMARK                            x       y       z     vdW  Elec       q    Type
REMARK                         _______ _______ _______ _____ _____    ______ ____
ROOT
ATOM      1  S   UNL     1       2.098   4.770  20.269  0.00  0.00    +0.000 S 
ATOM      2  O   UNL     1       1.967   5.012  21.695  0.00  0.00    +0.000 OA
ATOM      3  O   UNL     1       1.066   4.044  19.572  0.00  0.00    +0.000 OA
ENDROOT
BRANCH   1   9
ATOM      4  C   UNL     1       1.913   7.596  20.087  0.00  0.00    +0.000 A 
ATOM      5  C   UNL     1       1.918   8.737  19.254  0.00  0.00    +0.000 A 
ATOM      6  C   UNL     1       2.223   8.675  17.892  0.00  0.00    +0.000 A 
ATOM      7  C   UNL     1       2.582   7.467  17.318  0.00  0.00    +0.000 A 
ATOM      8  C   UNL     1       2.618   6.321  18.106  0.00  0.00    +0.000 A 
ATOM      9  C   UNL     1       2.288   6.371  19.476  0.00  0.00    +0.000 A 
BRANCH   4  10
ATOM     10  N   UNL     1       1.628   7.719  21.467  0.00  0.00    +0.000 N 
ATOM     11  H   UNL     1       0.871   7.072  21.727  0.00  0.00    +0.000 HD
BRANCH  10  12
ATOM     12  C   UNL     1       1.464   9.068  22.062  0.00  0.00    +0.000 C 
BRANCH  12  13
ATOM     13  C   UNL     1       0.017   9.306  22.557  0.00  0.00    +0.000 C 
BRANCH  13  15
ATOM     14  C   UNL     1      -1.376  11.205  23.071  0.00  0.00    +0.000 C 
ATOM     15  N   UNL     1      -0.680  10.490  21.993  0.00  0.00    +0.000 NA
ATOM     16  C   UNL     1       0.221  11.419  21.308  0.00  0.00    +0.000 C 
ENDBRANCH  13  15
ENDBRANCH  12  13
ENDBRANCH  10  12
ENDBRANCH   4  10
ENDBRANCH   1   9
BRANCH   1  17
ATOM     17  N   UNL     1       3.525   3.916  20.070  0.00  0.00    +0.000 N 
ATOM     18  H   UNL     1       3.893   3.606  20.977  0.00  0.00    +0.000 HD
BRANCH  17  19
ATOM     19  C   UNL     1       4.541   4.235  19.109  0.00  0.00    +0.000 A 
ATOM     20  C   UNL     1       5.480   5.234  19.369  0.00  0.00    +0.000 A 
ATOM     21  C   UNL     1       6.326   5.695  18.340  0.00  0.00    +0.000 A 
ATOM     22  C   UNL     1       6.262   5.165  17.035  0.00  0.00    +0.000 A 
ATOM     23  C   UNL     1       5.334   4.151  16.771  0.00  0.00    +0.000 A 
ATOM     24  C   UNL     1       4.487   3.687  17.816  0.00  0.00    +0.000 A 
ATOM     25  C   UNL     1       5.087   3.679  15.367  0.00  0.00    +0.000 C 
ATOM     26  C   UNL     1       6.111   4.002  14.295  0.00  0.00    +0.000 C 
ATOM     27  C   UNL     1       7.172   5.040  14.603  0.00  0.00    +0.000 C 
ATOM     28  C   UNL     1       7.102   5.776  15.942  0.00  0.00    +0.000 C 
BRANCH  24  29
ATOM     29  C   UNL     1       3.472   2.654  17.520  0.00  0.00    +0.000 C 
ATOM     30  O   UNL     1       2.371   2.828  17.035  0.00  0.00    +0.000 OA
BRANCH  29  31
ATOM     31  O   UNL     1       3.884   1.429  17.911  0.00  0.00    +0.000 OA
ATOM     32  H   UNL     1       4.313   1.624  18.774  0.00  0.00    +0.000 HD
ENDBRANCH  29  31
ENDBRANCH  24  29
ENDBRANCH  17  19
ENDBRANCH   1  17
TORSDOF 9
ENDMDL
MODEL 4
REMARK VINA RESULT:      -7.0      0.734      1.063
REMARK  Name = 
REMARK  11 active torsions:
REMARK  status: ('A' for Active; 'I' for Inactive)
REMARK    1  A    between atoms: C_1  and  N_2
REMARK    2  A    between atoms: N_2  and  C_3
REMARK    3  A    between atoms: N_2  and  C_4
REMARK    4  A    between atoms: C_4  and  C_5
REMARK    5  A    between atoms: C_5  and  N_6
REMARK    6  A    between atoms: N_6  and  C_7
REMARK    7  A    between atoms: C_12  and  S_13
REMARK    8  A    between atoms: S_13  and  N_16
REMARK    9  A    between atoms: N_16  and  C_17
REMARK   10  A    between atoms: C_22  and  C_23
REMARK   11  A    between atoms: C_23  and  O_25
REMARK                            x       y       z     vdW  Elec       q    Type
REMARK                         _______ _______ _______ _____ _____    ______ ____
ROOT
ATOM      1  S   UNL     1       0.712   9.211  21.356  0.00  0.00    +0.000 S 
ATOM      2  O   UNL     1      -0.568   8.557  21.562  0.00  0.00    +0.000 OA
ATOM      3  O   UNL     1       1.687   9.219  22.418  0.00  0.00    +0.000 OA
ENDROOT
BRANCH   1   9
ATOM      4  C   UNL     1       2.095   7.185  19.931  0.00  0.00    +0.000 A 
ATOM      5  C   UNL     1       2.829   6.832  18.776  0.00  0.00    +0.000 A 
ATOM      6  C   UNL     1       2.980   7.694  17.686  0.00  0.00    +0.000 A 
ATOM      7  C   UNL     1       2.359   8.932  17.692  0.00  0.00    +0.000 A 
ATOM      8  C   UNL     1       1.603   9.311  18.797  0.00  0.00    +0.000 A 
ATOM      9  C   UNL     1       1.465   8.456  19.910  0.00  0.00    +0.000 A 
BRANCH   4  10
ATOM     10  N   UNL     1       1.947   6.262  20.993  0.00  0.00    +0.000 N 
ATOM     11  H   UNL     1       2.802   6.247  21.565  0.00  0.00    +0.000 HD
BRANCH  10  12
ATOM     12  C   UNL     1       1.414   4.906  20.714  0.00  0.00    +0.000 C 
BRANCH  12  13
ATOM     13  C   UNL     1       2.480   3.810  20.957  0.00  0.00    +0.000 C 
BRANCH  13  15
ATOM     14  C   UNL     1       1.740   3.104  18.774  0.00  0.00    +0.000 C 
ATOM     15  N   UNL     1       2.545   2.727  19.944  0.00  0.00    +0.000 NA
ATOM     16  C   UNL     1       3.911   2.427  19.506  0.00  0.00    +0.000 C 
ENDBRANCH  13  15
ENDBRANCH  12  13
ENDBRANCH  10  12
ENDBRANCH   4  10
ENDBRANCH   1   9
BRANCH   1  17
ATOM     17  N   UNL     1       0.366  10.809  20.990  0.00  0.00    +0.000 N 
ATOM     18  H   UNL     1       1.225  11.370  20.955  0.00  0.00    +0.000 HD
BRANCH  17  19
ATOM     19  C   UNL     1      -0.778  11.527  21.471  0.00  0.00    +0.000 A 
ATOM     20  C   UNL     1      -1.039  11.619  22.839  0.00  0.00    +0.000 A 
ATOM     21  C   UNL     1      -2.274  12.126  23.292  0.00  0.00    +0.000 A 
ATOM     22  C   UNL     1      -3.269  12.562  22.394  0.00  0.00    +0.000 A 
ATOM     23  C   UNL     1      -3.009  12.488  21.021  0.00  0.00    +0.000 A 
ATOM     24  C   UNL     1      -1.759  11.980  20.572  0.00  0.00    +0.000 A 
ATOM     25  C   UNL     1      -4.092  12.758  20.016  0.00  0.00    +0.000 C 
ATOM     26  C   UNL     1      -5.340  13.494  20.464  0.00  0.00    +0.000 C 
ATOM     27  C   UNL     1      -5.588  13.651  21.951  0.00  0.00    +0.000 C 
ATOM     28  C   UNL     1      -4.618  12.981  22.925  0.00  0.00    +0.000 C 
BRANCH  24  29
ATOM     29  C   UNL     1      -1.508  11.854  19.120  0.00  0.00    +0.000 C 
ATOM     30  O   UNL     1      -1.225  12.747  18.347  0.00  0.00    +0.000 OA
BRANCH  29  31
ATOM     31  O   UNL     1      -1.686  10.584  18.696  0.00  0.00    +0.000 OA
ATOM     32  H   UNL     1      -1.026  10.516  17.970  0.00  0.00    +0.000 HD
ENDBRANCH  29  31
ENDBRANCH  24  29
ENDBRANCH  17  19
ENDBRANCH   1  17
TORSDOF 9
ENDMDL
MODEL 5
REMARK VINA RESULT:      -6.9      2.949      4.474
REMARK  Name = 
REMARK  11 active torsions:
REMARK  status: ('A' for Active; 'I' for Inactive)
REMARK    1  A    between atoms: C_1  and  N_2
REMARK    2  A    between atoms: N_2  and  C_3
REMARK    3  A    between atoms: N_2  and  C_4
REMARK    4  A    between atoms: C_4  and  C_5
REMARK    5  A    between atoms: C_5  and  N_6
REMARK    6  A    between atoms: N_6  and  C_7
REMARK    7  A    between atoms: C_12  and  S_13
REMARK    8  A    between atoms: S_13  and  N_16
REMARK    9  A    between atoms: N_16  and  C_17
REMARK   10  A    between atoms: C_22  and  C_23
REMARK   11  A    between atoms: C_23  and  O_25
REMARK                            x       y       z     vdW  Elec       q    Type
REMARK                         _______ _______ _______ _____ _____    ______ ____
ROOT
ATOM      1  S   UNL     1       2.671   6.038  18.942  0.00  0.00    +0.000 S 
ATOM      2  O   UNL     1       1.462   5.257  18.747  0.00  0.00    +0.000 OA
ATOM      3  O   UNL     1       3.430   5.884  20.157  0.00  0.00    +0.000 OA
ENDROOT
BRANCH   1   9
ATOM      4  C   UNL     1       3.815   4.425  16.907  0.00  0.00    +0.000 A 
ATOM      5  C   UNL     1       4.871   4.243  15.986  0.00  0.00    +0.000 A 
ATOM      6  C   UNL     1       5.842   5.221  15.749  0.00  0.00    +0.000 A 
ATOM      7  C   UNL     1       5.765   6.443  16.396  0.00  0.00    +0.000 A 
ATOM      8  C   UNL     1       4.726   6.677  17.292  0.00  0.00    +0.000 A 
ATOM      9  C   UNL     1       3.757   5.687  17.554  0.00  0.00    +0.000 A 
BRANCH   4  10
ATOM     10  N   UNL     1       2.841   3.415  17.086  0.00  0.00    +0.000 N 
ATOM     11  H   UNL     1       1.948   3.837  17.372  0.00  0.00    +0.000 HD
BRANCH  10  12
ATOM     12  C   UNL     1       3.183   2.201  17.868  0.00  0.00    +0.000 C 
BRANCH  12  13
ATOM     13  C   UNL     1       2.280   2.050  19.117  0.00  0.00    +0.000 C 
BRANCH  13  15
ATOM     14  C   UNL     1       4.355   2.538  20.243  0.00  0.00    +0.000 C 
ATOM     15  N   UNL     1       2.973   2.077  20.430  0.00  0.00    +0.000 NA
ATOM     16  C   UNL     1       2.312   2.937  21.414  0.00  0.00    +0.000 C 
ENDBRANCH  13  15
ENDBRANCH  12  13
ENDBRANCH  10  12
ENDBRANCH   4  10
ENDBRANCH   1   9
BRANCH   1  17
ATOM     17  N   UNL     1       2.207   7.645  18.847  0.00  0.00    +0.000 N 
ATOM     18  H   UNL     1       2.870   8.183  18.277  0.00  0.00    +0.000 HD
BRANCH  17  19
ATOM     19  C   UNL     1       1.628   8.393  19.925  0.00  0.00    +0.000 A 
ATOM     20  C   UNL     1       1.365   7.785  21.154  0.00  0.00    +0.000 A 
ATOM     21  C   UNL     1       0.595   8.456  22.125  0.00  0.00    +0.000 A 
ATOM     22  C   UNL     1       0.081   9.749  21.899  0.00  0.00    +0.000 A 
ATOM     23  C   UNL     1       0.355  10.372  20.676  0.00  0.00    +0.000 A 
ATOM     24  C   UNL     1       1.137   9.690  19.703  0.00  0.00    +0.000 A 
ATOM     25  C   UNL     1      -0.316  11.662  20.301  0.00  0.00    +0.000 C 
ATOM     26  C   UNL     1      -0.969  12.492  21.390  0.00  0.00    +0.000 C 
ATOM     27  C   UNL     1      -1.195  11.850  22.745  0.00  0.00    +0.000 C 
ATOM     28  C   UNL     1      -0.838  10.373  22.920  0.00  0.00    +0.000 C 
BRANCH  24  29
ATOM     29  C   UNL     1       1.379  10.330  18.392  0.00  0.00    +0.000 C 
ATOM     30  O   UNL     1       2.223  11.163  18.129  0.00  0.00    +0.000 OA
BRANCH  29  31
ATOM     31  O   UNL     1       0.485   9.916  17.467  0.00  0.00    +0.000 OA
ATOM     32  H   UNL     1       0.819   9.018  17.248  0.00  0.00    +0.000 HD
ENDBRANCH  29  31
ENDBRANCH  24  29
ENDBRANCH  17  19
ENDBRANCH   1  17
TORSDOF 9
ENDMDL
MODEL 6
REMARK VINA RESULT:      -6.9      2.812      4.376
REMARK  Name = 
REMARK  11 active torsions:
REMARK  status: ('A' for Active; 'I' for Inactive)
REMARK    1  A    between atoms: C_1  and  N_2
REMARK    2  A    between atoms: N_2  and  C_3
REMARK    3  A    between atoms: N_2  and  C_4
REMARK    4  A    between atoms: C_4  and  C_5
REMARK    5  A    between atoms: C_5  and  N_6
REMARK    6  A    between atoms: N_6  and  C_7
REMARK    7  A    between atoms: C_12  and  S_13
REMARK    8  A    between atoms: S_13  and  N_16
REMARK    9  A    between atoms: N_16  and  C_17
REMARK   10  A    between atoms: C_22  and  C_23
REMARK   11  A    between atoms: C_23  and  O_25
REMARK                            x       y       z     vdW  Elec       q    Type
REMARK                         _______ _______ _______ _____ _____    ______ ____
ROOT
ATOM      1  S   UNL     1       2.704   6.058  18.766  0.00  0.00    +0.000 S 
ATOM      2  O   UNL     1       1.872   5.337  17.818  0.00  0.00    +0.000 OA
ATOM      3  O   UNL     1       2.665   5.702  20.162  0.00  0.00    +0.000 OA
ENDROOT
BRANCH   1   9
ATOM      4  C   UNL     1       5.295   4.905  18.654  0.00  0.00    +0.000 A 
ATOM      5  C   UNL     1       6.650   5.058  18.283  0.00  0.00    +0.000 A 
ATOM      6  C   UNL     1       7.113   6.155  17.551  0.00  0.00    +0.000 A 
ATOM      7  C   UNL     1       6.222   7.124  17.121  0.00  0.00    +0.000 A 
ATOM      8  C   UNL     1       4.873   7.002  17.439  0.00  0.00    +0.000 A 
ATOM      9  C   UNL     1       4.402   5.910  18.197  0.00  0.00    +0.000 A 
BRANCH   4  10
ATOM     10  N   UNL     1       4.874   3.759  19.367  0.00  0.00    +0.000 N 
ATOM     11  H   UNL     1       5.648   3.400  19.941  0.00  0.00    +0.000 HD
BRANCH  10  12
ATOM     12  C   UNL     1       4.135   2.686  18.657  0.00  0.00    +0.000 C 
BRANCH  12  13
ATOM     13  C   UNL     1       3.124   1.973  19.588  0.00  0.00    +0.000 C 
BRANCH  13  15
ATOM     14  C   UNL     1       0.798   2.227  19.009  0.00  0.00    +0.000 C 
ATOM     15  N   UNL     1       1.873   2.714  19.884  0.00  0.00    +0.000 NA
ATOM     16  C   UNL     1       1.444   2.592  21.279  0.00  0.00    +0.000 C 
ENDBRANCH  13  15
ENDBRANCH  12  13
ENDBRANCH  10  12
ENDBRANCH   4  10
ENDBRANCH   1   9
BRANCH   1  17
ATOM     17  N   UNL     1       2.254   7.667  18.651  0.00  0.00    +0.000 N 
ATOM     18  H   UNL     1       2.908   8.187  18.053  0.00  0.00    +0.000 HD
BRANCH  17  19
ATOM     19  C   UNL     1       1.709   8.442  19.728  0.00  0.00    +0.000 A 
ATOM     20  C   UNL     1       1.877   8.037  21.053  0.00  0.00    +0.000 A 
ATOM     21  C   UNL     1       1.154   8.671  22.084  0.00  0.00    +0.000 A 
ATOM     22  C   UNL     1       0.258   9.727  21.819  0.00  0.00    +0.000 A 
ATOM     23  C   UNL     1       0.097  10.149  20.494  0.00  0.00    +0.000 A 
ATOM     24  C   UNL     1       0.834   9.508  19.460  0.00  0.00    +0.000 A 
ATOM     25  C   UNL     1      -0.975  11.134  20.124  0.00  0.00    +0.000 C 
ATOM     26  C   UNL     1      -1.610  11.970  21.220  0.00  0.00    +0.000 C 
ATOM     27  C   UNL     1      -1.372  11.568  22.662  0.00  0.00    +0.000 C 
ATOM     28  C   UNL     1      -0.581  10.288  22.939  0.00  0.00    +0.000 C 
BRANCH  24  29
ATOM     29  C   UNL     1       0.621   9.921  18.056  0.00  0.00    +0.000 C 
ATOM     30  O   UNL     1      -0.402   9.812  17.410  0.00  0.00    +0.000 OA
BRANCH  29  31
ATOM     31  O   UNL     1       1.753  10.413  17.508  0.00  0.00    +0.000 OA
ATOM     32  H   UNL     1       1.719  11.356  17.782  0.00  0.00    +0.000 HD
ENDBRANCH  29  31
ENDBRANCH  24  29
ENDBRANCH  17  19
ENDBRANCH   1  17
TORSDOF 9
ENDMDL
MODEL 7
REMARK VINA RESULT:      -6.9      4.735      7.680
REMARK  Name = 
REMARK  11 active torsions:
REMARK  status: ('A' for Active; 'I' for Inactive)
REMARK    1  A    between atoms: C_1  and  N_2
REMARK    2  A    between atoms: N_2  and  C_3
REMARK    3  A    between atoms: N_2  and  C_4
REMARK    4  A    between atoms: C_4  and  C_5
REMARK    5  A    between atoms: C_5  and  N_6
REMARK    6  A    between atoms: N_6  and  C_7
REMARK    7  A    between atoms: C_12  and  S_13
REMARK    8  A    between atoms: S_13  and  N_16
REMARK    9  A    between atoms: N_16  and  C_17
REMARK   10  A    between atoms: C_22  and  C_23
REMARK   11  A    between atoms: C_23  and  O_25
REMARK                            x       y       z     vdW  Elec       q    Type
REMARK                         _______ _______ _______ _____ _____    ______ ____
ROOT
ATOM      1  S   UNL     1       3.792   3.362  17.516  0.00  0.00    +0.000 S 
ATOM      2  O   UNL     1       2.530   3.552  16.823  0.00  0.00    +0.000 OA
ATOM      3  O   UNL     1       4.098   2.081  18.101  0.00  0.00    +0.000 OA
ENDROOT
BRANCH   1   9
ATOM      4  C   UNL     1       6.397   4.190  16.752  0.00  0.00    +0.000 A 
ATOM      5  C   UNL     1       7.235   4.687  15.728  0.00  0.00    +0.000 A 
ATOM      6  C   UNL     1       6.811   4.816  14.402  0.00  0.00    +0.000 A 
ATOM      7  C   UNL     1       5.539   4.405  14.040  0.00  0.00    +0.000 A 
ATOM      8  C   UNL     1       4.688   3.884  15.009  0.00  0.00    +0.000 A 
ATOM      9  C   UNL     1       5.100   3.773  16.354  0.00  0.00    +0.000 A 
BRANCH   4  10
ATOM     10  N   UNL     1       6.886   4.051  18.072  0.00  0.00    +0.000 N 
ATOM     11  H   UNL     1       6.103   4.064  18.738  0.00  0.00    +0.000 HD
BRANCH  10  12
ATOM     12  C   UNL     1       8.036   4.877  18.515  0.00  0.00    +0.000 C 
BRANCH  12  13
ATOM     13  C   UNL     1       7.596   6.308  18.909  0.00  0.00    +0.000 C 
BRANCH  13  15
ATOM     14  C   UNL     1       6.715   7.804  17.235  0.00  0.00    +0.000 C 
ATOM     15  N   UNL     1       7.933   7.384  17.943  0.00  0.00    +0.000 NA
ATOM     16  C   UNL     1       8.546   8.555  18.573  0.00  0.00    +0.000 C 
ENDBRANCH  13  15
ENDBRANCH  12  13
ENDBRANCH  10  12
ENDBRANCH   4  10
ENDBRANCH   1   9
BRANCH   1  17
ATOM     17  N   UNL     1       3.819   4.492  18.752  0.00  0.00    +0.000 N 
ATOM     18  H   UNL     1       3.871   4.029  19.668  0.00  0.00    +0.000 HD
BRANCH  17  19
ATOM     19  C   UNL     1       3.068   5.713  18.760  0.00  0.00    +0.000 A 
ATOM     20  C   UNL     1       3.366   6.739  17.861  0.00  0.00    +0.000 A 
ATOM     21  C   UNL     1       2.781   8.011  18.021  0.00  0.00    +0.000 A 
ATOM     22  C   UNL     1       1.881   8.286  19.070  0.00  0.00    +0.000 A 
ATOM     23  C   UNL     1       1.564   7.258  19.966  0.00  0.00    +0.000 A 
ATOM     24  C   UNL     1       2.154   5.975  19.795  0.00  0.00    +0.000 A 
ATOM     25  C   UNL     1       0.765   7.535  21.206  0.00  0.00    +0.000 C 
ATOM     26  C   UNL     1      -0.036   8.821  21.289  0.00  0.00    +0.000 C 
ATOM     27  C   UNL     1       0.243   9.910  20.271  0.00  0.00    +0.000 C 
ATOM     28  C   UNL     1       1.379   9.695  19.269  0.00  0.00    +0.000 C 
BRANCH  24  29
ATOM     29  C   UNL     1       1.859   4.907  20.774  0.00  0.00    +0.000 C 
ATOM     30  O   UNL     1       2.573   4.530  21.682  0.00  0.00    +0.000 OA
BRANCH  29  31
ATOM     31  O   UNL     1       0.672   4.316  20.518  0.00  0.00    +0.000 OA
ATOM     32  H   UNL     1       0.309   4.186  21.422  0.00  0.00    +0.000 HD
ENDBRANCH  29  31
ENDBRANCH  24  29
ENDBRANCH  17  19
ENDBRANCH   1  17
TORSDOF 9
ENDMDL
MODEL 8
REMARK VINA RESULT:      -6.8      2.177      8.256
REMARK  Name = 
REMARK  11 active torsions:
REMARK  status: ('A' for Active; 'I' for Inactive)
REMARK    1  A    between atoms: C_1  and  N_2
REMARK    2  A    between atoms: N_2  and  C_3
REMARK    3  A    between atoms: N_2  and  C_4
REMARK    4  A    between atoms: C_4  and  C_5
REMARK    5  A    between atoms: C_5  and  N_6
REMARK    6  A    between atoms: N_6  and  C_7
REMARK    7  A    between atoms: C_12  and  S_13
REMARK    8  A    between atoms: S_13  and  N_16
REMARK    9  A    between atoms: N_16  and  C_17
REMARK   10  A    between atoms: C_22  and  C_23
REMARK   11  A    between atoms: C_23  and  O_25
REMARK                            x       y       z     vdW  Elec       q    Type
REMARK                         _______ _______ _______ _____ _____    ______ ____
ROOT
ATOM      1  S   UNL     1      -1.094  11.772  19.493  0.00  0.00    +0.000 S 
ATOM      2  O   UNL     1      -1.692  10.600  18.878  0.00  0.00    +0.000 OA
ATOM      3  O   UNL     1      -0.869  12.955  18.701  0.00  0.00    +0.000 OA
ENDROOT
BRANCH   1   9
ATOM      4  C   UNL     1      -3.415  12.810  20.754  0.00  0.00    +0.000 A 
ATOM      5  C   UNL     1      -4.004  13.307  21.939  0.00  0.00    +0.000 A 
ATOM      6  C   UNL     1      -3.352  13.276  23.175  0.00  0.00    +0.000 A 
ATOM      7  C   UNL     1      -2.097  12.701  23.281  0.00  0.00    +0.000 A 
ATOM      8  C   UNL     1      -1.490  12.174  22.146  0.00  0.00    +0.000 A 
ATOM      9  C   UNL     1      -2.130  12.223  20.890  0.00  0.00    +0.000 A 
BRANCH   4  10
ATOM     10  N   UNL     1      -4.130  12.838  19.534  0.00  0.00    +0.000 N 
ATOM     11  H   UNL     1      -3.565  13.297  18.807  0.00  0.00    +0.000 HD
BRANCH  10  12
ATOM     12  C   UNL     1      -5.547  13.277  19.528  0.00  0.00    +0.000 C 
BRANCH  12  13
ATOM     13  C   UNL     1      -6.422  12.376  18.622  0.00  0.00    +0.000 C 
BRANCH  13  15
ATOM     14  C   UNL     1      -6.767  10.024  19.025  0.00  0.00    +0.000 C 
ATOM     15  N   UNL     1      -7.268  11.374  19.319  0.00  0.00    +0.000 NA
ATOM     16  C   UNL     1      -7.309  11.562  20.771  0.00  0.00    +0.000 C 
ENDBRANCH  13  15
ENDBRANCH  12  13
ENDBRANCH  10  12
ENDBRANCH   4  10
ENDBRANCH   1   9
BRANCH   1  17
ATOM     17  N   UNL     1       0.394  11.280  20.084  0.00  0.00    +0.000 N 
ATOM     18  H   UNL     1       0.981  12.091  20.313  0.00  0.00    +0.000 HD
BRANCH  17  19
ATOM     19  C   UNL     1       1.129  10.147  19.603  0.00  0.00    +0.000 A 
ATOM     20  C   UNL     1       1.566  10.090  18.279  0.00  0.00    +0.000 A 
ATOM     21  C   UNL     1       2.084   8.888  17.756  0.00  0.00    +0.000 A 
ATOM     22  C   UNL     1       2.189   7.722  18.542  0.00  0.00    +0.000 A 
ATOM     23  C   UNL     1       1.768   7.776  19.876  0.00  0.00    +0.000 A 
ATOM     24  C   UNL     1       1.251   8.994  20.398  0.00  0.00    +0.000 A 
ATOM     25  C   UNL     1       1.678   6.529  20.707  0.00  0.00    +0.000 C 
ATOM     26  C   UNL     1       2.414   5.285  20.244  0.00  0.00    +0.000 C 
ATOM     27  C   UNL     1       2.946   5.251  18.824  0.00  0.00    +0.000 C 
ATOM     28  C   UNL     1       2.635   6.431  17.902  0.00  0.00    +0.000 C 
BRANCH  24  29
ATOM     29  C   UNL     1       0.759   9.033  21.792  0.00  0.00    +0.000 C 
ATOM     30  O   UNL     1      -0.384   8.863  22.168  0.00  0.00    +0.000 OA
BRANCH  29  31
ATOM     31  O   UNL     1       1.747   9.346  22.657  0.00  0.00    +0.000 OA
ATOM     32  H   UNL     1       1.291   9.961  23.274  0.00  0.00    +0.000 HD
ENDBRANCH  29  31
ENDBRANCH  24  29
ENDBRANCH  17  19
ENDBRANCH   1  17
TORSDOF 9
ENDMDL
MODEL 9
REMARK VINA RESULT:      -6.8      2.222      8.315
REMARK  Name = 
REMARK  11 active torsions:
REMARK  status: ('A' for Active; 'I' for Inactive)
REMARK    1  A    between atoms: C_1  and  N_2
REMARK    2  A    between atoms: N_2  and  C_3
REMARK    3  A    between atoms: N_2  and  C_4
REMARK    4  A    between atoms: C_4  and  C_5
REMARK    5  A    between atoms: C_5  and  N_6
REMARK    6  A    between atoms: N_6  and  C_7
REMARK    7  A    between atoms: C_12  and  S_13
REMARK    8  A    between atoms: S_13  and  N_16
REMARK    9  A    between atoms: N_16  and  C_17
REMARK   10  A    between atoms: C_22  and  C_23
REMARK   11  A    between atoms: C_23  and  O_25
REMARK                            x       y       z     vdW  Elec       q    Type
REMARK                         _______ _______ _______ _____ _____    ______ ____
ROOT
ATOM      1  S   UNL     1      -0.899  11.609  19.395  0.00  0.00    +0.000 S 
ATOM      2  O   UNL     1      -1.578  10.342  19.186  0.00  0.00    +0.000 OA
ATOM      3  O   UNL     1      -0.876  12.587  18.336  0.00  0.00    +0.000 OA
ENDROOT
BRANCH   1   9
ATOM      4  C   UNL     1      -2.906  13.008  20.834  0.00  0.00    +0.000 A 
ATOM      5  C   UNL     1      -3.244  13.748  21.989  0.00  0.00    +0.000 A 
ATOM      6  C   UNL     1      -2.371  13.898  23.071  0.00  0.00    +0.000 A 
ATOM      7  C   UNL     1      -1.137  13.270  23.055  0.00  0.00    +0.000 A 
ATOM      8  C   UNL     1      -0.772  12.508  21.950  0.00  0.00    +0.000 A 
ATOM      9  C   UNL     1      -1.637  12.372  20.845  0.00  0.00    +0.000 A 
BRANCH   4  10
ATOM     10  N   UNL     1      -3.838  12.861  19.780  0.00  0.00    +0.000 N 
ATOM     11  H   UNL     1      -3.852  13.713  19.204  0.00  0.00    +0.000 HD
BRANCH  10  12
ATOM     12  C   UNL     1      -5.196  12.340  20.074  0.00  0.00    +0.000 C 
BRANCH  12  13
ATOM     13  C   UNL     1      -6.294  13.169  19.366  0.00  0.00    +0.000 C 
BRANCH  13  15
ATOM     14  C   UNL     1      -6.807  13.049  17.013  0.00  0.00    +0.000 C 
ATOM     15  N   UNL     1      -7.083  12.457  18.329  0.00  0.00    +0.000 NA
ATOM     16  C   UNL     1      -6.804  11.021  18.275  0.00  0.00    +0.000 C 
ENDBRANCH  13  15
ENDBRANCH  12  13
ENDBRANCH  10  12
ENDBRANCH   4  10
ENDBRANCH   1   9
BRANCH   1  17
ATOM     17  N   UNL     1       0.692  11.231  19.756  0.00  0.00    +0.000 N 
ATOM     18  H   UNL     1       1.290  12.063  19.683  0.00  0.00    +0.000 HD
BRANCH  17  19
ATOM     19  C   UNL     1       1.346  10.010  19.385  0.00  0.00    +0.000 A 
ATOM     20  C   UNL     1       1.773   9.800  18.073  0.00  0.00    +0.000 A 
ATOM     21  C   UNL     1       2.205   8.522  17.666  0.00  0.00    +0.000 A 
ATOM     22  C   UNL     1       2.231   7.430  18.557  0.00  0.00    +0.000 A 
ATOM     23  C   UNL     1       1.820   7.636  19.879  0.00  0.00    +0.000 A 
ATOM     24  C   UNL     1       1.390   8.930  20.284  0.00  0.00    +0.000 A 
ATOM     25  C   UNL     1       1.647   6.480  20.821  0.00  0.00    +0.000 C 
ATOM     26  C   UNL     1       2.293   5.152  20.478  0.00  0.00    +0.000 C 
ATOM     27  C   UNL     1       2.817   4.949  19.069  0.00  0.00    +0.000 C 
ATOM     28  C   UNL     1       2.585   6.057  18.041  0.00  0.00    +0.000 C 
BRANCH  24  29
ATOM     29  C   UNL     1       0.906   9.132  21.666  0.00  0.00    +0.000 C 
ATOM     30  O   UNL     1       1.580   9.367  22.650  0.00  0.00    +0.000 OA
BRANCH  29  31
ATOM     31  O   UNL     1      -0.432   8.968  21.751  0.00  0.00    +0.000 OA
ATOM     32  H   UNL     1      -0.534   8.582  22.649  0.00  0.00    +0.000 HD
ENDBRANCH  29  31
ENDBRANCH  24  29
ENDBRANCH  17  19
ENDBRANCH   1  17
TORSDOF 9
ENDMDL
