MODEL 1
REMARK VINA RESULT:      -9.6      0.000      0.000
REMARK  Name = 
REMARK  4 active torsions:
REMARK  status: ('A' for Active; 'I' for Inactive)
REMARK    1  A    between atoms: C_1  and  C_2
REMARK    2  A    between atoms: C_5  and  S_6
REMARK    3  A    between atoms: S_6  and  N_9
REMARK    4  A    between atoms: N_9  and  N_10
REMARK                            x       y       z     vdW  Elec       q    Type
REMARK                         _______ _______ _______ _____ _____    ______ ____
ROOT
ATOM      1  N   UNL     1       6.194   4.243  18.804  0.00  0.00    +0.000 N 
ATOM      2  H   UNL     1       6.481   3.479  19.412  0.00  0.00    +0.000 HD
ENDROOT
BRANCH   1   3
ATOM      3  N   UNL     1       4.995   5.016  19.012  0.00  0.00    +0.000 NA
ATOM      4  C   UNL     1       3.889   4.419  19.336  0.00  0.00    +0.000 C 
ATOM      5  C   UNL     1       3.668   2.922  19.495  0.00  0.00    +0.000 C 
ATOM      6  C   UNL     1       2.907   2.670  20.806  0.00  0.00    +0.000 C 
ATOM      7  C   UNL     1       1.567   3.429  20.811  0.00  0.00    +0.000 C 
ATOM      8  C   UNL     1       0.720   2.990  19.605  0.00  0.00    +0.000 C 
ATOM      9  C   UNL     1       1.471   3.284  18.297  0.00  0.00    +0.000 C 
ATOM     10  C   UNL     1       2.804   2.505  18.294  0.00  0.00    +0.000 C 
ATOM     11  C   UNL     1       1.754   4.800  18.208  0.00  0.00    +0.000 C 
ATOM     12  C   UNL     1       2.605   5.249  19.408  0.00  0.00    +0.000 C 
ATOM     13  C   UNL     1       1.867   4.935  20.717  0.00  0.00    +0.000 C 
ENDBRANCH   1   3
BRANCH   1  14
ATOM     14  S   UNL     1       7.405   4.894  17.785  0.00  0.00    +0.000 S 
ATOM     15  O   UNL     1       8.600   4.088  17.917  0.00  0.00    +0.000 OA
ATOM     16  O   UNL     1       7.434   6.334  17.956  0.00  0.00    +0.000 OA
BRANCH  14  21
ATOM     17  C   UNL     1       5.405   3.530  12.190  0.00  0.00    +0.000 C 
ATOM     18  C   UNL     1       5.873   3.903  13.568  0.00  0.00    +0.000 A 
ATOM     19  C   UNL     1       7.049   4.642  13.748  0.00  0.00    +0.000 A 
ATOM     20  C   UNL     1       7.488   4.975  15.032  0.00  0.00    +0.000 A 
ATOM     21  C   UNL     1       6.746   4.577  16.150  0.00  0.00    +0.000 A 
ATOM     22  C   UNL     1       5.579   3.826  15.986  0.00  0.00    +0.000 A 
ATOM     23  C   UNL     1       5.145   3.496  14.696  0.00  0.00    +0.000 A 
ENDBRANCH  14  21
ENDBRANCH   1  14
TORSDOF 3
ENDMDL
MODEL 2
REMARK VINA RESULT:      -9.3      0.409      1.110
REMARK  Name = 
REMARK  4 active torsions:
REMARK  status: ('A' for Active; 'I' for Inactive)
REMARK    1  A    between atoms: C_1  and  C_2
REMARK    2  A    between atoms: C_5  and  S_6
REMARK    3  A    between atoms: S_6  and  N_9
REMARK    4  A    between atoms: N_9  and  N_10
REMARK                            x       y       z     vdW  Elec       q    Type
REMARK                         _______ _______ _______ _____ _____    ______ ____
ROOT
ATOM      1  N   UNL     1       6.014   4.510  19.174  0.00  0.00    +0.000 N 
ATOM      2  H   UNL     1       6.309   3.870  19.908  0.00  0.00    +0.000 HD
ENDROOT
BRANCH   1   3
ATOM      3  N   UNL     1       4.727   5.158  19.154  0.00  0.00    +0.000 NA
ATOM      4  C   UNL     1       3.655   4.476  19.420  0.00  0.00    +0.000 C 
ATOM      5  C   UNL     1       3.569   2.988  19.728  0.00  0.00    +0.000 C 
ATOM      6  C   UNL     1       2.680   2.790  20.966  0.00  0.00    +0.000 C 
ATOM      7  C   UNL     1       1.281   3.387  20.733  0.00  0.00    +0.000 C 
ATOM      8  C   UNL     1       0.638   2.729  19.499  0.00  0.00    +0.000 C 
ATOM      9  C   UNL     1       1.511   2.969  18.257  0.00  0.00    +0.000 C 
ATOM     10  C   UNL     1       2.907   2.352  18.496  0.00  0.00    +0.000 C 
ATOM     11  C   UNL     1       1.649   4.490  18.024  0.00  0.00    +0.000 C 
ATOM     12  C   UNL     1       2.294   5.156  19.250  0.00  0.00    +0.000 C 
ATOM     13  C   UNL     1       1.436   4.899  20.496  0.00  0.00    +0.000 C 
ENDBRANCH   1   3
BRANCH   1  14
ATOM     14  S   UNL     1       7.258   5.160  18.194  0.00  0.00    +0.000 S 
ATOM     15  O   UNL     1       8.492   4.467  18.498  0.00  0.00    +0.000 OA
ATOM     16  O   UNL     1       7.168   6.607  18.226  0.00  0.00    +0.000 OA
BRANCH  14  21
ATOM     17  C   UNL     1       5.322   3.678  12.607  0.00  0.00    +0.000 C 
ATOM     18  C   UNL     1       5.825   4.006  13.984  0.00  0.00    +0.000 A 
ATOM     19  C   UNL     1       5.122   3.587  15.120  0.00  0.00    +0.000 A 
ATOM     20  C   UNL     1       5.585   3.906  16.399  0.00  0.00    +0.000 A 
ATOM     21  C   UNL     1       6.765   4.643  16.551  0.00  0.00    +0.000 A 
ATOM     22  C   UNL     1       7.468   5.082  15.426  0.00  0.00    +0.000 A 
ATOM     23  C   UNL     1       6.998   4.758  14.147  0.00  0.00    +0.000 A 
ENDBRANCH  14  21
ENDBRANCH   1  14
TORSDOF 3
ENDMDL
MODEL 3
REMARK VINA RESULT:      -9.0      0.935      2.087
REMARK  Name = 
REMARK  4 active torsions:
REMARK  status: ('A' for Active; 'I' for Inactive)
REMARK    1  A    between atoms: C_1  and  C_2
REMARK    2  A    between atoms: C_5  and  S_6
REMARK    3  A    between atoms: S_6  and  N_9
REMARK    4  A    between atoms: N_9  and  N_10
REMARK                            x       y       z     vdW  Elec       q    Type
REMARK                         _______ _______ _______ _____ _____    ______ ____
ROOT
ATOM      1  N   UNL     1       5.895   5.495  19.346  0.00  0.00    +0.000 N 
ATOM      2  H   UNL     1       5.348   6.335  19.514  0.00  0.00    +0.000 HD
ENDROOT
BRANCH   1   3
ATOM      3  N   UNL     1       5.386   4.161  19.544  0.00  0.00    +0.000 NA
ATOM      4  C   UNL     1       4.114   3.930  19.422  0.00  0.00    +0.000 C 
ATOM      5  C   UNL     1       3.023   4.947  19.118  0.00  0.00    +0.000 C 
ATOM      6  C   UNL     1       2.118   4.386  18.011  0.00  0.00    +0.000 C 
ATOM      7  C   UNL     1       1.511   3.036  18.436  0.00  0.00    +0.000 C 
ATOM      8  C   UNL     1       0.716   3.215  19.741  0.00  0.00    +0.000 C 
ATOM      9  C   UNL     1       1.639   3.736  20.854  0.00  0.00    +0.000 C 
ATOM     10  C   UNL     1       2.229   5.097  20.425  0.00  0.00    +0.000 C 
ATOM     11  C   UNL     1       2.782   2.721  21.077  0.00  0.00    +0.000 C 
ATOM     12  C   UNL     1       3.586   2.538  19.778  0.00  0.00    +0.000 C 
ATOM     13  C   UNL     1       2.662   2.040  18.659  0.00  0.00    +0.000 C 
ENDBRANCH   1   3
BRANCH   1  14
ATOM     14  S   UNL     1       7.297   5.685  18.382  0.00  0.00    +0.000 S 
ATOM     15  O   UNL     1       8.246   4.653  18.740  0.00  0.00    +0.000 OA
ATOM     16  O   UNL     1       7.665   7.088  18.368  0.00  0.00    +0.000 OA
BRANCH  14  21
ATOM     17  C   UNL     1       5.091   4.025  12.947  0.00  0.00    +0.000 C 
ATOM     18  C   UNL     1       5.657   4.467  14.266  0.00  0.00    +0.000 A 
ATOM     19  C   UNL     1       6.829   3.888  14.771  0.00  0.00    +0.000 A 
ATOM     20  C   UNL     1       7.345   4.292  16.005  0.00  0.00    +0.000 A 
ATOM     21  C   UNL     1       6.695   5.289  16.742  0.00  0.00    +0.000 A 
ATOM     22  C   UNL     1       5.516   5.863  16.258  0.00  0.00    +0.000 A 
ATOM     23  C   UNL     1       5.005   5.453  15.020  0.00  0.00    +0.000 A 
ENDBRANCH  14  21
ENDBRANCH   1  14
TORSDOF 3
ENDMDL
MODEL 4
REMARK VINA RESULT:      -9.0      0.739      1.932
REMARK  Name = 
REMARK  4 active torsions:
REMARK  status: ('A' for Active; 'I' for Inactive)
REMARK    1  A    between atoms: C_1  and  C_2
REMARK    2  A    between atoms: C_5  and  S_6
REMARK    3  A    between atoms: S_6  and  N_9
REMARK    4  A    between atoms: N_9  and  N_10
REMARK                            x       y       z     vdW  Elec       q    Type
REMARK                         _______ _______ _______ _____ _____    ______ ____
ROOT
ATOM      1  N   UNL     1       5.586   5.571  18.159  0.00  0.00    +0.000 N 
ATOM      2  H   UNL     1       4.933   6.340  18.030  0.00  0.00    +0.000 HD
ENDROOT
BRANCH   1   3
ATOM      3  N   UNL     1       5.219   4.308  18.747  0.00  0.00    +0.000 NA
ATOM      4  C   UNL     1       3.967   3.989  18.867  0.00  0.00    +0.000 C 
ATOM      5  C   UNL     1       2.764   4.840  18.484  0.00  0.00    +0.000 C 
ATOM      6  C   UNL     1       1.777   3.972  17.689  0.00  0.00    +0.000 C 
ATOM      7  C   UNL     1       1.345   2.745  18.512  0.00  0.00    +0.000 C 
ATOM      8  C   UNL     1       0.709   3.208  19.834  0.00  0.00    +0.000 C 
ATOM      9  C   UNL     1       1.717   4.039  20.643  0.00  0.00    +0.000 C 
ATOM     10  C   UNL     1       2.131   5.275  19.815  0.00  0.00    +0.000 C 
ATOM     11  C   UNL     1       2.961   3.173  20.940  0.00  0.00    +0.000 C 
ATOM     12  C   UNL     1       3.607   2.708  19.624  0.00  0.00    +0.000 C 
ATOM     13  C   UNL     1       2.595   1.897  18.804  0.00  0.00    +0.000 C 
ENDBRANCH   1   3
BRANCH   1  14
ATOM     14  S   UNL     1       7.029   5.644  17.240  0.00  0.00    +0.000 S 
ATOM     15  O   UNL     1       7.968   4.686  17.784  0.00  0.00    +0.000 OA
ATOM     16  O   UNL     1       7.386   7.035  17.043  0.00  0.00    +0.000 OA
BRANCH  14  21
ATOM     17  C   UNL     1       5.450   3.173  11.896  0.00  0.00    +0.000 C 
ATOM     18  C   UNL     1       5.820   3.820  13.200  0.00  0.00    +0.000 A 
ATOM     19  C   UNL     1       7.073   4.423  13.368  0.00  0.00    +0.000 A 
ATOM     20  C   UNL     1       7.419   5.012  14.587  0.00  0.00    +0.000 A 
ATOM     21  C   UNL     1       6.507   5.010  15.648  0.00  0.00    +0.000 A 
ATOM     22  C   UNL     1       5.260   4.398  15.500  0.00  0.00    +0.000 A 
ATOM     23  C   UNL     1       4.919   3.810  14.275  0.00  0.00    +0.000 A 
ENDBRANCH  14  21
ENDBRANCH   1  14
TORSDOF 3
ENDMDL
MODEL 5
REMARK VINA RESULT:      -9.0      1.091      2.141
REMARK  Name = 
REMARK  4 active torsions:
REMARK  status: ('A' for Active; 'I' for Inactive)
REMARK    1  A    between atoms: C_1  and  C_2
REMARK    2  A    between atoms: C_5  and  S_6
REMARK    3  A    between atoms: S_6  and  N_9
REMARK    4  A    between atoms: N_9  and  N_10
REMARK                            x       y       z     vdW  Elec       q    Type
REMARK                         _______ _______ _______ _____ _____    ______ ____
ROOT
ATOM      1  N   UNL     1       5.849   5.591  19.331  0.00  0.00    +0.000 N 
ATOM      2  H   UNL     1       5.264   6.414  19.450  0.00  0.00    +0.000 HD
ENDROOT
BRANCH   1   3
ATOM      3  N   UNL     1       5.430   4.260  19.691  0.00  0.00    +0.000 NA
ATOM      4  C   UNL     1       4.307   3.791  19.241  0.00  0.00    +0.000 C 
ATOM      5  C   UNL     1       3.295   4.518  18.367  0.00  0.00    +0.000 C 
ATOM      6  C   UNL     1       2.882   3.591  17.213  0.00  0.00    +0.000 C 
ATOM      7  C   UNL     1       2.298   2.274  17.754  0.00  0.00    +0.000 C 
ATOM      8  C   UNL     1       1.090   2.578  18.657  0.00  0.00    +0.000 C 
ATOM      9  C   UNL     1       1.520   3.470  19.833  0.00  0.00    +0.000 C 
ATOM     10  C   UNL     1       2.089   4.795  19.279  0.00  0.00    +0.000 C 
ATOM     11  C   UNL     1       2.608   2.738  20.649  0.00  0.00    +0.000 C 
ATOM     12  C   UNL     1       3.822   2.433  19.756  0.00  0.00    +0.000 C 
ATOM     13  C   UNL     1       3.391   1.561  18.569  0.00  0.00    +0.000 C 
ENDBRANCH   1   3
BRANCH   1  14
ATOM     14  S   UNL     1       7.177   5.757  18.263  0.00  0.00    +0.000 S 
ATOM     15  O   UNL     1       8.203   4.814  18.656  0.00  0.00    +0.000 OA
ATOM     16  O   UNL     1       7.464   7.168  18.092  0.00  0.00    +0.000 OA
BRANCH  14  21
ATOM     17  C   UNL     1       5.138   3.971  12.804  0.00  0.00    +0.000 C 
ATOM     18  C   UNL     1       5.605   4.391  14.168  0.00  0.00    +0.000 A 
ATOM     19  C   UNL     1       5.243   5.637  14.695  0.00  0.00    +0.000 A 
ATOM     20  C   UNL     1       5.691   6.029  15.959  0.00  0.00    +0.000 A 
ATOM     21  C   UNL     1       6.501   5.171  16.711  0.00  0.00    +0.000 A 
ATOM     22  C   UNL     1       6.884   3.932  16.191  0.00  0.00    +0.000 A 
ATOM     23  C   UNL     1       6.431   3.545  14.923  0.00  0.00    +0.000 A 
ENDBRANCH  14  21
ENDBRANCH   1  14
TORSDOF 3
ENDMDL
MODEL 6
REMARK VINA RESULT:      -8.8      0.826      2.002
REMARK  Name = 
REMARK  4 active torsions:
REMARK  status: ('A' for Active; 'I' for Inactive)
REMARK    1  A    between atoms: C_1  and  C_2
REMARK    2  A    between atoms: C_5  and  S_6
REMARK    3  A    between atoms: S_6  and  N_9
REMARK    4  A    between atoms: N_9  and  N_10
REMARK                            x       y       z     vdW  Elec       q    Type
REMARK                         _______ _______ _______ _____ _____    ______ ____
ROOT
ATOM      1  N   UNL     1       5.583   5.792  17.964  0.00  0.00    +0.000 N 
ATOM      2  H   UNL     1       4.933   6.347  17.413  0.00  0.00    +0.000 HD
ENDROOT
BRANCH   1   3
ATOM      3  N   UNL     1       5.171   4.917  19.033  0.00  0.00    +0.000 NA
ATOM      4  C   UNL     1       4.048   4.274  18.947  0.00  0.00    +0.000 C 
ATOM      5  C   UNL     1       3.029   4.357  17.819  0.00  0.00    +0.000 C 
ATOM      6  C   UNL     1       2.615   2.932  17.420  0.00  0.00    +0.000 C 
ATOM      7  C   UNL     1       2.038   2.175  18.630  0.00  0.00    +0.000 C 
ATOM      8  C   UNL     1       0.833   2.946  19.195  0.00  0.00    +0.000 C 
ATOM      9  C   UNL     1       1.265   4.355  19.631  0.00  0.00    +0.000 C 
ATOM     10  C   UNL     1       1.827   5.111  18.408  0.00  0.00    +0.000 C 
ATOM     11  C   UNL     1       2.360   4.234  20.714  0.00  0.00    +0.000 C 
ATOM     12  C   UNL     1       3.571   3.467  20.157  0.00  0.00    +0.000 C 
ATOM     13  C   UNL     1       3.138   2.068  19.700  0.00  0.00    +0.000 C 
ENDBRANCH   1   3
BRANCH   1  14
ATOM     14  S   UNL     1       7.142   5.567  17.295  0.00  0.00    +0.000 S 
ATOM     15  O   UNL     1       7.845   4.580  18.087  0.00  0.00    +0.000 OA
ATOM     16  O   UNL     1       7.719   6.867  17.010  0.00  0.00    +0.000 OA
BRANCH  14  21
ATOM     17  C   UNL     1       5.620   3.205  11.886  0.00  0.00    +0.000 C 
ATOM     18  C   UNL     1       6.024   3.754  13.224  0.00  0.00    +0.000 A 
ATOM     19  C   UNL     1       5.314   3.409  14.381  0.00  0.00    +0.000 A 
ATOM     20  C   UNL     1       5.685   3.932  15.623  0.00  0.00    +0.000 A 
ATOM     21  C   UNL     1       6.779   4.801  15.717  0.00  0.00    +0.000 A 
ATOM     22  C   UNL     1       7.486   5.166  14.568  0.00  0.00    +0.000 A 
ATOM     23  C   UNL     1       7.109   4.637  13.327  0.00  0.00    +0.000 A 
ENDBRANCH  14  21
ENDBRANCH   1  14
TORSDOF 3
ENDMDL
MODEL 7
REMARK VINA RESULT:      -8.7      1.010      1.449
REMARK  Name = 
REMARK  4 active torsions:
REMARK  status: ('A' for Active; 'I' for Inactive)
REMARK    1  A    between atoms: C_1  and  C_2
REMARK    2  A    between atoms: C_5  and  S_6
REMARK    3  A    between atoms: S_6  and  N_9
REMARK    4  A    between atoms: N_9  and  N_10
REMARK                            x       y       z     vdW  Elec       q    Type
REMARK                         _______ _______ _______ _____ _____    ______ ____
ROOT
ATOM      1  N   UNL     1       6.279   4.326  18.300  0.00  0.00    +0.000 N 
ATOM      2  H   UNL     1       7.025   3.638  18.233  0.00  0.00    +0.000 HD
ENDROOT
BRANCH   1   3
ATOM      3  N   UNL     1       5.319   4.355  19.375  0.00  0.00    +0.000 NA
ATOM      4  C   UNL     1       4.172   3.764  19.233  0.00  0.00    +0.000 C 
ATOM      5  C   UNL     1       3.662   3.038  17.997  0.00  0.00    +0.000 C 
ATOM      6  C   UNL     1       3.070   1.686  18.427  0.00  0.00    +0.000 C 
ATOM      7  C   UNL     1       1.941   1.888  19.453  0.00  0.00    +0.000 C 
ATOM      8  C   UNL     1       0.848   2.786  18.848  0.00  0.00    +0.000 C 
ATOM      9  C   UNL     1       1.439   4.151  18.461  0.00  0.00    +0.000 C 
ATOM     10  C   UNL     1       2.559   3.938  17.419  0.00  0.00    +0.000 C 
ATOM     11  C   UNL     1       2.024   4.822  19.723  0.00  0.00    +0.000 C 
ATOM     12  C   UNL     1       3.121   3.934  20.333  0.00  0.00    +0.000 C 
ATOM     13  C   UNL     1       2.539   2.563  20.700  0.00  0.00    +0.000 C 
ENDBRANCH   1   3
BRANCH   1  14
ATOM     14  S   UNL     1       6.464   5.737  17.348  0.00  0.00    +0.000 S 
ATOM     15  O   UNL     1       7.810   6.238  17.525  0.00  0.00    +0.000 OA
ATOM     16  O   UNL     1       5.303   6.584  17.540  0.00  0.00    +0.000 OA
BRANCH  14  21
ATOM     17  C   UNL     1       6.358   3.260  11.779  0.00  0.00    +0.000 C 
ATOM     18  C   UNL     1       6.363   3.906  13.135  0.00  0.00    +0.000 A 
ATOM     19  C   UNL     1       7.454   4.677  13.555  0.00  0.00    +0.000 A 
ATOM     20  C   UNL     1       7.461   5.265  14.822  0.00  0.00    +0.000 A 
ATOM     21  C   UNL     1       6.367   5.092  15.679  0.00  0.00    +0.000 A 
ATOM     22  C   UNL     1       5.280   4.312  15.280  0.00  0.00    +0.000 A 
ATOM     23  C   UNL     1       5.279   3.726  14.007  0.00  0.00    +0.000 A 
ENDBRANCH  14  21
ENDBRANCH   1  14
TORSDOF 3
ENDMDL
MODEL 8
REMARK VINA RESULT:      -8.6      0.987      1.692
REMARK  Name = 
REMARK  4 active torsions:
REMARK  status: ('A' for Active; 'I' for Inactive)
REMARK    1  A    between atoms: C_1  and  C_2
REMARK    2  A    between atoms: C_5  and  S_6
REMARK    3  A    between atoms: S_6  and  N_9
REMARK    4  A    between atoms: N_9  and  N_10
REMARK                            x       y       z     vdW  Elec       q    Type
REMARK                         _______ _______ _______ _____ _____    ______ ____
ROOT
ATOM      1  N   UNL     1       6.255   4.340  18.409  0.00  0.00    +0.000 N 
ATOM      2  H   UNL     1       6.997   3.645  18.440  0.00  0.00    +0.000 HD
ENDROOT
BRANCH   1   3
ATOM      3  N   UNL     1       5.229   4.454  19.415  0.00  0.00    +0.000 NA
ATOM      4  C   UNL     1       4.110   3.813  19.272  0.00  0.00    +0.000 C 
ATOM      5  C   UNL     1       3.697   2.940  18.095  0.00  0.00    +0.000 C 
ATOM      6  C   UNL     1       3.115   1.624  18.635  0.00  0.00    +0.000 C 
ATOM      7  C   UNL     1       1.919   1.899  19.564  0.00  0.00    +0.000 C 
ATOM      8  C   UNL     1       0.843   2.689  18.800  0.00  0.00    +0.000 C 
ATOM      9  C   UNL     1       1.420   4.022  18.301  0.00  0.00    +0.000 C 
ATOM     10  C   UNL     1       2.609   3.735  17.357  0.00  0.00    +0.000 C 
ATOM     11  C   UNL     1       1.908   4.846  19.514  0.00  0.00    +0.000 C 
ATOM     12  C   UNL     1       2.988   4.067  20.282  0.00  0.00    +0.000 C 
ATOM     13  C   UNL     1       2.420   2.724  20.762  0.00  0.00    +0.000 C 
ENDBRANCH   1   3
BRANCH   1  14
ATOM     14  S   UNL     1       6.514   5.676  17.369  0.00  0.00    +0.000 S 
ATOM     15  O   UNL     1       7.856   6.173  17.583  0.00  0.00    +0.000 OA
ATOM     16  O   UNL     1       5.357   6.549  17.436  0.00  0.00    +0.000 OA
BRANCH  14  21
ATOM     17  C   UNL     1       6.200   3.336  11.749  0.00  0.00    +0.000 C 
ATOM     18  C   UNL     1       6.303   3.878  13.146  0.00  0.00    +0.000 A 
ATOM     19  C   UNL     1       5.327   3.573  14.103  0.00  0.00    +0.000 A 
ATOM     20  C   UNL     1       5.419   4.091  15.398  0.00  0.00    +0.000 A 
ATOM     21  C   UNL     1       6.497   4.913  15.748  0.00  0.00    +0.000 A 
ATOM     22  C   UNL     1       7.468   5.237  14.798  0.00  0.00    +0.000 A 
ATOM     23  C   UNL     1       7.370   4.715  13.502  0.00  0.00    +0.000 A 
ENDBRANCH  14  21
ENDBRANCH   1  14
TORSDOF 3
ENDMDL
MODEL 9
REMARK VINA RESULT:      -8.4      0.981      1.130
REMARK  Name = 
REMARK  4 active torsions:
REMARK  status: ('A' for Active; 'I' for Inactive)
REMARK    1  A    between atoms: C_1  and  C_2
REMARK    2  A    between atoms: C_5  and  S_6
REMARK    3  A    between atoms: S_6  and  N_9
REMARK    4  A    between atoms: N_9  and  N_10
REMARK                            x       y       z     vdW  Elec       q    Type
REMARK                         _______ _______ _______ _____ _____    ______ ____
ROOT
ATOM      1  N   UNL     1       6.313   4.830  19.554  0.00  0.00    +0.000 N 
ATOM      2  H   UNL     1       6.708   4.253  20.293  0.00  0.00    +0.000 HD
ENDROOT
BRANCH   1   3
ATOM      3  N   UNL     1       5.013   5.446  19.636  0.00  0.00    +0.000 NA
ATOM      4  C   UNL     1       3.945   4.731  19.453  0.00  0.00    +0.000 C 
ATOM      5  C   UNL     1       3.882   3.251  19.103  0.00  0.00    +0.000 C 
ATOM      6  C   UNL     1       2.854   2.569  20.020  0.00  0.00    +0.000 C 
ATOM      7  C   UNL     1       1.472   3.230  19.874  0.00  0.00    +0.000 C 
ATOM      8  C   UNL     1       1.016   3.155  18.406  0.00  0.00    +0.000 C 
ATOM      9  C   UNL     1       2.027   3.876  17.501  0.00  0.00    +0.000 C 
ATOM     10  C   UNL     1       3.406   3.196  17.643  0.00  0.00    +0.000 C 
ATOM     11  C   UNL     1       2.130   5.354  17.939  0.00  0.00    +0.000 C 
ATOM     12  C   UNL     1       2.589   5.440  19.404  0.00  0.00    +0.000 C 
ATOM     13  C   UNL     1       1.593   4.701  20.307  0.00  0.00    +0.000 C 
ENDBRANCH   1   3
BRANCH   1  14
ATOM     14  S   UNL     1       7.418   5.432  18.393  0.00  0.00    +0.000 S 
ATOM     15  O   UNL     1       8.636   4.655  18.471  0.00  0.00    +0.000 OA
ATOM     16  O   UNL     1       7.431   6.880  18.470  0.00  0.00    +0.000 OA
BRANCH  14  21
ATOM     17  C   UNL     1       4.970   4.190  12.950  0.00  0.00    +0.000 C 
ATOM     18  C   UNL     1       5.539   4.474  14.311  0.00  0.00    +0.000 A 
ATOM     19  C   UNL     1       5.219   5.658  14.986  0.00  0.00    +0.000 A 
ATOM     20  C   UNL     1       5.762   5.925  16.246  0.00  0.00    +0.000 A 
ATOM     21  C   UNL     1       6.626   5.001  16.845  0.00  0.00    +0.000 A 
ATOM     22  C   UNL     1       6.966   3.823  16.175  0.00  0.00    +0.000 A 
ATOM     23  C   UNL     1       6.418   3.562  14.913  0.00  0.00    +0.000 A 
ENDBRANCH  14  21
ENDBRANCH   1  14
TORSDOF 3
ENDMDL
