MODEL 1
REMARK VINA RESULT:      -5.6      0.000      0.000
REMARK  Name = 
REMARK  10 active torsions:
REMARK  status: ('A' for Active; 'I' for Inactive)
REMARK    1  A    between atoms: C_1  and  C_2
REMARK    2  A    between atoms: C_2  and  C_3
REMARK    3  A    between atoms: C_3  and  C_4
REMARK    4  A    between atoms: C_4  and  C_5
REMARK    5  A    between atoms: C_4  and  N_6
REMARK    6  A    between atoms: C_7  and  C_9
REMARK    7  A    between atoms: C_9  and  N_10
REMARK    8  A    between atoms: C_9  and  C_11
REMARK    9  A    between atoms: C_11  and  C_12
REMARK   10  A    between atoms: C_12  and  O_14
REMARK                            x       y       z     vdW  Elec       q    Type
REMARK                         _______ _______ _______ _____ _____    ______ ____
ROOT
ATOM      1  N   UNL     1       5.512   3.606  18.480  0.00  0.00    +0.000 N 
ATOM      2  C   UNL     1       5.975   4.863  18.815  0.00  0.00    +0.000 C 
ATOM      3  O   UNL     1       5.396   5.617  19.596  0.00  0.00    +0.000 OA
ATOM      4  H   UNL     1       6.107   3.002  17.922  0.00  0.00    +0.000 HD
ENDROOT
BRANCH   1   5
ATOM      5  C   UNL     1       4.313   3.037  19.093  0.00  0.00    +0.000 C 
ATOM      6  C   UNL     1       4.676   2.026  20.186  0.00  0.00    +0.000 C 
BRANCH   5   7
ATOM      7  C   UNL     1       3.403   2.412  18.016  0.00  0.00    +0.000 C 
BRANCH   7   9
ATOM      8  C   UNL     1       0.993   2.596  18.807  0.00  0.00    +0.000 C 
ATOM      9  C   UNL     1       2.060   3.140  17.870  0.00  0.00    +0.000 C 
ENDBRANCH   7   9
ENDBRANCH   5   7
ENDBRANCH   1   5
BRANCH   2  10
ATOM     10  C   UNL     1       7.258   5.300  18.079  0.00  0.00    +0.000 C 
BRANCH  10  11
ATOM     11  N   UNL     1       8.047   4.085  17.736  0.00  0.00    +0.000 NA
ATOM     12  H   UNL     1       8.731   3.922  18.482  0.00  0.00    +0.000 HD
ATOM     13  H   UNL     1       8.621   4.285  16.914  0.00  0.00    +0.000 HD
ENDBRANCH  10  11
BRANCH  10  14
ATOM     14  C   UNL     1       6.890   6.051  16.799  0.00  0.00    +0.000 C 
BRANCH  14  15
ATOM     15  C   UNL     1       6.851   5.131  15.600  0.00  0.00    +0.000 C 
ATOM     16  O   UNL     1       6.024   4.261  15.414  0.00  0.00    +0.000 OA
BRANCH  15  17
ATOM     17  O   UNL     1       7.835   5.412  14.706  0.00  0.00    +0.000 OA
ATOM     18  H   UNL     1       8.141   4.642  14.178  0.00  0.00    +0.000 HD
ENDBRANCH  15  17
ENDBRANCH  14  15
ENDBRANCH  10  14
ENDBRANCH   2  10
TORSDOF 8
ENDMDL
MODEL 2
REMARK VINA RESULT:      -5.6      0.782      1.150
REMARK  Name = 
REMARK  10 active torsions:
REMARK  status: ('A' for Active; 'I' for Inactive)
REMARK    1  A    between atoms: C_1  and  C_2
REMARK    2  A    between atoms: C_2  and  C_3
REMARK    3  A    between atoms: C_3  and  C_4
REMARK    4  A    between atoms: C_4  and  C_5
REMARK    5  A    between atoms: C_4  and  N_6
REMARK    6  A    between atoms: C_7  and  C_9
REMARK    7  A    between atoms: C_9  and  N_10
REMARK    8  A    between atoms: C_9  and  C_11
REMARK    9  A    between atoms: C_11  and  C_12
REMARK   10  A    between atoms: C_12  and  O_14
REMARK                            x       y       z     vdW  Elec       q    Type
REMARK                         _______ _______ _______ _____ _____    ______ ____
ROOT
ATOM      1  N   UNL     1       5.317   3.482  18.815  0.00  0.00    +0.000 N 
ATOM      2  C   UNL     1       5.562   4.825  19.018  0.00  0.00    +0.000 C 
ATOM      3  O   UNL     1       4.863   5.547  19.729  0.00  0.00    +0.000 OA
ATOM      4  H   UNL     1       6.006   2.933  18.311  0.00  0.00    +0.000 HD
ENDROOT
BRANCH   1   5
ATOM      5  C   UNL     1       4.228   2.785  19.498  0.00  0.00    +0.000 C 
ATOM      6  C   UNL     1       4.768   1.724  20.463  0.00  0.00    +0.000 C 
BRANCH   5   7
ATOM      7  C   UNL     1       3.250   2.178  18.471  0.00  0.00    +0.000 C 
BRANCH   7   9
ATOM      8  C   UNL     1       1.902   4.233  17.820  0.00  0.00    +0.000 C 
ATOM      9  C   UNL     1       2.871   3.159  17.354  0.00  0.00    +0.000 C 
ENDBRANCH   7   9
ENDBRANCH   5   7
ENDBRANCH   1   5
BRANCH   2  10
ATOM     10  C   UNL     1       6.756   5.395  18.224  0.00  0.00    +0.000 C 
BRANCH  10  11
ATOM     11  N   UNL     1       7.796   4.336  18.104  0.00  0.00    +0.000 NA
ATOM     12  H   UNL     1       8.354   4.524  17.265  0.00  0.00    +0.000 HD
ATOM     13  H   UNL     1       7.338   3.444  17.902  0.00  0.00    +0.000 HD
ENDBRANCH  10  11
BRANCH  10  14
ATOM     14  C   UNL     1       6.295   5.822  16.831  0.00  0.00    +0.000 C 
BRANCH  14  15
ATOM     15  C   UNL     1       6.796   4.878  15.761  0.00  0.00    +0.000 C 
ATOM     16  O   UNL     1       7.661   5.141  14.948  0.00  0.00    +0.000 OA
BRANCH  15  17
ATOM     17  O   UNL     1       6.198   3.660  15.830  0.00  0.00    +0.000 OA
ATOM     18  H   UNL     1       6.371   3.166  16.661  0.00  0.00    +0.000 HD
ENDBRANCH  15  17
ENDBRANCH  14  15
ENDBRANCH  10  14
ENDBRANCH   2  10
TORSDOF 8
ENDMDL
MODEL 3
REMARK VINA RESULT:      -5.6      1.010      1.495
REMARK  Name = 
REMARK  10 active torsions:
REMARK  status: ('A' for Active; 'I' for Inactive)
REMARK    1  A    between atoms: C_1  and  C_2
REMARK    2  A    between atoms: C_2  and  C_3
REMARK    3  A    between atoms: C_3  and  C_4
REMARK    4  A    between atoms: C_4  and  C_5
REMARK    5  A    between atoms: C_4  and  N_6
REMARK    6  A    between atoms: C_7  and  C_9
REMARK    7  A    between atoms: C_9  and  N_10
REMARK    8  A    between atoms: C_9  and  C_11
REMARK    9  A    between atoms: C_11  and  C_12
REMARK   10  A    between atoms: C_12  and  O_14
REMARK                            x       y       z     vdW  Elec       q    Type
REMARK                         _______ _______ _______ _____ _____    ______ ____
ROOT
ATOM      1  N   UNL     1       4.980   3.847  17.944  0.00  0.00    +0.000 N 
ATOM      2  C   UNL     1       5.795   4.760  18.581  0.00  0.00    +0.000 C 
ATOM      3  O   UNL     1       5.583   5.191  19.714  0.00  0.00    +0.000 OA
ATOM      4  H   UNL     1       5.288   3.455  17.060  0.00  0.00    +0.000 HD
ENDROOT
BRANCH   1   5
ATOM      5  C   UNL     1       3.818   3.257  18.607  0.00  0.00    +0.000 C 
ATOM      6  C   UNL     1       3.626   1.795  18.191  0.00  0.00    +0.000 C 
BRANCH   5   7
ATOM      7  C   UNL     1       2.556   4.100  18.330  0.00  0.00    +0.000 C 
BRANCH   7   9
ATOM      8  C   UNL     1       1.192   3.773  20.451  0.00  0.00    +0.000 C 
ATOM      9  C   UNL     1       1.982   4.751  19.595  0.00  0.00    +0.000 C 
ENDBRANCH   7   9
ENDBRANCH   5   7
ENDBRANCH   1   5
BRANCH   2  10
ATOM     10  C   UNL     1       6.981   5.272  17.737  0.00  0.00    +0.000 C 
BRANCH  10  11
ATOM     11  N   UNL     1       7.916   4.139  17.493  0.00  0.00    +0.000 NA
ATOM     12  H   UNL     1       8.149   4.121  16.495  0.00  0.00    +0.000 HD
ATOM     13  H   UNL     1       7.416   3.260  17.647  0.00  0.00    +0.000 HD
ENDBRANCH  10  11
BRANCH  10  14
ATOM     14  C   UNL     1       6.471   5.813  16.402  0.00  0.00    +0.000 C 
BRANCH  14  15
ATOM     15  C   UNL     1       6.940   4.969  15.239  0.00  0.00    +0.000 C 
ATOM     16  O   UNL     1       7.841   5.266  14.478  0.00  0.00    +0.000 OA
BRANCH  15  17
ATOM     17  O   UNL     1       6.265   3.792  15.154  0.00  0.00    +0.000 OA
ATOM     18  H   UNL     1       6.795   2.999  15.384  0.00  0.00    +0.000 HD
ENDBRANCH  15  17
ENDBRANCH  14  15
ENDBRANCH  10  14
ENDBRANCH   2  10
TORSDOF 8
ENDMDL
MODEL 4
REMARK VINA RESULT:      -5.6      1.706      2.220
REMARK  Name = 
REMARK  10 active torsions:
REMARK  status: ('A' for Active; 'I' for Inactive)
REMARK    1  A    between atoms: C_1  and  C_2
REMARK    2  A    between atoms: C_2  and  C_3
REMARK    3  A    between atoms: C_3  and  C_4
REMARK    4  A    between atoms: C_4  and  C_5
REMARK    5  A    between atoms: C_4  and  N_6
REMARK    6  A    between atoms: C_7  and  C_9
REMARK    7  A    between atoms: C_9  and  N_10
REMARK    8  A    between atoms: C_9  and  C_11
REMARK    9  A    between atoms: C_11  and  C_12
REMARK   10  A    between atoms: C_12  and  O_14
REMARK                            x       y       z     vdW  Elec       q    Type
REMARK                         _______ _______ _______ _____ _____    ______ ____
ROOT
ATOM      1  N   UNL     1       3.869   4.919  18.238  0.00  0.00    +0.000 N 
ATOM      2  C   UNL     1       5.122   4.489  18.626  0.00  0.00    +0.000 C 
ATOM      3  O   UNL     1       5.313   3.623  19.479  0.00  0.00    +0.000 OA
ATOM      4  H   UNL     1       3.795   5.551  17.447  0.00  0.00    +0.000 HD
ENDROOT
BRANCH   1   5
ATOM      5  C   UNL     1       2.648   4.315  18.770  0.00  0.00    +0.000 C 
ATOM      6  C   UNL     1       1.548   4.259  17.705  0.00  0.00    +0.000 C 
BRANCH   5   7
ATOM      7  C   UNL     1       2.183   5.068  20.033  0.00  0.00    +0.000 C 
BRANCH   7   9
ATOM      8  C   UNL     1       1.360   2.912  21.101  0.00  0.00    +0.000 C 
ATOM      9  C   UNL     1       2.172   4.184  21.287  0.00  0.00    +0.000 C 
ENDBRANCH   7   9
ENDBRANCH   5   7
ENDBRANCH   1   5
BRANCH   2  10
ATOM     10  C   UNL     1       6.299   5.230  17.957  0.00  0.00    +0.000 C 
BRANCH  10  11
ATOM     11  N   UNL     1       7.473   4.316  17.914  0.00  0.00    +0.000 NA
ATOM     12  H   UNL     1       8.029   4.543  17.083  0.00  0.00    +0.000 HD
ATOM     13  H   UNL     1       7.144   3.364  17.738  0.00  0.00    +0.000 HD
ENDBRANCH  10  11
BRANCH  10  14
ATOM     14  C   UNL     1       5.913   5.639  16.536  0.00  0.00    +0.000 C 
BRANCH  14  15
ATOM     15  C   UNL     1       6.564   4.749  15.501  0.00  0.00    +0.000 C 
ATOM     16  O   UNL     1       6.148   3.661  15.155  0.00  0.00    +0.000 OA
BRANCH  15  17
ATOM     17  O   UNL     1       7.665   5.324  14.949  0.00  0.00    +0.000 OA
ATOM     18  H   UNL     1       7.523   6.234  14.608  0.00  0.00    +0.000 HD
ENDBRANCH  15  17
ENDBRANCH  14  15
ENDBRANCH  10  14
ENDBRANCH   2  10
TORSDOF 8
ENDMDL
MODEL 5
REMARK VINA RESULT:      -5.5      1.472      1.872
REMARK  Name = 
REMARK  10 active torsions:
REMARK  status: ('A' for Active; 'I' for Inactive)
REMARK    1  A    between atoms: C_1  and  C_2
REMARK    2  A    between atoms: C_2  and  C_3
REMARK    3  A    between atoms: C_3  and  C_4
REMARK    4  A    between atoms: C_4  and  C_5
REMARK    5  A    between atoms: C_4  and  N_6
REMARK    6  A    between atoms: C_7  and  C_9
REMARK    7  A    between atoms: C_9  and  N_10
REMARK    8  A    between atoms: C_9  and  C_11
REMARK    9  A    between atoms: C_11  and  C_12
REMARK   10  A    between atoms: C_12  and  O_14
REMARK                            x       y       z     vdW  Elec       q    Type
REMARK                         _______ _______ _______ _____ _____    ______ ____
ROOT
ATOM      1  N   UNL     1       3.996   4.215  17.841  0.00  0.00    +0.000 N 
ATOM      2  C   UNL     1       5.299   4.270  18.291  0.00  0.00    +0.000 C 
ATOM      3  O   UNL     1       5.686   3.732  19.328  0.00  0.00    +0.000 OA
ATOM      4  H   UNL     1       3.785   4.585  16.919  0.00  0.00    +0.000 HD
ENDROOT
BRANCH   1   5
ATOM      5  C   UNL     1       2.971   3.440  18.538  0.00  0.00    +0.000 C 
ATOM      6  C   UNL     1       2.658   2.139  17.793  0.00  0.00    +0.000 C 
BRANCH   5   7
ATOM      7  C   UNL     1       1.704   4.294  18.752  0.00  0.00    +0.000 C 
BRANCH   7   9
ATOM      8  C   UNL     1       2.112   3.699  21.190  0.00  0.00    +0.000 C 
ATOM      9  C   UNL     1       1.088   4.113  20.145  0.00  0.00    +0.000 C 
ENDBRANCH   7   9
ENDBRANCH   5   7
ENDBRANCH   1   5
BRANCH   2  10
ATOM     10  C   UNL     1       6.250   5.126  17.429  0.00  0.00    +0.000 C 
BRANCH  10  11
ATOM     11  N   UNL     1       7.554   4.416  17.311  0.00  0.00    +0.000 NA
ATOM     12  H   UNL     1       8.288   5.023  17.692  0.00  0.00    +0.000 HD
ATOM     13  H   UNL     1       7.794   4.329  16.321  0.00  0.00    +0.000 HD
ENDBRANCH  10  11
BRANCH  10  14
ATOM     14  C   UNL     1       5.648   5.327  16.038  0.00  0.00    +0.000 C 
BRANCH  14  15
ATOM     15  C   UNL     1       6.508   4.707  14.960  0.00  0.00    +0.000 C 
ATOM     16  O   UNL     1       6.298   3.635  14.429  0.00  0.00    +0.000 OA
BRANCH  15  17
ATOM     17  O   UNL     1       7.543   5.513  14.604  0.00  0.00    +0.000 OA
ATOM     18  H   UNL     1       7.704   5.570  13.637  0.00  0.00    +0.000 HD
ENDBRANCH  15  17
ENDBRANCH  14  15
ENDBRANCH  10  14
ENDBRANCH   2  10
TORSDOF 8
ENDMDL
MODEL 6
REMARK VINA RESULT:      -5.5      2.578      5.814
REMARK  Name = 
REMARK  10 active torsions:
REMARK  status: ('A' for Active; 'I' for Inactive)
REMARK    1  A    between atoms: C_1  and  C_2
REMARK    2  A    between atoms: C_2  and  C_3
REMARK    3  A    between atoms: C_3  and  C_4
REMARK    4  A    between atoms: C_4  and  C_5
REMARK    5  A    between atoms: C_4  and  N_6
REMARK    6  A    between atoms: C_7  and  C_9
REMARK    7  A    between atoms: C_9  and  N_10
REMARK    8  A    between atoms: C_9  and  C_11
REMARK    9  A    between atoms: C_11  and  C_12
REMARK   10  A    between atoms: C_12  and  O_14
REMARK                            x       y       z     vdW  Elec       q    Type
REMARK                         _______ _______ _______ _____ _____    ______ ____
ROOT
ATOM      1  N   UNL     1       5.399   3.793  17.728  0.00  0.00    +0.000 N 
ATOM      2  C   UNL     1       4.049   3.882  18.001  0.00  0.00    +0.000 C 
ATOM      3  O   UNL     1       3.284   4.649  17.418  0.00  0.00    +0.000 OA
ATOM      4  H   UNL     1       5.937   3.053  18.170  0.00  0.00    +0.000 HD
ENDROOT
BRANCH   1   5
ATOM      5  C   UNL     1       6.022   4.569  16.657  0.00  0.00    +0.000 C 
ATOM      6  C   UNL     1       6.036   3.785  15.341  0.00  0.00    +0.000 C 
BRANCH   5   7
ATOM      7  C   UNL     1       7.439   5.016  17.071  0.00  0.00    +0.000 C 
BRANCH   7   9
ATOM      8  C   UNL     1       7.645   7.490  17.620  0.00  0.00    +0.000 C 
ATOM      9  C   UNL     1       7.432   6.088  18.169  0.00  0.00    +0.000 C 
ENDBRANCH   7   9
ENDBRANCH   5   7
ENDBRANCH   1   5
BRANCH   2  10
ATOM     10  C   UNL     1       3.560   2.985  19.158  0.00  0.00    +0.000 C 
BRANCH  10  11
ATOM     11  N   UNL     1       4.744   2.353  19.803  0.00  0.00    +0.000 NA
ATOM     12  H   UNL     1       4.438   1.491  20.265  0.00  0.00    +0.000 HD
ATOM     13  H   UNL     1       5.058   2.948  20.572  0.00  0.00    +0.000 HD
ENDBRANCH  10  11
BRANCH  10  14
ATOM     14  C   UNL     1       2.806   3.830  20.184  0.00  0.00    +0.000 C 
BRANCH  14  15
ATOM     15  C   UNL     1       2.137   2.972  21.234  0.00  0.00    +0.000 C 
ATOM     16  O   UNL     1       2.711   2.405  22.143  0.00  0.00    +0.000 OA
BRANCH  15  17
ATOM     17  O   UNL     1       0.787   2.934  21.080  0.00  0.00    +0.000 OA
ATOM     18  H   UNL     1       0.397   3.743  20.684  0.00  0.00    +0.000 HD
ENDBRANCH  15  17
ENDBRANCH  14  15
ENDBRANCH  10  14
ENDBRANCH   2  10
TORSDOF 8
ENDMDL
MODEL 7
REMARK VINA RESULT:      -5.4      1.232      1.397
REMARK  Name = 
REMARK  10 active torsions:
REMARK  status: ('A' for Active; 'I' for Inactive)
REMARK    1  A    between atoms: C_1  and  C_2
REMARK    2  A    between atoms: C_2  and  C_3
REMARK    3  A    between atoms: C_3  and  C_4
REMARK    4  A    between atoms: C_4  and  C_5
REMARK    5  A    between atoms: C_4  and  N_6
REMARK    6  A    between atoms: C_7  and  C_9
REMARK    7  A    between atoms: C_9  and  N_10
REMARK    8  A    between atoms: C_9  and  C_11
REMARK    9  A    between atoms: C_11  and  C_12
REMARK   10  A    between atoms: C_12  and  O_14
REMARK                            x       y       z     vdW  Elec       q    Type
REMARK                         _______ _______ _______ _____ _____    ______ ____
ROOT
ATOM      1  N   UNL     1       4.900   3.620  18.318  0.00  0.00    +0.000 N 
ATOM      2  C   UNL     1       5.892   4.576  18.389  0.00  0.00    +0.000 C 
ATOM      3  O   UNL     1       6.097   5.277  19.380  0.00  0.00    +0.000 OA
ATOM      4  H   UNL     1       4.873   3.006  17.510  0.00  0.00    +0.000 HD
ENDROOT
BRANCH   1   5
ATOM      5  C   UNL     1       4.044   3.311  19.463  0.00  0.00    +0.000 C 
ATOM      6  C   UNL     1       4.537   2.063  20.202  0.00  0.00    +0.000 C 
BRANCH   5   7
ATOM      7  C   UNL     1       2.576   3.166  19.012  0.00  0.00    +0.000 C 
BRANCH   7   9
ATOM      8  C   UNL     1       1.187   2.944  21.131  0.00  0.00    +0.000 C 
ATOM      9  C   UNL     1       1.586   3.842  19.970  0.00  0.00    +0.000 C 
ENDBRANCH   7   9
ENDBRANCH   5   7
ENDBRANCH   1   5
BRANCH   2  10
ATOM     10  C   UNL     1       6.706   4.765  17.091  0.00  0.00    +0.000 C 
BRANCH  10  11
ATOM     11  N   UNL     1       8.058   4.173  17.287  0.00  0.00    +0.000 NA
ATOM     12  H   UNL     1       8.404   3.848  16.378  0.00  0.00    +0.000 HD
ATOM     13  H   UNL     1       7.966   3.315  17.837  0.00  0.00    +0.000 HD
ENDBRANCH  10  11
BRANCH  10  14
ATOM     14  C   UNL     1       6.000   4.064  15.931  0.00  0.00    +0.000 C 
BRANCH  14  15
ATOM     15  C   UNL     1       6.651   4.382  14.604  0.00  0.00    +0.000 C 
ATOM     16  O   UNL     1       6.410   3.819  13.554  0.00  0.00    +0.000 OA
BRANCH  15  17
ATOM     17  O   UNL     1       7.524   5.420  14.697  0.00  0.00    +0.000 OA
ATOM     18  H   UNL     1       8.318   5.340  14.124  0.00  0.00    +0.000 HD
ENDBRANCH  15  17
ENDBRANCH  14  15
ENDBRANCH  10  14
ENDBRANCH   2  10
TORSDOF 8
ENDMDL
MODEL 8
REMARK VINA RESULT:      -5.4      1.688      2.355
REMARK  Name = 
REMARK  10 active torsions:
REMARK  status: ('A' for Active; 'I' for Inactive)
REMARK    1  A    between atoms: C_1  and  C_2
REMARK    2  A    between atoms: C_2  and  C_3
REMARK    3  A    between atoms: C_3  and  C_4
REMARK    4  A    between atoms: C_4  and  C_5
REMARK    5  A    between atoms: C_4  and  N_6
REMARK    6  A    between atoms: C_7  and  C_9
REMARK    7  A    between atoms: C_9  and  N_10
REMARK    8  A    between atoms: C_9  and  C_11
REMARK    9  A    between atoms: C_11  and  C_12
REMARK   10  A    between atoms: C_12  and  O_14
REMARK                            x       y       z     vdW  Elec       q    Type
REMARK                         _______ _______ _______ _____ _____    ______ ____
ROOT
ATOM      1  N   UNL     1       3.659   4.008  18.632  0.00  0.00    +0.000 N 
ATOM      2  C   UNL     1       4.915   3.831  19.178  0.00  0.00    +0.000 C 
ATOM      3  O   UNL     1       5.215   2.888  19.909  0.00  0.00    +0.000 OA
ATOM      4  H   UNL     1       3.527   4.745  17.946  0.00  0.00    +0.000 HD
ENDROOT
BRANCH   1   5
ATOM      5  C   UNL     1       2.589   3.031  18.827  0.00  0.00    +0.000 C 
ATOM      6  C   UNL     1       2.423   2.136  17.595  0.00  0.00    +0.000 C 
BRANCH   5   7
ATOM      7  C   UNL     1       1.272   3.744  19.198  0.00  0.00    +0.000 C 
BRANCH   7   9
ATOM      8  C   UNL     1       1.630   2.848  21.551  0.00  0.00    +0.000 C 
ATOM      9  C   UNL     1       1.138   4.011  20.703  0.00  0.00    +0.000 C 
ENDBRANCH   7   9
ENDBRANCH   5   7
ENDBRANCH   1   5
BRANCH   2  10
ATOM     10  C   UNL     1       5.924   4.955  18.862  0.00  0.00    +0.000 C 
BRANCH  10  11
ATOM     11  N   UNL     1       7.136   4.346  18.247  0.00  0.00    +0.000 NA
ATOM     12  H   UNL     1       6.851   3.504  17.735  0.00  0.00    +0.000 HD
ATOM     13  H   UNL     1       7.740   3.989  18.990  0.00  0.00    +0.000 HD
ENDBRANCH  10  11
BRANCH  10  14
ATOM     14  C   UNL     1       5.300   5.953  17.887  0.00  0.00    +0.000 C 
BRANCH  14  15
ATOM     15  C   UNL     1       5.771   5.721  16.469  0.00  0.00    +0.000 C 
ATOM     16  O   UNL     1       6.687   6.311  15.932  0.00  0.00    +0.000 OA
BRANCH  15  17
ATOM     17  O   UNL     1       5.075   4.728  15.854  0.00  0.00    +0.000 OA
ATOM     18  H   UNL     1       5.451   4.437  14.995  0.00  0.00    +0.000 HD
ENDBRANCH  15  17
ENDBRANCH  14  15
ENDBRANCH  10  14
ENDBRANCH   2  10
TORSDOF 8
ENDMDL
MODEL 9
REMARK VINA RESULT:      -5.4      1.501      1.806
REMARK  Name = 
REMARK  10 active torsions:
REMARK  status: ('A' for Active; 'I' for Inactive)
REMARK    1  A    between atoms: C_1  and  C_2
REMARK    2  A    between atoms: C_2  and  C_3
REMARK    3  A    between atoms: C_3  and  C_4
REMARK    4  A    between atoms: C_4  and  C_5
REMARK    5  A    between atoms: C_4  and  N_6
REMARK    6  A    between atoms: C_7  and  C_9
REMARK    7  A    between atoms: C_9  and  N_10
REMARK    8  A    between atoms: C_9  and  C_11
REMARK    9  A    between atoms: C_11  and  C_12
REMARK   10  A    between atoms: C_12  and  O_14
REMARK                            x       y       z     vdW  Elec       q    Type
REMARK                         _______ _______ _______ _____ _____    ______ ____
ROOT
ATOM      1  N   UNL     1       4.810   4.112  17.874  0.00  0.00    +0.000 N 
ATOM      2  C   UNL     1       5.913   4.707  18.450  0.00  0.00    +0.000 C 
ATOM      3  O   UNL     1       6.051   4.861  19.664  0.00  0.00    +0.000 OA
ATOM      4  H   UNL     1       4.827   3.918  16.877  0.00  0.00    +0.000 HD
ENDROOT
BRANCH   1   5
ATOM      5  C   UNL     1       3.731   3.543  18.681  0.00  0.00    +0.000 C 
ATOM      6  C   UNL     1       3.532   2.056  18.370  0.00  0.00    +0.000 C 
BRANCH   5   7
ATOM      7  C   UNL     1       2.430   4.347  18.482  0.00  0.00    +0.000 C 
BRANCH   7   9
ATOM      8  C   UNL     1       2.582   6.878  18.283  0.00  0.00    +0.000 C 
ATOM      9  C   UNL     1       2.438   5.691  19.223  0.00  0.00    +0.000 C 
ENDBRANCH   7   9
ENDBRANCH   5   7
ENDBRANCH   1   5
BRANCH   2  10
ATOM     10  C   UNL     1       6.959   5.244  17.450  0.00  0.00    +0.000 C 
BRANCH  10  11
ATOM     11  N   UNL     1       7.969   4.179  17.201  0.00  0.00    +0.000 NA
ATOM     12  H   UNL     1       7.811   3.420  17.871  0.00  0.00    +0.000 HD
ATOM     13  H   UNL     1       8.894   4.538  17.447  0.00  0.00    +0.000 HD
ENDBRANCH  10  11
BRANCH  10  14
ATOM     14  C   UNL     1       6.273   5.620  16.137  0.00  0.00    +0.000 C 
BRANCH  14  15
ATOM     15  C   UNL     1       6.833   4.839  14.969  0.00  0.00    +0.000 C 
ATOM     16  O   UNL     1       6.404   3.774  14.570  0.00  0.00    +0.000 OA
BRANCH  15  17
ATOM     17  O   UNL     1       7.866   5.487  14.367  0.00  0.00    +0.000 OA
ATOM     18  H   UNL     1       7.922   5.353  13.396  0.00  0.00    +0.000 HD
ENDBRANCH  15  17
ENDBRANCH  14  15
ENDBRANCH  10  14
ENDBRANCH   2  10
TORSDOF 8
ENDMDL
