MODEL 1
REMARK VINA RESULT:      -6.5      0.000      0.000
REMARK  Name = 
REMARK  9 active torsions:
REMARK  status: ('A' for Active; 'I' for Inactive)
REMARK    1  A    between atoms: C_1  and  C_2
REMARK    2  A    between atoms: C_2  and  C_3
REMARK    3  A    between atoms: C_7  and  C_8
REMARK    4  A    between atoms: C_8  and  C_9
REMARK    5  A    between atoms: C_8  and  C_10
REMARK    6  A    between atoms: C_8  and  C_11
REMARK    7  A    between atoms: C_15  and  N_16
REMARK    8  A    between atoms: C_17  and  C_19
REMARK    9  A    between atoms: C_19  and  N_20
REMARK                            x       y       z     vdW  Elec       q    Type
REMARK                         _______ _______ _______ _____ _____    ______ ____
ROOT
ATOM      1  C   UNL     1       8.099   8.059  18.012  0.00  0.00    +0.000 C 
ATOM      2  C   UNL     1       7.116   6.983  17.514  0.00  0.00    +0.000 C 
ATOM      3  C   UNL     1       5.707   7.609  17.525  0.00  0.00    +0.000 C 
ATOM      4  C   UNL     1       7.494   6.551  16.081  0.00  0.00    +0.000 C 
ATOM      5  C   UNL     1       6.810   5.282  15.630  0.00  0.00    +0.000 A 
ATOM      6  N   UNL     1       6.784   5.070  14.297  0.00  0.00    +0.000 NA
ATOM      7  C   UNL     1       6.205   3.938  13.844  0.00  0.00    +0.000 A 
ATOM      8  N   UNL     1       5.685   3.000  14.657  0.00  0.00    +0.000 NA
ATOM      9  C   UNL     1       5.735   3.241  15.979  0.00  0.00    +0.000 A 
ATOM     10  C   UNL     1       6.287   4.376  16.541  0.00  0.00    +0.000 A 
ATOM     11  C   UNL     1       6.300   4.585  18.028  0.00  0.00    +0.000 C 
ATOM     12  C   UNL     1       7.229   5.743  18.434  0.00  0.00    +0.000 C 
ENDROOT
BRANCH   7  13
ATOM     13  C   UNL     1       6.193   3.682  12.339  0.00  0.00    +0.000 C 
ATOM     14  C   UNL     1       7.156   4.665  11.654  0.00  0.00    +0.000 C 
ATOM     15  C   UNL     1       6.638   2.238  12.030  0.00  0.00    +0.000 C 
ATOM     16  C   UNL     1       4.780   3.876  11.755  0.00  0.00    +0.000 C 
ENDBRANCH   7  13
BRANCH  11  17
ATOM     17  N   UNL     1       4.949   4.784  18.536  0.00  0.00    +0.000 N 
ATOM     18  C   UNL     1       4.354   3.911  19.416  0.00  0.00    +0.000 C 
ATOM     19  O   UNL     1       4.862   2.877  19.828  0.00  0.00    +0.000 OA
ATOM     20  H   UNL     1       4.469   5.653  18.348  0.00  0.00    +0.000 HD
BRANCH  18  21
ATOM     21  C   UNL     1       2.997   4.366  19.908  0.00  0.00    +0.000 C 
ATOM     22  C   UNL     1       1.750   3.740  19.328  0.00  0.00    +0.000 C 
ATOM     23  C   UNL     1       2.163   3.415  20.734  0.00  0.00    +0.000 C 
BRANCH  21  24
ATOM     24  N   UNL     1       2.945   5.800  20.274  0.00  0.00    +0.000 NA
ATOM     25  H   UNL     1       2.323   5.950  21.064  0.00  0.00    +0.000 HD
ATOM     26  H   UNL     1       2.531   6.319  19.496  0.00  0.00    +0.000 HD
ENDBRANCH  21  24
ENDBRANCH  18  21
ENDBRANCH  11  17
TORSDOF 4
ENDMDL
MODEL 2
REMARK VINA RESULT:      -6.2      0.803      1.335
REMARK  Name = 
REMARK  9 active torsions:
REMARK  status: ('A' for Active; 'I' for Inactive)
REMARK    1  A    between atoms: C_1  and  C_2
REMARK    2  A    between atoms: C_2  and  C_3
REMARK    3  A    between atoms: C_7  and  C_8
REMARK    4  A    between atoms: C_8  and  C_9
REMARK    5  A    between atoms: C_8  and  C_10
REMARK    6  A    between atoms: C_8  and  C_11
REMARK    7  A    between atoms: C_15  and  N_16
REMARK    8  A    between atoms: C_17  and  C_19
REMARK    9  A    between atoms: C_19  and  N_20
REMARK                            x       y       z     vdW  Elec       q    Type
REMARK                         _______ _______ _______ _____ _____    ______ ____
ROOT
ATOM      1  C   UNL     1       8.069   7.852  18.162  0.00  0.00    +0.000 C 
ATOM      2  C   UNL     1       7.056   6.857  17.568  0.00  0.00    +0.000 C 
ATOM      3  C   UNL     1       5.697   7.581  17.482  0.00  0.00    +0.000 C 
ATOM      4  C   UNL     1       7.515   6.420  16.159  0.00  0.00    +0.000 C 
ATOM      5  C   UNL     1       6.781   5.210  15.631  0.00  0.00    +0.000 A 
ATOM      6  N   UNL     1       6.846   5.020  14.296  0.00  0.00    +0.000 NA
ATOM      7  C   UNL     1       6.227   3.940  13.776  0.00  0.00    +0.000 A 
ATOM      8  N   UNL     1       5.580   3.028  14.526  0.00  0.00    +0.000 NA
ATOM      9  C   UNL     1       5.542   3.246  15.853  0.00  0.00    +0.000 A 
ATOM     10  C   UNL     1       6.126   4.329  16.479  0.00  0.00    +0.000 A 
ATOM     11  C   UNL     1       6.036   4.515  17.967  0.00  0.00    +0.000 C 
ATOM     12  C   UNL     1       7.009   5.598  18.468  0.00  0.00    +0.000 C 
ENDROOT
BRANCH   7  13
ATOM     13  C   UNL     1       6.316   3.708  12.269  0.00  0.00    +0.000 C 
ATOM     14  C   UNL     1       4.903   3.764  11.667  0.00  0.00    +0.000 C 
ATOM     15  C   UNL     1       7.194   4.786  11.604  0.00  0.00    +0.000 C 
ATOM     16  C   UNL     1       6.938   2.332  11.957  0.00  0.00    +0.000 C 
ENDBRANCH   7  13
BRANCH  11  17
ATOM     17  N   UNL     1       4.666   4.802  18.372  0.00  0.00    +0.000 N 
ATOM     18  C   UNL     1       3.886   3.888  19.041  0.00  0.00    +0.000 C 
ATOM     19  O   UNL     1       4.231   2.750  19.328  0.00  0.00    +0.000 OA
ATOM     20  H   UNL     1       4.307   5.742  18.282  0.00  0.00    +0.000 HD
BRANCH  18  21
ATOM     21  C   UNL     1       2.541   4.430  19.472  0.00  0.00    +0.000 C 
ATOM     22  C   UNL     1       2.301   4.741  20.932  0.00  0.00    +0.000 C 
ATOM     23  C   UNL     1       2.447   5.862  19.944  0.00  0.00    +0.000 C 
BRANCH  21  24
ATOM     24  N   UNL     1       1.405   3.905  18.682  0.00  0.00    +0.000 NA
ATOM     25  H   UNL     1       0.587   3.766  19.270  0.00  0.00    +0.000 HD
ATOM     26  H   UNL     1       1.652   2.975  18.335  0.00  0.00    +0.000 HD
ENDBRANCH  21  24
ENDBRANCH  18  21
ENDBRANCH  11  17
TORSDOF 4
ENDMDL
MODEL 3
REMARK VINA RESULT:      -6.1     10.743     13.273
REMARK  Name = 
REMARK  9 active torsions:
REMARK  status: ('A' for Active; 'I' for Inactive)
REMARK    1  A    between atoms: C_1  and  C_2
REMARK    2  A    between atoms: C_2  and  C_3
REMARK    3  A    between atoms: C_7  and  C_8
REMARK    4  A    between atoms: C_8  and  C_9
REMARK    5  A    between atoms: C_8  and  C_10
REMARK    6  A    between atoms: C_8  and  C_11
REMARK    7  A    between atoms: C_15  and  N_16
REMARK    8  A    between atoms: C_17  and  C_19
REMARK    9  A    between atoms: C_19  and  N_20
REMARK                            x       y       z     vdW  Elec       q    Type
REMARK                         _______ _______ _______ _____ _____    ______ ____
ROOT
ATOM      1  C   UNL     1      -6.913  12.414  17.311  0.00  0.00    +0.000 C 
ATOM      2  C   UNL     1      -5.933  12.202  18.479  0.00  0.00    +0.000 C 
ATOM      3  C   UNL     1      -6.496  11.062  19.350  0.00  0.00    +0.000 C 
ATOM      4  C   UNL     1      -4.542  11.814  17.931  0.00  0.00    +0.000 C 
ATOM      5  C   UNL     1      -3.438  11.908  18.959  0.00  0.00    +0.000 A 
ATOM      6  N   UNL     1      -2.308  11.227  18.672  0.00  0.00    +0.000 NA
ATOM      7  C   UNL     1      -1.284  11.298  19.547  0.00  0.00    +0.000 A 
ATOM      8  N   UNL     1      -1.322  12.041  20.669  0.00  0.00    +0.000 NA
ATOM      9  C   UNL     1      -2.460  12.711  20.919  0.00  0.00    +0.000 A 
ATOM     10  C   UNL     1      -3.571  12.688  20.099  0.00  0.00    +0.000 A 
ATOM     11  C   UNL     1      -4.815  13.455  20.444  0.00  0.00    +0.000 C 
ATOM     12  C   UNL     1      -5.788  13.535  19.254  0.00  0.00    +0.000 C 
ENDROOT
BRANCH   7  13
ATOM     13  C   UNL     1       0.006  10.548  19.216  0.00  0.00    +0.000 C 
ATOM     14  C   UNL     1      -0.189   9.769  17.905  0.00  0.00    +0.000 C 
ATOM     15  C   UNL     1       1.180  11.533  19.051  0.00  0.00    +0.000 C 
ATOM     16  C   UNL     1       0.373   9.557  20.338  0.00  0.00    +0.000 C 
ENDBRANCH   7  13
BRANCH  11  17
ATOM     17  N   UNL     1      -5.461  12.892  21.622  0.00  0.00    +0.000 N 
ATOM     18  C   UNL     1      -5.441  13.516  22.847  0.00  0.00    +0.000 C 
ATOM     19  O   UNL     1      -4.860  14.565  23.088  0.00  0.00    +0.000 OA
ATOM     20  H   UNL     1      -6.059  12.082  21.524  0.00  0.00    +0.000 HD
BRANCH  18  21
ATOM     21  C   UNL     1      -6.272  12.822  23.904  0.00  0.00    +0.000 C 
ATOM     22  C   UNL     1      -7.572  13.448  24.354  0.00  0.00    +0.000 C 
ATOM     23  C   UNL     1      -7.594  12.209  23.506  0.00  0.00    +0.000 C 
BRANCH  21  24
ATOM     24  N   UNL     1      -5.469  12.096  24.913  0.00  0.00    +0.000 NA
ATOM     25  H   UNL     1      -6.060  11.493  25.481  0.00  0.00    +0.000 HD
ATOM     26  H   UNL     1      -5.070  12.777  25.562  0.00  0.00    +0.000 HD
ENDBRANCH  21  24
ENDBRANCH  18  21
ENDBRANCH  11  17
TORSDOF 4
ENDMDL
MODEL 4
REMARK VINA RESULT:      -6.1      5.643      8.151
REMARK  Name = 
REMARK  9 active torsions:
REMARK  status: ('A' for Active; 'I' for Inactive)
REMARK    1  A    between atoms: C_1  and  C_2
REMARK    2  A    between atoms: C_2  and  C_3
REMARK    3  A    between atoms: C_7  and  C_8
REMARK    4  A    between atoms: C_8  and  C_9
REMARK    5  A    between atoms: C_8  and  C_10
REMARK    6  A    between atoms: C_8  and  C_11
REMARK    7  A    between atoms: C_15  and  N_16
REMARK    8  A    between atoms: C_17  and  C_19
REMARK    9  A    between atoms: C_19  and  N_20
REMARK                            x       y       z     vdW  Elec       q    Type
REMARK                         _______ _______ _______ _____ _____    ______ ____
ROOT
ATOM      1  C   UNL     1      -0.590   8.867  22.738  0.00  0.00    +0.000 C 
ATOM      2  C   UNL     1       0.450   9.093  21.625  0.00  0.00    +0.000 C 
ATOM      3  C   UNL     1       1.615   9.894  22.240  0.00  0.00    +0.000 C 
ATOM      4  C   UNL     1       0.960   7.732  21.101  0.00  0.00    +0.000 C 
ATOM      5  C   UNL     1       1.721   7.831  19.800  0.00  0.00    +0.000 A 
ATOM      6  N   UNL     1       2.509   6.778  19.498  0.00  0.00    +0.000 NA
ATOM      7  C   UNL     1       3.193   6.807  18.336  0.00  0.00    +0.000 A 
ATOM      8  N   UNL     1       3.098   7.815  17.449  0.00  0.00    +0.000 NA
ATOM      9  C   UNL     1       2.298   8.845  17.779  0.00  0.00    +0.000 A 
ATOM     10  C   UNL     1       1.574   8.920  18.952  0.00  0.00    +0.000 A 
ATOM     11  C   UNL     1       0.705  10.106  19.260  0.00  0.00    +0.000 C 
ATOM     12  C   UNL     1      -0.233   9.834  20.450  0.00  0.00    +0.000 C 
ENDROOT
BRANCH   7  13
ATOM     13  C   UNL     1       4.069   5.607  17.979  0.00  0.00    +0.000 C 
ATOM     14  C   UNL     1       4.962   5.262  19.181  0.00  0.00    +0.000 C 
ATOM     15  C   UNL     1       3.198   4.384  17.626  0.00  0.00    +0.000 C 
ATOM     16  C   UNL     1       4.964   5.918  16.763  0.00  0.00    +0.000 C 
ENDBRANCH   7  13
BRANCH  11  17
ATOM     17  N   UNL     1       1.514  11.297  19.483  0.00  0.00    +0.000 N 
ATOM     18  C   UNL     1       1.097  12.554  19.113  0.00  0.00    +0.000 C 
ATOM     19  O   UNL     1       0.048  12.802  18.535  0.00  0.00    +0.000 OA
ATOM     20  H   UNL     1       2.353  11.232  20.044  0.00  0.00    +0.000 HD
BRANCH  18  21
ATOM     21  C   UNL     1       2.034  13.662  19.543  0.00  0.00    +0.000 C 
ATOM     22  C   UNL     1       2.987  14.259  18.534  0.00  0.00    +0.000 C 
ATOM     23  C   UNL     1       1.808  15.057  19.009  0.00  0.00    +0.000 C 
BRANCH  21  24
ATOM     24  N   UNL     1       2.495  13.543  20.944  0.00  0.00    +0.000 NA
ATOM     25  H   UNL     1       1.714  13.620  21.591  0.00  0.00    +0.000 HD
ATOM     26  H   UNL     1       3.104  14.337  21.155  0.00  0.00    +0.000 HD
ENDBRANCH  21  24
ENDBRANCH  18  21
ENDBRANCH  11  17
TORSDOF 4
ENDMDL
MODEL 5
REMARK VINA RESULT:      -6.1      3.240      5.869
REMARK  Name = 
REMARK  9 active torsions:
REMARK  status: ('A' for Active; 'I' for Inactive)
REMARK    1  A    between atoms: C_1  and  C_2
REMARK    2  A    between atoms: C_2  and  C_3
REMARK    3  A    between atoms: C_7  and  C_8
REMARK    4  A    between atoms: C_8  and  C_9
REMARK    5  A    between atoms: C_8  and  C_10
REMARK    6  A    between atoms: C_8  and  C_11
REMARK    7  A    between atoms: C_15  and  N_16
REMARK    8  A    between atoms: C_17  and  C_19
REMARK    9  A    between atoms: C_19  and  N_20
REMARK                            x       y       z     vdW  Elec       q    Type
REMARK                         _______ _______ _______ _____ _____    ______ ____
ROOT
ATOM      1  C   UNL     1       1.407   2.481  21.018  0.00  0.00    +0.000 C 
ATOM      2  C   UNL     1       2.074   3.827  20.680  0.00  0.00    +0.000 C 
ATOM      3  C   UNL     1       2.582   4.433  22.004  0.00  0.00    +0.000 C 
ATOM      4  C   UNL     1       3.256   3.597  19.713  0.00  0.00    +0.000 C 
ATOM      5  C   UNL     1       3.762   4.863  19.064  0.00  0.00    +0.000 A 
ATOM      6  N   UNL     1       5.003   4.797  18.535  0.00  0.00    +0.000 NA
ATOM      7  C   UNL     1       5.493   5.895  17.923  0.00  0.00    +0.000 A 
ATOM      8  N   UNL     1       4.793   7.036  17.784  0.00  0.00    +0.000 NA
ATOM      9  C   UNL     1       3.559   7.064  18.317  0.00  0.00    +0.000 A 
ATOM     10  C   UNL     1       2.975   6.003  18.980  0.00  0.00    +0.000 A 
ATOM     11  C   UNL     1       1.593   6.106  19.559  0.00  0.00    +0.000 C 
ATOM     12  C   UNL     1       1.038   4.729  19.965  0.00  0.00    +0.000 C 
ENDROOT
BRANCH   7  13
ATOM     13  C   UNL     1       6.886   5.819  17.302  0.00  0.00    +0.000 C 
ATOM     14  C   UNL     1       7.584   7.178  17.466  0.00  0.00    +0.000 C 
ATOM     15  C   UNL     1       7.730   4.729  17.993  0.00  0.00    +0.000 C 
ATOM     16  C   UNL     1       6.806   5.475  15.801  0.00  0.00    +0.000 C 
ENDBRANCH   7  13
BRANCH  11  17
ATOM     17  N   UNL     1       1.568   7.040  20.677  0.00  0.00    +0.000 N 
ATOM     18  C   UNL     1       1.240   8.366  20.526  0.00  0.00    +0.000 C 
ATOM     19  O   UNL     1       0.979   8.906  19.460  0.00  0.00    +0.000 OA
ATOM     20  H   UNL     1       1.665   6.690  21.621  0.00  0.00    +0.000 HD
BRANCH  18  21
ATOM     21  C   UNL     1       1.159   9.131  21.830  0.00  0.00    +0.000 C 
ATOM     22  C   UNL     1       0.211  10.302  21.944  0.00  0.00    +0.000 C 
ATOM     23  C   UNL     1      -0.095   9.021  22.664  0.00  0.00    +0.000 C 
BRANCH  21  24
ATOM     24  N   UNL     1       2.446   9.210  22.555  0.00  0.00    +0.000 NA
ATOM     25  H   UNL     1       2.297   9.441  23.535  0.00  0.00    +0.000 HD
ATOM     26  H   UNL     1       2.989   9.988  22.172  0.00  0.00    +0.000 HD
ENDBRANCH  21  24
ENDBRANCH  18  21
ENDBRANCH  11  17
TORSDOF 4
ENDMDL
MODEL 6
REMARK VINA RESULT:      -6.0      5.777      8.159
REMARK  Name = 
REMARK  9 active torsions:
REMARK  status: ('A' for Active; 'I' for Inactive)
REMARK    1  A    between atoms: C_1  and  C_2
REMARK    2  A    between atoms: C_2  and  C_3
REMARK    3  A    between atoms: C_7  and  C_8
REMARK    4  A    between atoms: C_8  and  C_9
REMARK    5  A    between atoms: C_8  and  C_10
REMARK    6  A    between atoms: C_8  and  C_11
REMARK    7  A    between atoms: C_15  and  N_16
REMARK    8  A    between atoms: C_17  and  C_19
REMARK    9  A    between atoms: C_19  and  N_20
REMARK                            x       y       z     vdW  Elec       q    Type
REMARK                         _______ _______ _______ _____ _____    ______ ____
ROOT
ATOM      1  C   UNL     1      -0.551   9.155  22.707  0.00  0.00    +0.000 C 
ATOM      2  C   UNL     1       0.452   9.302  21.548  0.00  0.00    +0.000 C 
ATOM      3  C   UNL     1       1.623  10.164  22.061  0.00  0.00    +0.000 C 
ATOM      4  C   UNL     1       0.965   7.910  21.120  0.00  0.00    +0.000 C 
ATOM      5  C   UNL     1       1.686   7.913  19.792  0.00  0.00    +0.000 A 
ATOM      6  N   UNL     1       2.480   6.847  19.553  0.00  0.00    +0.000 NA
ATOM      7  C   UNL     1       3.128   6.790  18.371  0.00  0.00    +0.000 A 
ATOM      8  N   UNL     1       2.994   7.723  17.410  0.00  0.00    +0.000 NA
ATOM      9  C   UNL     1       2.189   8.766  17.680  0.00  0.00    +0.000 A 
ATOM     10  C   UNL     1       1.498   8.928  18.865  0.00  0.00    +0.000 A 
ATOM     11  C   UNL     1       0.623  10.124  19.103  0.00  0.00    +0.000 C 
ATOM     12  C   UNL     1      -0.276   9.938  20.339  0.00  0.00    +0.000 C 
ENDROOT
BRANCH   7  13
ATOM     13  C   UNL     1       4.010   5.576  18.085  0.00  0.00    +0.000 C 
ATOM     14  C   UNL     1       4.883   5.868  16.854  0.00  0.00    +0.000 C 
ATOM     15  C   UNL     1       4.920   5.269  19.291  0.00  0.00    +0.000 C 
ATOM     16  C   UNL     1       3.155   4.324  17.806  0.00  0.00    +0.000 C 
ENDBRANCH   7  13
BRANCH  11  17
ATOM     17  N   UNL     1       1.421  11.339  19.204  0.00  0.00    +0.000 N 
ATOM     18  C   UNL     1       0.963  12.563  18.777  0.00  0.00    +0.000 C 
ATOM     19  O   UNL     1      -0.119  12.757  18.242  0.00  0.00    +0.000 OA
ATOM     20  H   UNL     1       2.289  11.323  19.722  0.00  0.00    +0.000 HD
BRANCH  18  21
ATOM     21  C   UNL     1       1.902  13.710  19.084  0.00  0.00    +0.000 C 
ATOM     22  C   UNL     1       1.453  14.801  20.028  0.00  0.00    +0.000 C 
ATOM     23  C   UNL     1       2.497  13.816  20.468  0.00  0.00    +0.000 C 
BRANCH  21  24
ATOM     24  N   UNL     1       2.767  14.093  17.946  0.00  0.00    +0.000 NA
ATOM     25  H   UNL     1       3.537  14.680  18.258  0.00  0.00    +0.000 HD
ATOM     26  H   UNL     1       2.223  14.675  17.305  0.00  0.00    +0.000 HD
ENDBRANCH  21  24
ENDBRANCH  18  21
ENDBRANCH  11  17
TORSDOF 4
ENDMDL
MODEL 7
REMARK VINA RESULT:      -6.0      3.061      6.932
REMARK  Name = 
REMARK  9 active torsions:
REMARK  status: ('A' for Active; 'I' for Inactive)
REMARK    1  A    between atoms: C_1  and  C_2
REMARK    2  A    between atoms: C_2  and  C_3
REMARK    3  A    between atoms: C_7  and  C_8
REMARK    4  A    between atoms: C_8  and  C_9
REMARK    5  A    between atoms: C_8  and  C_10
REMARK    6  A    between atoms: C_8  and  C_11
REMARK    7  A    between atoms: C_15  and  N_16
REMARK    8  A    between atoms: C_17  and  C_19
REMARK    9  A    between atoms: C_19  and  N_20
REMARK                            x       y       z     vdW  Elec       q    Type
REMARK                         _______ _______ _______ _____ _____    ______ ____
ROOT
ATOM      1  C   UNL     1       2.854   2.309  19.331  0.00  0.00    +0.000 C 
ATOM      2  C   UNL     1       3.126   3.602  18.540  0.00  0.00    +0.000 C 
ATOM      3  C   UNL     1       2.737   3.333  17.072  0.00  0.00    +0.000 C 
ATOM      4  C   UNL     1       2.272   4.755  19.112  0.00  0.00    +0.000 C 
ATOM      5  C   UNL     1       2.703   6.122  18.634  0.00  0.00    +0.000 A 
ATOM      6  N   UNL     1       1.790   7.107  18.771  0.00  0.00    +0.000 NA
ATOM      7  C   UNL     1       2.134   8.352  18.381  0.00  0.00    +0.000 A 
ATOM      8  N   UNL     1       3.351   8.663  17.897  0.00  0.00    +0.000 NA
ATOM      9  C   UNL     1       4.237   7.659  17.782  0.00  0.00    +0.000 A 
ATOM     10  C   UNL     1       3.977   6.349  18.133  0.00  0.00    +0.000 A 
ATOM     11  C   UNL     1       5.013   5.274  17.970  0.00  0.00    +0.000 C 
ATOM     12  C   UNL     1       4.618   3.981  18.706  0.00  0.00    +0.000 C 
ENDROOT
BRANCH   7  13
ATOM     13  C   UNL     1       1.113   9.475  18.554  0.00  0.00    +0.000 C 
ATOM     14  C   UNL     1       0.601   9.469  20.004  0.00  0.00    +0.000 C 
ATOM     15  C   UNL     1       1.753  10.843  18.247  0.00  0.00    +0.000 C 
ATOM     16  C   UNL     1      -0.084   9.287  17.600  0.00  0.00    +0.000 C 
ENDBRANCH   7  13
BRANCH  11  17
ATOM     17  N   UNL     1       5.280   5.022  16.560  0.00  0.00    +0.000 N 
ATOM     18  C   UNL     1       6.510   5.247  15.988  0.00  0.00    +0.000 C 
ATOM     19  O   UNL     1       7.480   5.709  16.573  0.00  0.00    +0.000 OA
ATOM     20  H   UNL     1       4.588   4.544  15.999  0.00  0.00    +0.000 HD
BRANCH  18  21
ATOM     21  C   UNL     1       6.605   4.807  14.543  0.00  0.00    +0.000 C 
ATOM     22  C   UNL     1       6.262   3.381  14.179  0.00  0.00    +0.000 C 
ATOM     23  C   UNL     1       5.333   4.494  13.791  0.00  0.00    +0.000 C 
BRANCH  21  24
ATOM     24  N   UNL     1       7.690   5.472  13.787  0.00  0.00    +0.000 NA
ATOM     25  H   UNL     1       7.321   6.226  13.213  0.00  0.00    +0.000 HD
ATOM     26  H   UNL     1       8.089   4.798  13.130  0.00  0.00    +0.000 HD
ENDBRANCH  21  24
ENDBRANCH  18  21
ENDBRANCH  11  17
TORSDOF 4
ENDMDL
MODEL 8
REMARK VINA RESULT:      -5.9      7.322     10.025
REMARK  Name = 
REMARK  9 active torsions:
REMARK  status: ('A' for Active; 'I' for Inactive)
REMARK    1  A    between atoms: C_1  and  C_2
REMARK    2  A    between atoms: C_2  and  C_3
REMARK    3  A    between atoms: C_7  and  C_8
REMARK    4  A    between atoms: C_8  and  C_9
REMARK    5  A    between atoms: C_8  and  C_10
REMARK    6  A    between atoms: C_8  and  C_11
REMARK    7  A    between atoms: C_15  and  N_16
REMARK    8  A    between atoms: C_17  and  C_19
REMARK    9  A    between atoms: C_19  and  N_20
REMARK                            x       y       z     vdW  Elec       q    Type
REMARK                         _______ _______ _______ _____ _____    ______ ____
ROOT
ATOM      1  C   UNL     1       1.890  13.231  20.711  0.00  0.00    +0.000 C 
ATOM      2  C   UNL     1       0.987  12.112  20.161  0.00  0.00    +0.000 C 
ATOM      3  C   UNL     1       0.912  11.011  21.239  0.00  0.00    +0.000 C 
ATOM      4  C   UNL     1      -0.424  12.671  19.875  0.00  0.00    +0.000 C 
ATOM      5  C   UNL     1      -1.279  11.753  19.033  0.00  0.00    +0.000 A 
ATOM      6  N   UNL     1      -2.609  11.985  19.075  0.00  0.00    +0.000 NA
ATOM      7  C   UNL     1      -3.415  11.208  18.322  0.00  0.00    +0.000 A 
ATOM      8  N   UNL     1      -2.955  10.240  17.507  0.00  0.00    +0.000 NA
ATOM      9  C   UNL     1      -1.625  10.042  17.485  0.00  0.00    +0.000 A 
ATOM     10  C   UNL     1      -0.719  10.768  18.232  0.00  0.00    +0.000 A 
ATOM     11  C   UNL     1       0.755  10.487  18.164  0.00  0.00    +0.000 C 
ATOM     12  C   UNL     1       1.582  11.604  18.825  0.00  0.00    +0.000 C 
ENDROOT
BRANCH   7  13
ATOM     13  C   UNL     1      -4.918  11.481  18.349  0.00  0.00    +0.000 C 
ATOM     14  C   UNL     1      -5.667  10.148  18.506  0.00  0.00    +0.000 C 
ATOM     15  C   UNL     1      -5.281  12.409  19.525  0.00  0.00    +0.000 C 
ATOM     16  C   UNL     1      -5.379  12.165  17.046  0.00  0.00    +0.000 C 
ENDBRANCH   7  13
BRANCH  11  17
ATOM     17  N   UNL     1       1.061   9.185  18.744  0.00  0.00    +0.000 N 
ATOM     18  C   UNL     1       2.067   8.380  18.264  0.00  0.00    +0.000 C 
ATOM     19  O   UNL     1       2.771   8.640  17.299  0.00  0.00    +0.000 OA
ATOM     20  H   UNL     1       0.616   8.907  19.608  0.00  0.00    +0.000 HD
BRANCH  18  21
ATOM     21  C   UNL     1       2.294   7.128  19.084  0.00  0.00    +0.000 C 
ATOM     22  C   UNL     1       2.079   5.776  18.444  0.00  0.00    +0.000 C 
ATOM     23  C   UNL     1       3.472   6.243  18.753  0.00  0.00    +0.000 C 
BRANCH  21  24
ATOM     24  N   UNL     1       1.945   7.280  20.514  0.00  0.00    +0.000 NA
ATOM     25  H   UNL     1       1.642   8.230  20.714  0.00  0.00    +0.000 HD
ATOM     26  H   UNL     1       2.791   7.140  21.071  0.00  0.00    +0.000 HD
ENDBRANCH  21  24
ENDBRANCH  18  21
ENDBRANCH  11  17
TORSDOF 4
ENDMDL
MODEL 9
REMARK VINA RESULT:      -5.7      9.658     12.533
REMARK  Name = 
REMARK  9 active torsions:
REMARK  status: ('A' for Active; 'I' for Inactive)
REMARK    1  A    between atoms: C_1  and  C_2
REMARK    2  A    between atoms: C_2  and  C_3
REMARK    3  A    between atoms: C_7  and  C_8
REMARK    4  A    between atoms: C_8  and  C_9
REMARK    5  A    between atoms: C_8  and  C_10
REMARK    6  A    between atoms: C_8  and  C_11
REMARK    7  A    between atoms: C_15  and  N_16
REMARK    8  A    between atoms: C_17  and  C_19
REMARK    9  A    between atoms: C_19  and  N_20
REMARK                            x       y       z     vdW  Elec       q    Type
REMARK                         _______ _______ _______ _____ _____    ______ ____
ROOT
ATOM      1  C   UNL     1      -1.202  14.255  23.694  0.00  0.00    +0.000 C 
ATOM      2  C   UNL     1      -1.696  13.265  22.623  0.00  0.00    +0.000 C 
ATOM      3  C   UNL     1      -1.715  11.864  23.268  0.00  0.00    +0.000 C 
ATOM      4  C   UNL     1      -3.116  13.658  22.162  0.00  0.00    +0.000 C 
ATOM      5  C   UNL     1      -3.555  12.963  20.895  0.00  0.00    +0.000 A 
ATOM      6  N   UNL     1      -4.885  12.953  20.660  0.00  0.00    +0.000 NA
ATOM      7  C   UNL     1      -5.327  12.365  19.529  0.00  0.00    +0.000 A 
ATOM      8  N   UNL     1      -4.506  11.822  18.611  0.00  0.00    +0.000 NA
ATOM      9  C   UNL     1      -3.188  11.856  18.874  0.00  0.00    +0.000 A 
ATOM     10  C   UNL     1      -2.637  12.415  20.010  0.00  0.00    +0.000 A 
ATOM     11  C   UNL     1      -1.154  12.411  20.245  0.00  0.00    +0.000 C 
ATOM     12  C   UNL     1      -0.754  13.349  21.397  0.00  0.00    +0.000 C 
ENDROOT
BRANCH   7  13
ATOM     13  C   UNL     1      -6.828  12.371  19.248  0.00  0.00    +0.000 C 
ATOM     14  C   UNL     1      -7.432  13.685  19.770  0.00  0.00    +0.000 C 
ATOM     15  C   UNL     1      -7.098  12.255  17.734  0.00  0.00    +0.000 C 
ATOM     16  C   UNL     1      -7.527  11.187  19.945  0.00  0.00    +0.000 C 
ENDBRANCH   7  13
BRANCH  11  17
ATOM     17  N   UNL     1      -0.668  11.055  20.469  0.00  0.00    +0.000 N 
ATOM     18  C   UNL     1       0.608  10.663  20.140  0.00  0.00    +0.000 C 
ATOM     19  O   UNL     1       1.442  11.375  19.600  0.00  0.00    +0.000 OA
ATOM     20  H   UNL     1      -1.231  10.406  21.002  0.00  0.00    +0.000 HD
BRANCH  18  21
ATOM     21  C   UNL     1       0.943   9.250  20.566  0.00  0.00    +0.000 C 
ATOM     22  C   UNL     1       1.285   8.974  22.013  0.00  0.00    +0.000 C 
ATOM     23  C   UNL     1      -0.026   8.505  21.453  0.00  0.00    +0.000 C 
BRANCH  21  24
ATOM     24  N   UNL     1       1.648   8.465  19.528  0.00  0.00    +0.000 NA
ATOM     25  H   UNL     1       0.989   7.923  18.974  0.00  0.00    +0.000 HD
ATOM     26  H   UNL     1       2.246   7.777  19.990  0.00  0.00    +0.000 HD
ENDBRANCH  21  24
ENDBRANCH  18  21
ENDBRANCH  11  17
TORSDOF 4
ENDMDL
