MODEL 1
REMARK VINA RESULT:      -7.3      0.000      0.000
REMARK  Name = 
REMARK  11 active torsions:
REMARK  status: ('A' for Active; 'I' for Inactive)
REMARK    1  A    between atoms: C_1  and  C_2
REMARK    2  A    between atoms: C_2  and  O_3
REMARK    3  A    between atoms: O_3  and  C_4
REMARK    4  A    between atoms: C_4  and  C_6
REMARK    5  A    between atoms: C_6  and  C_7
REMARK    6  A    between atoms: C_7  and  C_8
REMARK    7  A    between atoms: C_13  and  C_14
REMARK    8  A    between atoms: N_20  and  C_21
REMARK    9  A    between atoms: N_24  and  C_25
REMARK   10  A    between atoms: C_25  and  C_26
REMARK   11  A    between atoms: C_25  and  C_27
REMARK                            x       y       z     vdW  Elec       q    Type
REMARK                         _______ _______ _______ _____ _____    ______ ____
ROOT
ATOM      1  C   UNL     1       3.354   6.057  18.809  0.00  0.00    +0.000 C 
ATOM      2  C   UNL     1       3.003   6.643  20.200  0.00  0.00    +0.000 C 
ATOM      3  C   UNL     1       1.671   7.399  20.203  0.00  0.00    +0.000 C 
ATOM      4  N   UNL     1       1.681   8.504  19.241  0.00  0.00    +0.000 NA
ATOM      5  C   UNL     1       2.003   8.056  17.888  0.00  0.00    +0.000 C 
ATOM      6  C   UNL     1       3.272   7.202  17.789  0.00  0.00    +0.000 C 
ENDROOT
BRANCH   4   7
ATOM      7  C   UNL     1       0.488   9.382  19.393  0.00  0.00    +0.000 C 
ATOM      8  C   UNL     1       0.312  10.571  18.439  0.00  0.00    +0.000 C 
ATOM      9  C   UNL     1       1.184  11.775  18.782  0.00  0.00    +0.000 C 
ATOM     10  N   UNL     1       1.088  12.243  20.177  0.00  0.00    +0.000 NA
ATOM     11  C   UNL     1       1.040  11.160  21.175  0.00  0.00    +0.000 C 
ATOM     12  C   UNL     1       0.234   9.913  20.810  0.00  0.00    +0.000 C 
BRANCH  10  13
ATOM     13  C   UNL     1       2.194  13.198  20.487  0.00  0.00    +0.000 C 
ATOM     14  C   UNL     1       2.828  13.785  19.218  0.00  0.00    +0.000 C 
ATOM     15  C   UNL     1       1.746  14.365  21.384  0.00  0.00    +0.000 C 
ENDBRANCH  10  13
ENDBRANCH   4   7
BRANCH   1  16
ATOM     16  C   UNL     1       2.312   4.970  18.502  0.00  0.00    +0.000 C 
ATOM     17  O   UNL     1       1.507   4.998  17.581  0.00  0.00    +0.000 OA
BRANCH  16  18
ATOM     18  O   UNL     1       2.307   4.039  19.496  0.00  0.00    +0.000 OA
BRANCH  18  20
ATOM     19  C   UNL     1       1.320   2.839  21.270  0.00  0.00    +0.000 C 
ATOM     20  C   UNL     1       1.032   3.670  20.036  0.00  0.00    +0.000 C 
ENDBRANCH  18  20
ENDBRANCH  16  18
ENDBRANCH   1  16
BRANCH   1  21
ATOM     21  C   UNL     1       4.798   5.462  18.867  0.00  0.00    +0.000 C 
BRANCH  21  22
ATOM     22  C   UNL     1       5.476   5.130  17.545  0.00  0.00    +0.000 A 
ATOM     23  C   UNL     1       5.034   3.968  16.871  0.00  0.00    +0.000 A 
ATOM     24  C   UNL     1       5.547   3.588  15.633  0.00  0.00    +0.000 A 
ATOM     25  C   UNL     1       6.527   4.354  15.031  0.00  0.00    +0.000 A 
ATOM     26  C   UNL     1       7.013   5.482  15.692  0.00  0.00    +0.000 A 
ATOM     27  C   UNL     1       6.522   5.877  16.961  0.00  0.00    +0.000 A 
BRANCH  27  28
ATOM     28  C   UNL     1       7.222   7.074  17.577  0.00  0.00    +0.000 C 
ATOM     29  F   UNL     1       6.430   8.138  17.869  0.00  0.00    +0.000 F 
ATOM     30  F   UNL     1       7.830   6.754  18.760  0.00  0.00    +0.000 F 
ATOM     31  F   UNL     1       8.214   7.556  16.778  0.00  0.00    +0.000 F 
ENDBRANCH  27  28
ENDBRANCH  21  22
ENDBRANCH   1  21
TORSDOF 8
ENDMDL
MODEL 2
REMARK VINA RESULT:      -7.0      0.917      1.298
REMARK  Name = 
REMARK  11 active torsions:
REMARK  status: ('A' for Active; 'I' for Inactive)
REMARK    1  A    between atoms: C_1  and  C_2
REMARK    2  A    between atoms: C_2  and  O_3
REMARK    3  A    between atoms: O_3  and  C_4
REMARK    4  A    between atoms: C_4  and  C_6
REMARK    5  A    between atoms: C_6  and  C_7
REMARK    6  A    between atoms: C_7  and  C_8
REMARK    7  A    between atoms: C_13  and  C_14
REMARK    8  A    between atoms: N_20  and  C_21
REMARK    9  A    between atoms: N_24  and  C_25
REMARK   10  A    between atoms: C_25  and  C_26
REMARK   11  A    between atoms: C_25  and  C_27
REMARK                            x       y       z     vdW  Elec       q    Type
REMARK                         _______ _______ _______ _____ _____    ______ ____
ROOT
ATOM      1  C   UNL     1       3.147   5.919  18.968  0.00  0.00    +0.000 C 
ATOM      2  C   UNL     1       2.703   6.459  20.351  0.00  0.00    +0.000 C 
ATOM      3  C   UNL     1       1.432   7.310  20.272  0.00  0.00    +0.000 C 
ATOM      4  N   UNL     1       1.612   8.458  19.380  0.00  0.00    +0.000 NA
ATOM      5  C   UNL     1       2.032   8.056  18.040  0.00  0.00    +0.000 C 
ATOM      6  C   UNL     1       3.243   7.117  18.012  0.00  0.00    +0.000 C 
ENDROOT
BRANCH   4   7
ATOM      7  C   UNL     1       0.472   9.413  19.470  0.00  0.00    +0.000 C 
ATOM      8  C   UNL     1       0.365  10.544  18.437  0.00  0.00    +0.000 C 
ATOM      9  C   UNL     1       1.307  11.714  18.700  0.00  0.00    +0.000 C 
ATOM     10  N   UNL     1       1.240  12.280  20.060  0.00  0.00    +0.000 NA
ATOM     11  C   UNL     1       1.131  11.272  21.128  0.00  0.00    +0.000 C 
ATOM     12  C   UNL     1       0.252  10.053  20.847  0.00  0.00    +0.000 C 
BRANCH  10  13
ATOM     13  C   UNL     1       2.401  13.187  20.307  0.00  0.00    +0.000 C 
ATOM     14  C   UNL     1       2.950  13.798  19.010  0.00  0.00    +0.000 C 
ATOM     15  C   UNL     1       2.069  14.337  21.276  0.00  0.00    +0.000 C 
ENDBRANCH  10  13
ENDBRANCH   4   7
BRANCH   1  16
ATOM     16  C   UNL     1       2.067   4.929  18.503  0.00  0.00    +0.000 C 
ATOM     17  O   UNL     1       1.356   5.065  17.517  0.00  0.00    +0.000 OA
BRANCH  16  18
ATOM     18  O   UNL     1       1.907   3.948  19.433  0.00  0.00    +0.000 OA
BRANCH  18  20
ATOM     19  C   UNL     1       2.800   1.877  18.743  0.00  0.00    +0.000 C 
ATOM     20  C   UNL     1       1.517   2.654  18.955  0.00  0.00    +0.000 C 
ENDBRANCH  18  20
ENDBRANCH  16  18
ENDBRANCH   1  16
BRANCH   1  21
ATOM     21  C   UNL     1       4.534   5.217  19.127  0.00  0.00    +0.000 C 
BRANCH  21  22
ATOM     22  C   UNL     1       5.343   4.963  17.862  0.00  0.00    +0.000 A 
ATOM     23  C   UNL     1       4.653   4.408  16.760  0.00  0.00    +0.000 A 
ATOM     24  C   UNL     1       5.277   4.174  15.536  0.00  0.00    +0.000 A 
ATOM     25  C   UNL     1       6.616   4.480  15.378  0.00  0.00    +0.000 A 
ATOM     26  C   UNL     1       7.333   4.988  16.461  0.00  0.00    +0.000 A 
ATOM     27  C   UNL     1       6.726   5.215  17.722  0.00  0.00    +0.000 A 
BRANCH  27  28
ATOM     28  C   UNL     1       7.667   5.686  18.814  0.00  0.00    +0.000 C 
ATOM     29  F   UNL     1       8.755   4.904  19.037  0.00  0.00    +0.000 F 
ATOM     30  F   UNL     1       8.174   6.927  18.547  0.00  0.00    +0.000 F 
ATOM     31  F   UNL     1       7.040   5.801  20.018  0.00  0.00    +0.000 F 
ENDBRANCH  27  28
ENDBRANCH  21  22
ENDBRANCH   1  21
TORSDOF 8
ENDMDL
MODEL 3
REMARK VINA RESULT:      -6.9      0.886      1.072
REMARK  Name = 
REMARK  11 active torsions:
REMARK  status: ('A' for Active; 'I' for Inactive)
REMARK    1  A    between atoms: C_1  and  C_2
REMARK    2  A    between atoms: C_2  and  O_3
REMARK    3  A    between atoms: O_3  and  C_4
REMARK    4  A    between atoms: C_4  and  C_6
REMARK    5  A    between atoms: C_6  and  C_7
REMARK    6  A    between atoms: C_7  and  C_8
REMARK    7  A    between atoms: C_13  and  C_14
REMARK    8  A    between atoms: N_20  and  C_21
REMARK    9  A    between atoms: N_24  and  C_25
REMARK   10  A    between atoms: C_25  and  C_26
REMARK   11  A    between atoms: C_25  and  C_27
REMARK                            x       y       z     vdW  Elec       q    Type
REMARK                         _______ _______ _______ _____ _____    ______ ____
ROOT
ATOM      1  C   UNL     1       3.200   5.695  19.007  0.00  0.00    +0.000 C 
ATOM      2  C   UNL     1       2.799   6.064  20.457  0.00  0.00    +0.000 C 
ATOM      3  C   UNL     1       1.506   6.884  20.521  0.00  0.00    +0.000 C 
ATOM      4  N   UNL     1       1.625   8.129  19.759  0.00  0.00    +0.000 NA
ATOM      5  C   UNL     1       2.002   7.891  18.368  0.00  0.00    +0.000 C 
ATOM      6  C   UNL     1       3.232   6.994  18.190  0.00  0.00    +0.000 C 
ENDROOT
BRANCH   4   7
ATOM      7  C   UNL     1       0.469   9.037  19.997  0.00  0.00    +0.000 C 
ATOM      8  C   UNL     1      -0.014   9.943  18.856  0.00  0.00    +0.000 C 
ATOM      9  C   UNL     1       0.852  11.179  18.638  0.00  0.00    +0.000 C 
ATOM     10  N   UNL     1       1.100  11.992  19.843  0.00  0.00    +0.000 NA
ATOM     11  C   UNL     1       1.374  11.204  21.057  0.00  0.00    +0.000 C 
ATOM     12  C   UNL     1       0.568   9.920  21.248  0.00  0.00    +0.000 C 
BRANCH  10  13
ATOM     13  C   UNL     1       2.197  12.977  19.594  0.00  0.00    +0.000 C 
ATOM     14  C   UNL     1       2.805  12.828  18.192  0.00  0.00    +0.000 C 
ATOM     15  C   UNL     1       1.744  14.437  19.768  0.00  0.00    +0.000 C 
ENDBRANCH  10  13
ENDBRANCH   4   7
BRANCH   1  16
ATOM     16  C   UNL     1       2.126   4.734  18.473  0.00  0.00    +0.000 C 
ATOM     17  O   UNL     1       1.262   5.019  17.654  0.00  0.00    +0.000 OA
BRANCH  16  18
ATOM     18  O   UNL     1       2.175   3.558  19.156  0.00  0.00    +0.000 OA
BRANCH  18  20
ATOM     19  C   UNL     1       1.284   2.846  21.221  0.00  0.00    +0.000 C 
ATOM     20  C   UNL     1       0.958   3.108  19.765  0.00  0.00    +0.000 C 
ENDBRANCH  18  20
ENDBRANCH  16  18
ENDBRANCH   1  16
BRANCH   1  21
ATOM     21  C   UNL     1       4.608   5.017  19.035  0.00  0.00    +0.000 C 
BRANCH  21  22
ATOM     22  C   UNL     1       5.396   4.978  17.733  0.00  0.00    +0.000 A 
ATOM     23  C   UNL     1       4.731   4.468  16.595  0.00  0.00    +0.000 A 
ATOM     24  C   UNL     1       5.334   4.425  15.340  0.00  0.00    +0.000 A 
ATOM     25  C   UNL     1       6.629   4.884  15.184  0.00  0.00    +0.000 A 
ATOM     26  C   UNL     1       7.326   5.352  16.298  0.00  0.00    +0.000 A 
ATOM     27  C   UNL     1       6.741   5.386  17.588  0.00  0.00    +0.000 A 
BRANCH  27  28
ATOM     28  C   UNL     1       7.665   5.839  18.702  0.00  0.00    +0.000 C 
ATOM     29  F   UNL     1       8.253   7.051  18.528  0.00  0.00    +0.000 F 
ATOM     30  F   UNL     1       7.011   5.934  19.899  0.00  0.00    +0.000 F 
ATOM     31  F   UNL     1       8.683   4.959  18.914  0.00  0.00    +0.000 F 
ENDBRANCH  27  28
ENDBRANCH  21  22
ENDBRANCH   1  21
TORSDOF 8
ENDMDL
MODEL 4
REMARK VINA RESULT:      -6.5      2.126      2.637
REMARK  Name = 
REMARK  11 active torsions:
REMARK  status: ('A' for Active; 'I' for Inactive)
REMARK    1  A    between atoms: C_1  and  C_2
REMARK    2  A    between atoms: C_2  and  O_3
REMARK    3  A    between atoms: O_3  and  C_4
REMARK    4  A    between atoms: C_4  and  C_6
REMARK    5  A    between atoms: C_6  and  C_7
REMARK    6  A    between atoms: C_7  and  C_8
REMARK    7  A    between atoms: C_13  and  C_14
REMARK    8  A    between atoms: N_20  and  C_21
REMARK    9  A    between atoms: N_24  and  C_25
REMARK   10  A    between atoms: C_25  and  C_26
REMARK   11  A    between atoms: C_25  and  C_27
REMARK                            x       y       z     vdW  Elec       q    Type
REMARK                         _______ _______ _______ _____ _____    ______ ____
ROOT
ATOM      1  C   UNL     1       2.815   6.294  18.988  0.00  0.00    +0.000 C 
ATOM      2  C   UNL     1       2.637   6.804  20.441  0.00  0.00    +0.000 C 
ATOM      3  C   UNL     1       1.348   7.609  20.630  0.00  0.00    +0.000 C 
ATOM      4  N   UNL     1       1.308   8.771  19.739  0.00  0.00    +0.000 NA
ATOM      5  C   UNL     1       1.467   8.398  18.336  0.00  0.00    +0.000 C 
ATOM      6  C   UNL     1       2.679   7.504  18.053  0.00  0.00    +0.000 C 
ENDROOT
BRANCH   4   7
ATOM      7  C   UNL     1       0.178   9.684  20.070  0.00  0.00    +0.000 C 
ATOM      8  C   UNL     1      -0.425  10.554  18.958  0.00  0.00    +0.000 C 
ATOM      9  C   UNL     1       0.408  11.785  18.616  0.00  0.00    +0.000 C 
ATOM     10  N   UNL     1       0.775  12.634  19.764  0.00  0.00    +0.000 NA
ATOM     11  C   UNL     1       1.176  11.883  20.966  0.00  0.00    +0.000 C 
ATOM     12  C   UNL     1       0.401  10.603  21.277  0.00  0.00    +0.000 C 
BRANCH  10  13
ATOM     13  C   UNL     1       1.835  13.613  19.374  0.00  0.00    +0.000 C 
ATOM     14  C   UNL     1       2.730  14.004  20.559  0.00  0.00    +0.000 C 
ATOM     15  C   UNL     1       2.738  13.100  18.239  0.00  0.00    +0.000 C 
ENDBRANCH  10  13
ENDBRANCH   4   7
BRANCH   1  16
ATOM     16  C   UNL     1       1.698   5.270  18.731  0.00  0.00    +0.000 C 
ATOM     17  O   UNL     1       1.187   5.035  17.644  0.00  0.00    +0.000 OA
BRANCH  16  18
ATOM     18  O   UNL     1       1.249   4.766  19.913  0.00  0.00    +0.000 OA
BRANCH  18  20
ATOM     19  C   UNL     1       1.346   2.836  21.265  0.00  0.00    +0.000 C 
ATOM     20  C   UNL     1       0.876   3.383  19.932  0.00  0.00    +0.000 C 
ENDBRANCH  18  20
ENDBRANCH  16  18
ENDBRANCH   1  16
BRANCH   1  21
ATOM     21  C   UNL     1       4.229   5.641  18.858  0.00  0.00    +0.000 C 
BRANCH  21  22
ATOM     22  C   UNL     1       4.665   5.179  17.474  0.00  0.00    +0.000 A 
ATOM     23  C   UNL     1       5.198   6.162  16.608  0.00  0.00    +0.000 A 
ATOM     24  C   UNL     1       5.671   5.851  15.335  0.00  0.00    +0.000 A 
ATOM     25  C   UNL     1       5.619   4.546  14.883  0.00  0.00    +0.000 A 
ATOM     26  C   UNL     1       5.058   3.563  15.698  0.00  0.00    +0.000 A 
ATOM     27  C   UNL     1       4.551   3.858  16.988  0.00  0.00    +0.000 A 
BRANCH  27  28
ATOM     28  C   UNL     1       3.897   2.692  17.704  0.00  0.00    +0.000 C 
ATOM     29  F   UNL     1       2.587   2.480  17.418  0.00  0.00    +0.000 F 
ATOM     30  F   UNL     1       4.516   1.507  17.418  0.00  0.00    +0.000 F 
ATOM     31  F   UNL     1       3.965   2.819  19.059  0.00  0.00    +0.000 F 
ENDBRANCH  27  28
ENDBRANCH  21  22
ENDBRANCH   1  21
TORSDOF 8
ENDMDL
MODEL 5
REMARK VINA RESULT:      -6.5      1.366      1.777
REMARK  Name = 
REMARK  11 active torsions:
REMARK  status: ('A' for Active; 'I' for Inactive)
REMARK    1  A    between atoms: C_1  and  C_2
REMARK    2  A    between atoms: C_2  and  O_3
REMARK    3  A    between atoms: O_3  and  C_4
REMARK    4  A    between atoms: C_4  and  C_6
REMARK    5  A    between atoms: C_6  and  C_7
REMARK    6  A    between atoms: C_7  and  C_8
REMARK    7  A    between atoms: C_13  and  C_14
REMARK    8  A    between atoms: N_20  and  C_21
REMARK    9  A    between atoms: N_24  and  C_25
REMARK   10  A    between atoms: C_25  and  C_26
REMARK   11  A    between atoms: C_25  and  C_27
REMARK                            x       y       z     vdW  Elec       q    Type
REMARK                         _______ _______ _______ _____ _____    ______ ____
ROOT
ATOM      1  C   UNL     1       3.169   5.356  19.091  0.00  0.00    +0.000 C 
ATOM      2  C   UNL     1       2.790   5.406  20.593  0.00  0.00    +0.000 C 
ATOM      3  C   UNL     1       1.545   6.257  20.860  0.00  0.00    +0.000 C 
ATOM      4  N   UNL     1       1.731   7.635  20.398  0.00  0.00    +0.000 NA
ATOM      5  C   UNL     1       2.092   7.700  18.985  0.00  0.00    +0.000 C 
ATOM      6  C   UNL     1       3.271   6.803  18.590  0.00  0.00    +0.000 C 
ENDROOT
BRANCH   4   7
ATOM      7  C   UNL     1       0.627   8.525  20.853  0.00  0.00    +0.000 C 
ATOM      8  C   UNL     1      -0.314   9.138  19.807  0.00  0.00    +0.000 C 
ATOM      9  C   UNL     1       0.279  10.331  19.064  0.00  0.00    +0.000 C 
ATOM     10  N   UNL     1       0.824  11.398  19.924  0.00  0.00    +0.000 NA
ATOM     11  C   UNL     1       1.580  10.907  21.089  0.00  0.00    +0.000 C 
ATOM     12  C   UNL     1       1.040   9.664  21.795  0.00  0.00    +0.000 C 
BRANCH  10  13
ATOM     13  C   UNL     1       1.651  12.348  19.119  0.00  0.00    +0.000 C 
ATOM     14  C   UNL     1       2.404  11.644  17.982  0.00  0.00    +0.000 C 
ATOM     15  C   UNL     1       0.825  13.495  18.510  0.00  0.00    +0.000 C 
ENDBRANCH  10  13
ENDBRANCH   4   7
BRANCH   1  16
ATOM     16  C   UNL     1       2.042   4.600  18.368  0.00  0.00    +0.000 C 
ATOM     17  O   UNL     1       1.301   5.074  17.518  0.00  0.00    +0.000 OA
BRANCH  16  18
ATOM     18  O   UNL     1       1.884   3.365  18.919  0.00  0.00    +0.000 OA
BRANCH  18  20
ATOM     19  C   UNL     1       3.256   1.492  18.502  0.00  0.00    +0.000 C 
ATOM     20  C   UNL     1       2.019   2.239  18.044  0.00  0.00    +0.000 C 
ENDBRANCH  18  20
ENDBRANCH  16  18
ENDBRANCH   1  16
BRANCH   1  21
ATOM     21  C   UNL     1       4.537   4.615  18.945  0.00  0.00    +0.000 C 
BRANCH  21  22
ATOM     22  C   UNL     1       5.297   4.793  17.638  0.00  0.00    +0.000 A 
ATOM     23  C   UNL     1       4.673   4.318  16.462  0.00  0.00    +0.000 A 
ATOM     24  C   UNL     1       5.251   4.466  15.203  0.00  0.00    +0.000 A 
ATOM     25  C   UNL     1       6.479   5.088  15.080  0.00  0.00    +0.000 A 
ATOM     26  C   UNL     1       7.139   5.529  16.227  0.00  0.00    +0.000 A 
ATOM     27  C   UNL     1       6.581   5.371  17.520  0.00  0.00    +0.000 A 
BRANCH  27  28
ATOM     28  C   UNL     1       7.468   5.825  18.663  0.00  0.00    +0.000 C 
ATOM     29  F   UNL     1       8.508   5.007  18.968  0.00  0.00    +0.000 F 
ATOM     30  F   UNL     1       8.039   7.041  18.412  0.00  0.00    +0.000 F 
ATOM     31  F   UNL     1       6.770   5.985  19.823  0.00  0.00    +0.000 F 
ENDBRANCH  27  28
ENDBRANCH  21  22
ENDBRANCH   1  21
TORSDOF 8
ENDMDL
MODEL 6
REMARK VINA RESULT:      -6.4      1.338      2.213
REMARK  Name = 
REMARK  11 active torsions:
REMARK  status: ('A' for Active; 'I' for Inactive)
REMARK    1  A    between atoms: C_1  and  C_2
REMARK    2  A    between atoms: C_2  and  O_3
REMARK    3  A    between atoms: O_3  and  C_4
REMARK    4  A    between atoms: C_4  and  C_6
REMARK    5  A    between atoms: C_6  and  C_7
REMARK    6  A    between atoms: C_7  and  C_8
REMARK    7  A    between atoms: C_13  and  C_14
REMARK    8  A    between atoms: N_20  and  C_21
REMARK    9  A    between atoms: N_24  and  C_25
REMARK   10  A    between atoms: C_25  and  C_26
REMARK   11  A    between atoms: C_25  and  C_27
REMARK                            x       y       z     vdW  Elec       q    Type
REMARK                         _______ _______ _______ _____ _____    ______ ____
ROOT
ATOM      1  C   UNL     1       3.180   6.317  18.664  0.00  0.00    +0.000 C 
ATOM      2  C   UNL     1       2.712   7.086  19.926  0.00  0.00    +0.000 C 
ATOM      3  C   UNL     1       1.607   8.102  19.622  0.00  0.00    +0.000 C 
ATOM      4  N   UNL     1       2.046   9.089  18.633  0.00  0.00    +0.000 NA
ATOM      5  C   UNL     1       2.509   8.465  17.396  0.00  0.00    +0.000 C 
ATOM      6  C   UNL     1       3.551   7.358  17.598  0.00  0.00    +0.000 C 
ENDROOT
BRANCH   4   7
ATOM      7  C   UNL     1       1.073  10.209  18.498  0.00  0.00    +0.000 C 
ATOM      8  C   UNL     1       1.368  11.541  19.201  0.00  0.00    +0.000 C 
ATOM      9  C   UNL     1       1.076  11.529  20.698  0.00  0.00    +0.000 C 
ATOM     10  N   UNL     1      -0.272  11.062  21.070  0.00  0.00    +0.000 NA
ATOM     11  C   UNL     1      -0.742   9.898  20.300  0.00  0.00    +0.000 C 
ATOM     12  C   UNL     1      -0.387   9.859  18.814  0.00  0.00    +0.000 C 
BRANCH  10  13
ATOM     13  C   UNL     1      -0.345  10.789  22.538  0.00  0.00    +0.000 C 
ATOM     14  C   UNL     1      -1.620  11.361  23.174  0.00  0.00    +0.000 C 
ATOM     15  C   UNL     1      -0.272   9.289  22.873  0.00  0.00    +0.000 C 
ENDBRANCH  10  13
ENDBRANCH   4   7
BRANCH   1  16
ATOM     16  C   UNL     1       1.999   5.450  18.201  0.00  0.00    +0.000 C 
ATOM     17  O   UNL     1       1.238   5.720  17.281  0.00  0.00    +0.000 OA
BRANCH  16  18
ATOM     18  O   UNL     1       1.821   4.410  19.061  0.00  0.00    +0.000 OA
BRANCH  18  20
ATOM     19  C   UNL     1       0.680   2.393  19.501  0.00  0.00    +0.000 C 
ATOM     20  C   UNL     1       1.529   3.131  18.485  0.00  0.00    +0.000 C 
ENDBRANCH  18  20
ENDBRANCH  16  18
ENDBRANCH   1  16
BRANCH   1  21
ATOM     21  C   UNL     1       4.416   5.439  19.044  0.00  0.00    +0.000 C 
BRANCH  21  22
ATOM     22  C   UNL     1       5.310   4.956  17.910  0.00  0.00    +0.000 A 
ATOM     23  C   UNL     1       4.683   4.261  16.850  0.00  0.00    +0.000 A 
ATOM     24  C   UNL     1       5.389   3.811  15.737  0.00  0.00    +0.000 A 
ATOM     25  C   UNL     1       6.751   4.034  15.652  0.00  0.00    +0.000 A 
ATOM     26  C   UNL     1       7.405   4.678  16.703  0.00  0.00    +0.000 A 
ATOM     27  C   UNL     1       6.711   5.126  17.854  0.00  0.00    +0.000 A 
BRANCH  27  28
ATOM     28  C   UNL     1       7.585   5.726  18.939  0.00  0.00    +0.000 C 
ATOM     29  F   UNL     1       7.969   7.014  18.747  0.00  0.00    +0.000 F 
ATOM     30  F   UNL     1       6.960   5.723  20.155  0.00  0.00    +0.000 F 
ATOM     31  F   UNL     1       8.735   5.019  19.121  0.00  0.00    +0.000 F 
ENDBRANCH  27  28
ENDBRANCH  21  22
ENDBRANCH   1  21
TORSDOF 8
ENDMDL
MODEL 7
REMARK VINA RESULT:      -6.4      3.069      4.713
REMARK  Name = 
REMARK  11 active torsions:
REMARK  status: ('A' for Active; 'I' for Inactive)
REMARK    1  A    between atoms: C_1  and  C_2
REMARK    2  A    between atoms: C_2  and  O_3
REMARK    3  A    between atoms: O_3  and  C_4
REMARK    4  A    between atoms: C_4  and  C_6
REMARK    5  A    between atoms: C_6  and  C_7
REMARK    6  A    between atoms: C_7  and  C_8
REMARK    7  A    between atoms: C_13  and  C_14
REMARK    8  A    between atoms: N_20  and  C_21
REMARK    9  A    between atoms: N_24  and  C_25
REMARK   10  A    between atoms: C_25  and  C_26
REMARK   11  A    between atoms: C_25  and  C_27
REMARK                            x       y       z     vdW  Elec       q    Type
REMARK                         _______ _______ _______ _____ _____    ______ ____
ROOT
ATOM      1  C   UNL     1       2.081   6.429  18.566  0.00  0.00    +0.000 C 
ATOM      2  C   UNL     1       1.691   7.599  17.627  0.00  0.00    +0.000 C 
ATOM      3  C   UNL     1       2.042   8.970  18.214  0.00  0.00    +0.000 C 
ATOM      4  N   UNL     1       1.375   9.186  19.500  0.00  0.00    +0.000 NA
ATOM      5  C   UNL     1       1.679   8.133  20.465  0.00  0.00    +0.000 C 
ATOM      6  C   UNL     1       1.455   6.710  19.940  0.00  0.00    +0.000 C 
ENDROOT
BRANCH   4   7
ATOM      7  C   UNL     1       1.522  10.592  19.970  0.00  0.00    +0.000 C 
ATOM      8  C   UNL     1       0.647  11.084  21.132  0.00  0.00    +0.000 C 
ATOM      9  C   UNL     1      -0.786  11.416  20.731  0.00  0.00    +0.000 C 
ATOM     10  N   UNL     1      -0.920  12.338  19.588  0.00  0.00    +0.000 NA
ATOM     11  C   UNL     1       0.026  12.078  18.489  0.00  0.00    +0.000 C 
ATOM     12  C   UNL     1       1.446  11.666  18.877  0.00  0.00    +0.000 C 
BRANCH  10  13
ATOM     13  C   UNL     1      -2.326  12.345  19.083  0.00  0.00    +0.000 C 
ATOM     14  C   UNL     1      -2.690  11.043  18.356  0.00  0.00    +0.000 C 
ATOM     15  C   UNL     1      -3.363  12.580  20.196  0.00  0.00    +0.000 C 
ENDBRANCH  10  13
ENDBRANCH   4   7
BRANCH   1  16
ATOM     16  C   UNL     1       3.615   6.412  18.652  0.00  0.00    +0.000 C 
ATOM     17  O   UNL     1       4.268   6.028  19.613  0.00  0.00    +0.000 OA
BRANCH  16  18
ATOM     18  O   UNL     1       4.147   7.033  17.564  0.00  0.00    +0.000 OA
BRANCH  18  20
ATOM     19  C   UNL     1       5.243   5.958  15.773  0.00  0.00    +0.000 C 
ATOM     20  C   UNL     1       5.442   6.596  17.133  0.00  0.00    +0.000 C 
ENDBRANCH  18  20
ENDBRANCH  16  18
ENDBRANCH   1  16
BRANCH   1  21
ATOM     21  C   UNL     1       1.529   5.098  17.961  0.00  0.00    +0.000 C 
BRANCH  21  22
ATOM     22  C   UNL     1       2.311   3.821  18.243  0.00  0.00    +0.000 A 
ATOM     23  C   UNL     1       3.085   3.297  17.183  0.00  0.00    +0.000 A 
ATOM     24  C   UNL     1       3.877   2.160  17.334  0.00  0.00    +0.000 A 
ATOM     25  C   UNL     1       3.913   1.506  18.552  0.00  0.00    +0.000 A 
ATOM     26  C   UNL     1       3.126   1.975  19.603  0.00  0.00    +0.000 A 
ATOM     27  C   UNL     1       2.296   3.116  19.466  0.00  0.00    +0.000 A 
BRANCH  27  28
ATOM     28  C   UNL     1       1.440   3.438  20.676  0.00  0.00    +0.000 C 
ATOM     29  F   UNL     1       0.218   3.966  20.414  0.00  0.00    +0.000 F 
ATOM     30  F   UNL     1       1.189   2.325  21.431  0.00  0.00    +0.000 F 
ATOM     31  F   UNL     1       2.052   4.316  21.519  0.00  0.00    +0.000 F 
ENDBRANCH  27  28
ENDBRANCH  21  22
ENDBRANCH   1  21
TORSDOF 8
ENDMDL
MODEL 8
REMARK VINA RESULT:      -6.3      2.028      2.796
REMARK  Name = 
REMARK  11 active torsions:
REMARK  status: ('A' for Active; 'I' for Inactive)
REMARK    1  A    between atoms: C_1  and  C_2
REMARK    2  A    between atoms: C_2  and  O_3
REMARK    3  A    between atoms: O_3  and  C_4
REMARK    4  A    between atoms: C_4  and  C_6
REMARK    5  A    between atoms: C_6  and  C_7
REMARK    6  A    between atoms: C_7  and  C_8
REMARK    7  A    between atoms: C_13  and  C_14
REMARK    8  A    between atoms: N_20  and  C_21
REMARK    9  A    between atoms: N_24  and  C_25
REMARK   10  A    between atoms: C_25  and  C_26
REMARK   11  A    between atoms: C_25  and  C_27
REMARK                            x       y       z     vdW  Elec       q    Type
REMARK                         _______ _______ _______ _____ _____    ______ ____
ROOT
ATOM      1  C   UNL     1       2.852   5.180  18.623  0.00  0.00    +0.000 C 
ATOM      2  C   UNL     1       2.939   5.088  20.167  0.00  0.00    +0.000 C 
ATOM      3  C   UNL     1       1.878   5.940  20.871  0.00  0.00    +0.000 C 
ATOM      4  N   UNL     1       1.996   7.352  20.500  0.00  0.00    +0.000 NA
ATOM      5  C   UNL     1       1.924   7.552  19.055  0.00  0.00    +0.000 C 
ATOM      6  C   UNL     1       2.881   6.668  18.246  0.00  0.00    +0.000 C 
ENDROOT
BRANCH   4   7
ATOM      7  C   UNL     1       1.127   8.221  21.343  0.00  0.00    +0.000 C 
ATOM      8  C   UNL     1      -0.382   8.258  21.065  0.00  0.00    +0.000 C 
ATOM      9  C   UNL     1      -0.769   9.116  19.865  0.00  0.00    +0.000 C 
ATOM     10  N   UNL     1      -0.235  10.490  19.877  0.00  0.00    +0.000 NA
ATOM     11  C   UNL     1       1.162  10.590  20.332  0.00  0.00    +0.000 C 
ATOM     12  C   UNL     1       1.586   9.678  21.483  0.00  0.00    +0.000 C 
BRANCH  10  13
ATOM     13  C   UNL     1      -0.401  11.128  18.536  0.00  0.00    +0.000 C 
ATOM     14  C   UNL     1      -1.657  10.631  17.807  0.00  0.00    +0.000 C 
ATOM     15  C   UNL     1      -0.460  12.664  18.605  0.00  0.00    +0.000 C 
ENDBRANCH  10  13
ENDBRANCH   4   7
BRANCH   1  16
ATOM     16  C   UNL     1       1.521   4.533  18.207  0.00  0.00    +0.000 C 
ATOM     17  O   UNL     1       0.919   4.754  17.165  0.00  0.00    +0.000 OA
BRANCH  16  18
ATOM     18  O   UNL     1       1.026   3.790  19.235  0.00  0.00    +0.000 OA
BRANCH  18  20
ATOM     19  C   UNL     1       2.048   1.668  19.101  0.00  0.00    +0.000 C 
ATOM     20  C   UNL     1       0.736   2.413  18.962  0.00  0.00    +0.000 C 
ENDBRANCH  18  20
ENDBRANCH  16  18
ENDBRANCH   1  16
BRANCH   1  21
ATOM     21  C   UNL     1       4.072   4.422  18.007  0.00  0.00    +0.000 C 
BRANCH  21  22
ATOM     22  C   UNL     1       5.423   5.122  18.039  0.00  0.00    +0.000 A 
ATOM     23  C   UNL     1       6.039   5.272  19.302  0.00  0.00    +0.000 A 
ATOM     24  C   UNL     1       7.295   5.856  19.451  0.00  0.00    +0.000 A 
ATOM     25  C   UNL     1       7.975   6.316  18.339  0.00  0.00    +0.000 A 
ATOM     26  C   UNL     1       7.373   6.221  17.084  0.00  0.00    +0.000 A 
ATOM     27  C   UNL     1       6.087   5.651  16.910  0.00  0.00    +0.000 A 
BRANCH  27  28
ATOM     28  C   UNL     1       5.545   5.707  15.495  0.00  0.00    +0.000 C 
ATOM     29  F   UNL     1       4.701   4.703  15.143  0.00  0.00    +0.000 F 
ATOM     30  F   UNL     1       4.841   6.856  15.265  0.00  0.00    +0.000 F 
ATOM     31  F   UNL     1       6.540   5.699  14.563  0.00  0.00    +0.000 F 
ENDBRANCH  27  28
ENDBRANCH  21  22
ENDBRANCH   1  21
TORSDOF 8
ENDMDL
MODEL 9
REMARK VINA RESULT:      -6.3      2.035      2.948
REMARK  Name = 
REMARK  11 active torsions:
REMARK  status: ('A' for Active; 'I' for Inactive)
REMARK    1  A    between atoms: C_1  and  C_2
REMARK    2  A    between atoms: C_2  and  O_3
REMARK    3  A    between atoms: O_3  and  C_4
REMARK    4  A    between atoms: C_4  and  C_6
REMARK    5  A    between atoms: C_6  and  C_7
REMARK    6  A    between atoms: C_7  and  C_8
REMARK    7  A    between atoms: C_13  and  C_14
REMARK    8  A    between atoms: N_20  and  C_21
REMARK    9  A    between atoms: N_24  and  C_25
REMARK   10  A    between atoms: C_25  and  C_26
REMARK   11  A    between atoms: C_25  and  C_27
REMARK                            x       y       z     vdW  Elec       q    Type
REMARK                         _______ _______ _______ _____ _____    ______ ____
ROOT
ATOM      1  C   UNL     1       3.057   5.868  18.971  0.00  0.00    +0.000 C 
ATOM      2  C   UNL     1       2.449   6.687  20.137  0.00  0.00    +0.000 C 
ATOM      3  C   UNL     1       1.457   7.752  19.658  0.00  0.00    +0.000 C 
ATOM      4  N   UNL     1       2.089   8.693  18.731  0.00  0.00    +0.000 NA
ATOM      5  C   UNL     1       2.697   8.018  17.587  0.00  0.00    +0.000 C 
ATOM      6  C   UNL     1       3.636   6.865  17.957  0.00  0.00    +0.000 C 
ENDROOT
BRANCH   4   7
ATOM      7  C   UNL     1       1.208   9.857  18.437  0.00  0.00    +0.000 C 
ATOM      8  C   UNL     1       1.578  11.233  19.008  0.00  0.00    +0.000 C 
ATOM      9  C   UNL     1       1.232  11.404  20.484  0.00  0.00    +0.000 C 
ATOM     10  N   UNL     1      -0.159  11.077  20.845  0.00  0.00    +0.000 NA
ATOM     11  C   UNL     1      -0.688   9.872  20.181  0.00  0.00    +0.000 C 
ATOM     12  C   UNL     1      -0.284   9.647  18.725  0.00  0.00    +0.000 C 
BRANCH  10  13
ATOM     13  C   UNL     1      -0.305  10.970  22.328  0.00  0.00    +0.000 C 
ATOM     14  C   UNL     1      -1.589  11.639  22.837  0.00  0.00    +0.000 C 
ATOM     15  C   UNL     1      -0.290   9.515  22.829  0.00  0.00    +0.000 C 
ENDBRANCH  10  13
ENDBRANCH   4   7
BRANCH   1  16
ATOM     16  C   UNL     1       1.912   5.052  18.349  0.00  0.00    +0.000 C 
ATOM     17  O   UNL     1       1.133   5.457  17.496  0.00  0.00    +0.000 OA
BRANCH  16  18
ATOM     18  O   UNL     1       1.787   3.861  18.995  0.00  0.00    +0.000 OA
BRANCH  18  20
ATOM     19  C   UNL     1       1.340   2.944  21.122  0.00  0.00    +0.000 C 
ATOM     20  C   UNL     1       0.757   3.763  19.988  0.00  0.00    +0.000 C 
ENDBRANCH  18  20
ENDBRANCH  16  18
ENDBRANCH   1  16
BRANCH   1  21
ATOM     21  C   UNL     1       4.174   4.937  19.543  0.00  0.00    +0.000 C 
BRANCH  21  22
ATOM     22  C   UNL     1       5.547   5.002  18.886  0.00  0.00    +0.000 A 
ATOM     23  C   UNL     1       6.540   5.759  19.549  0.00  0.00    +0.000 A 
ATOM     24  C   UNL     1       7.844   5.854  19.069  0.00  0.00    +0.000 A 
ATOM     25  C   UNL     1       8.196   5.200  17.902  0.00  0.00    +0.000 A 
ATOM     26  C   UNL     1       7.226   4.481  17.204  0.00  0.00    +0.000 A 
ATOM     27  C   UNL     1       5.888   4.387  17.661  0.00  0.00    +0.000 A 
BRANCH  27  28
ATOM     28  C   UNL     1       4.943   3.643  16.738  0.00  0.00    +0.000 C 
ATOM     29  F   UNL     1       4.144   2.716  17.327  0.00  0.00    +0.000 F 
ATOM     30  F   UNL     1       4.083   4.492  16.098  0.00  0.00    +0.000 F 
ATOM     31  F   UNL     1       5.607   2.984  15.746  0.00  0.00    +0.000 F 
ENDBRANCH  27  28
ENDBRANCH  21  22
ENDBRANCH   1  21
TORSDOF 8
ENDMDL
