MODEL 1
REMARK VINA RESULT:      -7.8      0.000      0.000
REMARK  Name = 
REMARK  4 active torsions:
REMARK  status: ('A' for Active; 'I' for Inactive)
REMARK    1  A    between atoms: C_1  and  N_2
REMARK    2  A    between atoms: C_3  and  C_4
REMARK    3  A    between atoms: C_14  and  C_15
REMARK    4  A    between atoms: C_20  and  C_21
REMARK                            x       y       z     vdW  Elec       q    Type
REMARK                         _______ _______ _______ _____ _____    ______ ____
ROOT
ATOM      1  C   UNL     1       1.570   5.881  20.846  0.00  0.00    +0.000 C 
ATOM      2  N   UNL     1       1.995   6.688  19.728  0.00  0.00    +0.000 N 
ATOM      3  C   UNL     1       1.821   8.051  19.567  0.00  0.00    +0.000 A 
ATOM      4  N   UNL     1       2.447   8.402  18.460  0.00  0.00    +0.000 NA
ATOM      5  N   UNL     1       2.972   7.283  17.869  0.00  0.00    +0.000 NA
ATOM      6  C   UNL     1       2.693   6.237  18.618  0.00  0.00    +0.000 A 
ENDROOT
BRANCH   3   7
ATOM      7  C   UNL     1       1.038   8.961  20.419  0.00  0.00    +0.000 A 
ATOM      8  C   UNL     1       1.176   8.889  21.819  0.00  0.00    +0.000 A 
ATOM      9  C   UNL     1       0.438   9.720  22.668  0.00  0.00    +0.000 A 
ATOM     10  C   UNL     1      -0.484  10.610  22.134  0.00  0.00    +0.000 A 
ATOM     11 CL   UNL     1      -1.394  11.627  23.178  0.00  0.00    +0.000 Cl
ATOM     12  C   UNL     1      -0.667  10.685  20.757  0.00  0.00    +0.000 A 
ATOM     13  C   UNL     1       0.091   9.868  19.901  0.00  0.00    +0.000 A 
ATOM     14 CL   UNL     1      -0.187  10.071  18.206  0.00  0.00    +0.000 Cl
ENDBRANCH   3   7
BRANCH   6  15
ATOM     15  C   UNL     1       3.018   4.845  18.277  0.00  0.00    +0.000 A 
ATOM     16  C   UNL     1       1.955   3.978  17.943  0.00  0.00    +0.000 A 
ATOM     17  C   UNL     1       2.167   2.641  17.602  0.00  0.00    +0.000 A 
ATOM     18  C   UNL     1       3.454   2.147  17.540  0.00  0.00    +0.000 A 
ATOM     19  C   UNL     1       4.533   2.995  17.819  0.00  0.00    +0.000 A 
ATOM     20  C   UNL     1       4.335   4.347  18.196  0.00  0.00    +0.000 A 
BRANCH  20  21
ATOM     21  C   UNL     1       5.602   5.128  18.472  0.00  0.00    +0.000 C 
ATOM     22  F   UNL     1       5.754   5.654  19.710  0.00  0.00    +0.000 F 
ATOM     23  F   UNL     1       6.705   4.335  18.298  0.00  0.00    +0.000 F 
ATOM     24  F   UNL     1       5.770   6.156  17.589  0.00  0.00    +0.000 F 
ENDBRANCH  20  21
ENDBRANCH   6  15
TORSDOF 3
ENDMDL
MODEL 2
REMARK VINA RESULT:      -7.4      2.408      3.197
REMARK  Name = 
REMARK  4 active torsions:
REMARK  status: ('A' for Active; 'I' for Inactive)
REMARK    1  A    between atoms: C_1  and  N_2
REMARK    2  A    between atoms: C_3  and  C_4
REMARK    3  A    between atoms: C_14  and  C_15
REMARK    4  A    between atoms: C_20  and  C_21
REMARK                            x       y       z     vdW  Elec       q    Type
REMARK                         _______ _______ _______ _____ _____    ______ ____
ROOT
ATOM      1  C   UNL     1       2.624   8.360  17.805  0.00  0.00    +0.000 C 
ATOM      2  N   UNL     1       2.148   7.883  19.081  0.00  0.00    +0.000 N 
ATOM      3  C   UNL     1       1.301   8.540  19.956  0.00  0.00    +0.000 A 
ATOM      4  N   UNL     1       1.037   7.712  20.949  0.00  0.00    +0.000 NA
ATOM      5  N   UNL     1       1.744   6.553  20.765  0.00  0.00    +0.000 NA
ATOM      6  C   UNL     1       2.431   6.649  19.646  0.00  0.00    +0.000 A 
ENDROOT
BRANCH   3   7
ATOM      7  C   UNL     1       0.814   9.926  19.861  0.00  0.00    +0.000 A 
ATOM      8  C   UNL     1       1.202  10.865  20.837  0.00  0.00    +0.000 A 
ATOM      9  C   UNL     1       0.747  12.187  20.797  0.00  0.00    +0.000 A 
ATOM     10  C   UNL     1      -0.138  12.584  19.804  0.00  0.00    +0.000 A 
ATOM     11 CL   UNL     1      -0.699  14.208  19.759  0.00  0.00    +0.000 Cl
ATOM     12  C   UNL     1      -0.565  11.674  18.843  0.00  0.00    +0.000 A 
ATOM     13  C   UNL     1      -0.091  10.352  18.867  0.00  0.00    +0.000 A 
ATOM     14 CL   UNL     1      -0.653   9.314  17.602  0.00  0.00    +0.000 Cl
ENDBRANCH   3   7
BRANCH   6  15
ATOM     15  C   UNL     1       3.376   5.639  19.147  0.00  0.00    +0.000 A 
ATOM     16  C   UNL     1       4.757   5.876  19.325  0.00  0.00    +0.000 A 
ATOM     17  C   UNL     1       5.726   4.972  18.887  0.00  0.00    +0.000 A 
ATOM     18  C   UNL     1       5.340   3.784  18.301  0.00  0.00    +0.000 A 
ATOM     19  C   UNL     1       3.977   3.499  18.155  0.00  0.00    +0.000 A 
ATOM     20  C   UNL     1       2.979   4.417  18.565  0.00  0.00    +0.000 A 
BRANCH  20  21
ATOM     21  C   UNL     1       1.553   3.963  18.331  0.00  0.00    +0.000 C 
ATOM     22  F   UNL     1       0.708   3.990  19.388  0.00  0.00    +0.000 F 
ATOM     23  F   UNL     1       0.947   4.747  17.387  0.00  0.00    +0.000 F 
ATOM     24  F   UNL     1       1.499   2.698  17.821  0.00  0.00    +0.000 F 
ENDBRANCH  20  21
ENDBRANCH   6  15
TORSDOF 3
ENDMDL
MODEL 3
REMARK VINA RESULT:      -7.4      1.566      1.790
REMARK  Name = 
REMARK  4 active torsions:
REMARK  status: ('A' for Active; 'I' for Inactive)
REMARK    1  A    between atoms: C_1  and  N_2
REMARK    2  A    between atoms: C_3  and  C_4
REMARK    3  A    between atoms: C_14  and  C_15
REMARK    4  A    between atoms: C_20  and  C_21
REMARK                            x       y       z     vdW  Elec       q    Type
REMARK                         _______ _______ _______ _____ _____    ______ ____
ROOT
ATOM      1  C   UNL     1       1.632   7.448  20.461  0.00  0.00    +0.000 C 
ATOM      2  N   UNL     1       1.862   8.026  19.159  0.00  0.00    +0.000 N 
ATOM      3  C   UNL     1       1.489   9.286  18.726  0.00  0.00    +0.000 A 
ATOM      4  N   UNL     1       1.982   9.450  17.514  0.00  0.00    +0.000 NA
ATOM      5  N   UNL     1       2.616   8.298  17.129  0.00  0.00    +0.000 NA
ATOM      6  C   UNL     1       2.539   7.423  18.110  0.00  0.00    +0.000 A 
ENDROOT
BRANCH   3   7
ATOM      7  C   UNL     1       0.647  10.264  19.435  0.00  0.00    +0.000 A 
ATOM      8  C   UNL     1       1.121  10.852  20.624  0.00  0.00    +0.000 A 
ATOM      9  C   UNL     1       0.347  11.770  21.341  0.00  0.00    +0.000 A 
ATOM     10  C   UNL     1      -0.932  12.086  20.905  0.00  0.00    +0.000 A 
ATOM     11 CL   UNL     1      -1.883  13.211  21.789  0.00  0.00    +0.000 Cl
ATOM     12  C   UNL     1      -1.442  11.500  19.751  0.00  0.00    +0.000 A 
ATOM     13  C   UNL     1      -0.657  10.595  19.016  0.00  0.00    +0.000 A 
ATOM     14 CL   UNL     1      -1.372   9.957  17.576  0.00  0.00    +0.000 Cl
ENDBRANCH   3   7
BRANCH   6  15
ATOM     15  C   UNL     1       3.030   6.039  18.046  0.00  0.00    +0.000 A 
ATOM     16  C   UNL     1       2.190   5.013  18.530  0.00  0.00    +0.000 A 
ATOM     17  C   UNL     1       2.570   3.671  18.507  0.00  0.00    +0.000 A 
ATOM     18  C   UNL     1       3.783   3.312  17.955  0.00  0.00    +0.000 A 
ATOM     19  C   UNL     1       4.618   4.303  17.422  0.00  0.00    +0.000 A 
ATOM     20  C   UNL     1       4.262   5.674  17.464  0.00  0.00    +0.000 A 
BRANCH  20  21
ATOM     21  C   UNL     1       5.276   6.619  16.854  0.00  0.00    +0.000 C 
ATOM     22  F   UNL     1       5.628   7.707  17.577  0.00  0.00    +0.000 F 
ATOM     23  F   UNL     1       6.457   5.968  16.613  0.00  0.00    +0.000 F 
ATOM     24  F   UNL     1       4.875   7.076  15.632  0.00  0.00    +0.000 F 
ENDBRANCH  20  21
ENDBRANCH   6  15
TORSDOF 3
ENDMDL
MODEL 4
REMARK VINA RESULT:      -7.4      0.926      1.017
REMARK  Name = 
REMARK  4 active torsions:
REMARK  status: ('A' for Active; 'I' for Inactive)
REMARK    1  A    between atoms: C_1  and  N_2
REMARK    2  A    between atoms: C_3  and  C_4
REMARK    3  A    between atoms: C_14  and  C_15
REMARK    4  A    between atoms: C_20  and  C_21
REMARK                            x       y       z     vdW  Elec       q    Type
REMARK                         _______ _______ _______ _____ _____    ______ ____
ROOT
ATOM      1  C   UNL     1       1.826   6.193  20.516  0.00  0.00    +0.000 C 
ATOM      2  N   UNL     1       2.074   7.070  19.398  0.00  0.00    +0.000 N 
ATOM      3  C   UNL     1       1.749   8.411  19.299  0.00  0.00    +0.000 A 
ATOM      4  N   UNL     1       2.243   8.856  18.160  0.00  0.00    +0.000 NA
ATOM      5  N   UNL     1       2.830   7.815  17.490  0.00  0.00    +0.000 NA
ATOM      6  C   UNL     1       2.722   6.726  18.221  0.00  0.00    +0.000 A 
ENDROOT
BRANCH   3   7
ATOM      7  C   UNL     1       0.949   9.211  20.241  0.00  0.00    +0.000 A 
ATOM      8  C   UNL     1       1.206   9.115  21.623  0.00  0.00    +0.000 A 
ATOM      9  C   UNL     1       0.458   9.841  22.555  0.00  0.00    +0.000 A 
ATOM     10  C   UNL     1      -0.589  10.645  22.127  0.00  0.00    +0.000 A 
ATOM     11 CL   UNL     1      -1.510  11.532  23.274  0.00  0.00    +0.000 Cl
ATOM     12  C   UNL     1      -0.889  10.738  20.771  0.00  0.00    +0.000 A 
ATOM     13  C   UNL     1      -0.124  10.028  19.831  0.00  0.00    +0.000 A 
ATOM     14 CL   UNL     1      -0.556  10.248  18.171  0.00  0.00    +0.000 Cl
ENDBRANCH   3   7
BRANCH   6  15
ATOM     15  C   UNL     1       3.158   5.384  17.807  0.00  0.00    +0.000 A 
ATOM     16  C   UNL     1       2.254   4.312  17.969  0.00  0.00    +0.000 A 
ATOM     17  C   UNL     1       2.579   3.006  17.600  0.00  0.00    +0.000 A 
ATOM     18  C   UNL     1       3.801   2.744  17.014  0.00  0.00    +0.000 A 
ATOM     19  C   UNL     1       4.700   3.795  16.796  0.00  0.00    +0.000 A 
ATOM     20  C   UNL     1       4.400   5.122  17.192  0.00  0.00    +0.000 A 
BRANCH  20  21
ATOM     21  C   UNL     1       5.480   6.141  16.892  0.00  0.00    +0.000 C 
ATOM     22  F   UNL     1       5.856   6.965  17.897  0.00  0.00    +0.000 F 
ATOM     23  F   UNL     1       6.637   5.517  16.508  0.00  0.00    +0.000 F 
ATOM     24  F   UNL     1       5.148   6.940  15.837  0.00  0.00    +0.000 F 
ENDBRANCH  20  21
ENDBRANCH   6  15
TORSDOF 3
ENDMDL
MODEL 5
REMARK VINA RESULT:      -7.3      2.274      3.239
REMARK  Name = 
REMARK  4 active torsions:
REMARK  status: ('A' for Active; 'I' for Inactive)
REMARK    1  A    between atoms: C_1  and  N_2
REMARK    2  A    between atoms: C_3  and  C_4
REMARK    3  A    between atoms: C_14  and  C_15
REMARK    4  A    between atoms: C_20  and  C_21
REMARK                            x       y       z     vdW  Elec       q    Type
REMARK                         _______ _______ _______ _____ _____    ______ ____
ROOT
ATOM      1  C   UNL     1       2.397   8.506  17.595  0.00  0.00    +0.000 C 
ATOM      2  N   UNL     1       2.237   7.751  18.815  0.00  0.00    +0.000 N 
ATOM      3  C   UNL     1       1.473   8.093  19.916  0.00  0.00    +0.000 A 
ATOM      4  N   UNL     1       1.521   7.082  20.762  0.00  0.00    +0.000 NA
ATOM      5  N   UNL     1       2.351   6.116  20.257  0.00  0.00    +0.000 NA
ATOM      6  C   UNL     1       2.802   6.514  19.085  0.00  0.00    +0.000 A 
ENDROOT
BRANCH   3   7
ATOM      7  C   UNL     1       0.772   9.365  20.159  0.00  0.00    +0.000 A 
ATOM      8  C   UNL     1       0.115  10.009  19.093  0.00  0.00    +0.000 A 
ATOM      9  C   UNL     1      -0.546  11.228  19.274  0.00  0.00    +0.000 A 
ATOM     10  C   UNL     1      -0.527  11.847  20.517  0.00  0.00    +0.000 A 
ATOM     11 CL   UNL     1      -1.336  13.347  20.737  0.00  0.00    +0.000 Cl
ATOM     12  C   UNL     1       0.139  11.252  21.584  0.00  0.00    +0.000 A 
ATOM     13  C   UNL     1       0.783  10.016  21.410  0.00  0.00    +0.000 A 
ATOM     14 CL   UNL     1       1.545   9.347  22.811  0.00  0.00    +0.000 Cl
ENDBRANCH   3   7
BRANCH   6  15
ATOM     15  C   UNL     1       3.784   5.786  18.268  0.00  0.00    +0.000 A 
ATOM     16  C   UNL     1       5.092   6.309  18.178  0.00  0.00    +0.000 A 
ATOM     17  C   UNL     1       6.090   5.685  17.428  0.00  0.00    +0.000 A 
ATOM     18  C   UNL     1       5.820   4.494  16.786  0.00  0.00    +0.000 A 
ATOM     19  C   UNL     1       4.545   3.926  16.896  0.00  0.00    +0.000 A 
ATOM     20  C   UNL     1       3.510   4.560  17.627  0.00  0.00    +0.000 A 
BRANCH  20  21
ATOM     21  C   UNL     1       2.189   3.820  17.643  0.00  0.00    +0.000 C 
ATOM     22  F   UNL     1       1.090   4.499  17.240  0.00  0.00    +0.000 F 
ATOM     23  F   UNL     1       2.239   2.727  16.819  0.00  0.00    +0.000 F 
ATOM     24  F   UNL     1       1.903   3.313  18.877  0.00  0.00    +0.000 F 
ENDBRANCH  20  21
ENDBRANCH   6  15
TORSDOF 3
ENDMDL
MODEL 6
REMARK VINA RESULT:      -7.3      1.494      1.692
REMARK  Name = 
REMARK  4 active torsions:
REMARK  status: ('A' for Active; 'I' for Inactive)
REMARK    1  A    between atoms: C_1  and  N_2
REMARK    2  A    between atoms: C_3  and  C_4
REMARK    3  A    between atoms: C_14  and  C_15
REMARK    4  A    between atoms: C_20  and  C_21
REMARK                            x       y       z     vdW  Elec       q    Type
REMARK                         _______ _______ _______ _____ _____    ______ ____
ROOT
ATOM      1  C   UNL     1       1.966   7.130  20.640  0.00  0.00    +0.000 C 
ATOM      2  N   UNL     1       1.953   7.831  19.379  0.00  0.00    +0.000 N 
ATOM      3  C   UNL     1       1.554   9.136  19.152  0.00  0.00    +0.000 A 
ATOM      4  N   UNL     1       1.800   9.410  17.885  0.00  0.00    +0.000 NA
ATOM      5  N   UNL     1       2.295   8.289  17.272  0.00  0.00    +0.000 NA
ATOM      6  C   UNL     1       2.379   7.322  18.161  0.00  0.00    +0.000 A 
ENDROOT
BRANCH   3   7
ATOM      7  C   UNL     1       0.914  10.056  20.106  0.00  0.00    +0.000 A 
ATOM      8  C   UNL     1       0.077   9.537  21.113  0.00  0.00    +0.000 A 
ATOM      9  C   UNL     1      -0.567  10.376  22.028  0.00  0.00    +0.000 A 
ATOM     10  C   UNL     1      -0.419  11.752  21.928  0.00  0.00    +0.000 A 
ATOM     11 CL   UNL     1      -1.215  12.782  23.050  0.00  0.00    +0.000 Cl
ATOM     12  C   UNL     1       0.376  12.299  20.926  0.00  0.00    +0.000 A 
ATOM     13  C   UNL     1       1.043  11.457  20.020  0.00  0.00    +0.000 A 
ATOM     14 CL   UNL     1       2.038  12.239  18.840  0.00  0.00    +0.000 Cl
ENDBRANCH   3   7
BRANCH   6  15
ATOM     15  C   UNL     1       2.789   5.941  17.869  0.00  0.00    +0.000 A 
ATOM     16  C   UNL     1       1.879   4.902  18.162  0.00  0.00    +0.000 A 
ATOM     17  C   UNL     1       2.180   3.562  17.915  0.00  0.00    +0.000 A 
ATOM     18  C   UNL     1       3.381   3.227  17.324  0.00  0.00    +0.000 A 
ATOM     19  C   UNL     1       4.285   4.240  16.978  0.00  0.00    +0.000 A 
ATOM     20  C   UNL     1       4.010   5.603  17.249  0.00  0.00    +0.000 A 
BRANCH  20  21
ATOM     21  C   UNL     1       5.091   6.573  16.820  0.00  0.00    +0.000 C 
ATOM     22  F   UNL     1       5.399   7.579  17.671  0.00  0.00    +0.000 F 
ATOM     23  F   UNL     1       6.276   5.916  16.622  0.00  0.00    +0.000 F 
ATOM     24  F   UNL     1       4.809   7.152  15.617  0.00  0.00    +0.000 F 
ENDBRANCH  20  21
ENDBRANCH   6  15
TORSDOF 3
ENDMDL
MODEL 7
REMARK VINA RESULT:      -7.2      4.060      7.560
REMARK  Name = 
REMARK  4 active torsions:
REMARK  status: ('A' for Active; 'I' for Inactive)
REMARK    1  A    between atoms: C_1  and  N_2
REMARK    2  A    between atoms: C_3  and  C_4
REMARK    3  A    between atoms: C_14  and  C_15
REMARK    4  A    between atoms: C_20  and  C_21
REMARK                            x       y       z     vdW  Elec       q    Type
REMARK                         _______ _______ _______ _____ _____    ______ ____
ROOT
ATOM      1  C   UNL     1       2.129   6.643  20.380  0.00  0.00    +0.000 C 
ATOM      2  N   UNL     1       2.094   7.685  19.383  0.00  0.00    +0.000 N 
ATOM      3  C   UNL     1       2.721   7.684  18.150  0.00  0.00    +0.000 A 
ATOM      4  N   UNL     1       2.346   8.777  17.513  0.00  0.00    +0.000 NA
ATOM      5  N   UNL     1       1.535   9.516  18.333  0.00  0.00    +0.000 NA
ATOM      6  C   UNL     1       1.386   8.874  19.473  0.00  0.00    +0.000 A 
ENDROOT
BRANCH   3   7
ATOM      7  C   UNL     1       3.683   6.695  17.635  0.00  0.00    +0.000 A 
ATOM      8  C   UNL     1       4.989   7.105  17.306  0.00  0.00    +0.000 A 
ATOM      9  C   UNL     1       5.929   6.204  16.795  0.00  0.00    +0.000 A 
ATOM     10  C   UNL     1       5.567   4.885  16.563  0.00  0.00    +0.000 A 
ATOM     11 CL   UNL     1       6.721   3.780  15.931  0.00  0.00    +0.000 Cl
ATOM     12  C   UNL     1       4.275   4.454  16.848  0.00  0.00    +0.000 A 
ATOM     13  C   UNL     1       3.337   5.352  17.384  0.00  0.00    +0.000 A 
ATOM     14 CL   UNL     1       1.773   4.702  17.740  0.00  0.00    +0.000 Cl
ENDBRANCH   3   7
BRANCH   6  15
ATOM     15  C   UNL     1       0.652   9.386  20.640  0.00  0.00    +0.000 A 
ATOM     16  C   UNL     1       1.112   9.025  21.924  0.00  0.00    +0.000 A 
ATOM     17  C   UNL     1       0.481   9.466  23.089  0.00  0.00    +0.000 A 
ATOM     18  C   UNL     1      -0.600  10.319  23.001  0.00  0.00    +0.000 A 
ATOM     19  C   UNL     1      -1.050  10.733  21.741  0.00  0.00    +0.000 A 
ATOM     20  C   UNL     1      -0.441  10.272  20.547  0.00  0.00    +0.000 A 
BRANCH  20  21
ATOM     21  C   UNL     1      -1.050  10.807  19.268  0.00  0.00    +0.000 C 
ATOM     22  F   UNL     1      -1.426   9.906  18.331  0.00  0.00    +0.000 F 
ATOM     23  F   UNL     1      -2.190  11.518  19.538  0.00  0.00    +0.000 F 
ATOM     24  F   UNL     1      -0.224  11.697  18.644  0.00  0.00    +0.000 F 
ENDBRANCH  20  21
ENDBRANCH   6  15
TORSDOF 3
ENDMDL
MODEL 8
REMARK VINA RESULT:      -7.2      2.288      2.853
REMARK  Name = 
REMARK  4 active torsions:
REMARK  status: ('A' for Active; 'I' for Inactive)
REMARK    1  A    between atoms: C_1  and  N_2
REMARK    2  A    between atoms: C_3  and  C_4
REMARK    3  A    between atoms: C_14  and  C_15
REMARK    4  A    between atoms: C_20  and  C_21
REMARK                            x       y       z     vdW  Elec       q    Type
REMARK                         _______ _______ _______ _____ _____    ______ ____
ROOT
ATOM      1  C   UNL     1       1.857   7.386  20.621  0.00  0.00    +0.000 C 
ATOM      2  N   UNL     1       2.106   7.874  19.285  0.00  0.00    +0.000 N 
ATOM      3  C   UNL     1       1.592   9.019  18.704  0.00  0.00    +0.000 A 
ATOM      4  N   UNL     1       2.153   9.146  17.517  0.00  0.00    +0.000 NA
ATOM      5  N   UNL     1       2.975   8.073  17.293  0.00  0.00    +0.000 NA
ATOM      6  C   UNL     1       2.945   7.288  18.349  0.00  0.00    +0.000 A 
ENDROOT
BRANCH   3   7
ATOM      7  C   UNL     1       0.565   9.919  19.253  0.00  0.00    +0.000 A 
ATOM      8  C   UNL     1       0.778  10.533  20.502  0.00  0.00    +0.000 A 
ATOM      9  C   UNL     1      -0.180  11.378  21.071  0.00  0.00    +0.000 A 
ATOM     10  C   UNL     1      -1.387  11.593  20.420  0.00  0.00    +0.000 A 
ATOM     11 CL   UNL     1      -2.564  12.629  21.123  0.00  0.00    +0.000 Cl
ATOM     12  C   UNL     1      -1.642  10.978  19.199  0.00  0.00    +0.000 A 
ATOM     13  C   UNL     1      -0.672  10.147  18.615  0.00  0.00    +0.000 A 
ATOM     14 CL   UNL     1      -1.075   9.465  17.076  0.00  0.00    +0.000 Cl
ENDBRANCH   3   7
BRANCH   6  15
ATOM     15  C   UNL     1       3.633   5.993  18.458  0.00  0.00    +0.000 A 
ATOM     16  C   UNL     1       5.018   5.998  18.728  0.00  0.00    +0.000 A 
ATOM     17  C   UNL     1       5.753   4.818  18.851  0.00  0.00    +0.000 A 
ATOM     18  C   UNL     1       5.113   3.599  18.757  0.00  0.00    +0.000 A 
ATOM     19  C   UNL     1       3.730   3.563  18.538  0.00  0.00    +0.000 A 
ATOM     20  C   UNL     1       2.973   4.749  18.379  0.00  0.00    +0.000 A 
BRANCH  20  21
ATOM     21  C   UNL     1       1.492   4.539  18.142  0.00  0.00    +0.000 C 
ATOM     22  F   UNL     1       0.876   5.366  17.266  0.00  0.00    +0.000 F 
ATOM     23  F   UNL     1       1.257   3.282  17.650  0.00  0.00    +0.000 F 
ATOM     24  F   UNL     1       0.776   4.598  19.302  0.00  0.00    +0.000 F 
ENDBRANCH  20  21
ENDBRANCH   6  15
TORSDOF 3
ENDMDL
MODEL 9
REMARK VINA RESULT:      -7.1      1.832      2.566
REMARK  Name = 
REMARK  4 active torsions:
REMARK  status: ('A' for Active; 'I' for Inactive)
REMARK    1  A    between atoms: C_1  and  N_2
REMARK    2  A    between atoms: C_3  and  C_4
REMARK    3  A    between atoms: C_14  and  C_15
REMARK    4  A    between atoms: C_20  and  C_21
REMARK                            x       y       z     vdW  Elec       q    Type
REMARK                         _______ _______ _______ _____ _____    ______ ____
ROOT
ATOM      1  C   UNL     1       4.008   7.958  17.511  0.00  0.00    +0.000 C 
ATOM      2  N   UNL     1       3.487   6.767  18.136  0.00  0.00    +0.000 N 
ATOM      3  C   UNL     1       2.501   6.692  19.103  0.00  0.00    +0.000 A 
ATOM      4  N   UNL     1       2.255   5.415  19.321  0.00  0.00    +0.000 NA
ATOM      5  N   UNL     1       3.104   4.659  18.556  0.00  0.00    +0.000 NA
ATOM      6  C   UNL     1       3.865   5.464  17.845  0.00  0.00    +0.000 A 
ENDROOT
BRANCH   3   7
ATOM      7  C   UNL     1       1.866   7.809  19.823  0.00  0.00    +0.000 A 
ATOM      8  C   UNL     1       1.839   7.799  21.230  0.00  0.00    +0.000 A 
ATOM      9  C   UNL     1       1.229   8.829  21.954  0.00  0.00    +0.000 A 
ATOM     10  C   UNL     1       0.598   9.867  21.282  0.00  0.00    +0.000 A 
ATOM     11 CL   UNL     1      -0.155  11.129  22.173  0.00  0.00    +0.000 Cl
ATOM     12  C   UNL     1       0.580   9.890  19.891  0.00  0.00    +0.000 A 
ATOM     13  C   UNL     1       1.213   8.870  19.163  0.00  0.00    +0.000 A 
ATOM     14 CL   UNL     1       1.166   9.019  17.440  0.00  0.00    +0.000 Cl
ENDBRANCH   3   7
BRANCH   6  15
ATOM     15  C   UNL     1       4.958   5.031  16.963  0.00  0.00    +0.000 A 
ATOM     16  C   UNL     1       4.623   4.536  15.684  0.00  0.00    +0.000 A 
ATOM     17  C   UNL     1       5.594   4.105  14.778  0.00  0.00    +0.000 A 
ATOM     18  C   UNL     1       6.931   4.204  15.109  0.00  0.00    +0.000 A 
ATOM     19  C   UNL     1       7.296   4.737  16.351  0.00  0.00    +0.000 A 
ATOM     20  C   UNL     1       6.324   5.150  17.296  0.00  0.00    +0.000 A 
BRANCH  20  21
ATOM     21  C   UNL     1       6.881   5.696  18.594  0.00  0.00    +0.000 C 
ATOM     22  F   UNL     1       6.128   5.546  19.708  0.00  0.00    +0.000 F 
ATOM     23  F   UNL     1       8.071   5.091  18.899  0.00  0.00    +0.000 F 
ATOM     24  F   UNL     1       7.180   7.024  18.501  0.00  0.00    +0.000 F 
ENDBRANCH  20  21
ENDBRANCH   6  15
TORSDOF 3
ENDMDL
