MODEL 1
REMARK VINA RESULT:      -8.2      0.000      0.000
REMARK  Name = 
REMARK  2 active torsions:
REMARK  status: ('A' for Active; 'I' for Inactive)
REMARK    1  A    between atoms: C_2  and  C_3
REMARK    2  A    between atoms: C_2  and  C_11
REMARK                            x       y       z     vdW  Elec       q    Type
REMARK                         _______ _______ _______ _____ _____    ______ ____
ROOT
ATOM      1  C   UNL     1       4.828   3.893  16.243  0.00  0.00    +0.000 C 
ATOM      2  C   UNL     1       4.652   4.935  17.074  0.00  0.00    +0.000 C 
ENDROOT
BRANCH   2   3
ATOM      3  C   UNL     1       3.307   5.438  17.593  0.00  0.00    +0.000 C 
ATOM      4  C   UNL     1       2.150   4.427  17.607  0.00  0.00    +0.000 C 
ATOM      5  O   UNL     1       2.380   3.366  18.541  0.00  0.00    +0.000 OA
ATOM      6  C   UNL     1       2.747   3.852  19.843  0.00  0.00    +0.000 C 
ATOM      7  C   UNL     1       3.344   2.654  20.617  0.00  0.00    +0.000 C 
ATOM      8  C   UNL     1       2.391   2.355  21.770  0.00  0.00    +0.000 C 
ATOM      9  C   UNL     1       1.071   2.956  21.332  0.00  0.00    +0.000 C 
ATOM     10  C   UNL     1       1.504   4.255  20.655  0.00  0.00    +0.000 C 
ATOM     11  O   UNL     1       3.777   4.850  19.810  0.00  0.00    +0.000 OA
ATOM     12  O   UNL     1       3.366   5.952  18.937  0.00  0.00    +0.000 OA
ENDBRANCH   2   3
BRANCH   2  13
ATOM     13  C   UNL     1       5.882   5.669  17.439  0.00  0.00    +0.000 A 
ATOM     14  C   UNL     1       6.097   6.966  16.947  0.00  0.00    +0.000 A 
ATOM     15  C   UNL     1       7.149   7.749  17.432  0.00  0.00    +0.000 A 
ATOM     16  C   UNL     1       7.989   7.235  18.413  0.00  0.00    +0.000 A 
ATOM     17  F   UNL     1       8.970   8.003  18.909  0.00  0.00    +0.000 F 
ATOM     18  C   UNL     1       7.799   5.945  18.889  0.00  0.00    +0.000 A 
ATOM     19  F   UNL     1       8.600   5.459  19.850  0.00  0.00    +0.000 F 
ATOM     20  C   UNL     1       6.751   5.156  18.413  0.00  0.00    +0.000 A 
ENDBRANCH   2  13
TORSDOF 2
ENDMDL
MODEL 2
REMARK VINA RESULT:      -7.7      0.662      1.519
REMARK  Name = 
REMARK  2 active torsions:
REMARK  status: ('A' for Active; 'I' for Inactive)
REMARK    1  A    between atoms: C_2  and  C_3
REMARK    2  A    between atoms: C_2  and  C_11
REMARK                            x       y       z     vdW  Elec       q    Type
REMARK                         _______ _______ _______ _____ _____    ______ ____
ROOT
ATOM      1  C   UNL     1       5.264   3.821  16.274  0.00  0.00    +0.000 C 
ATOM      2  C   UNL     1       4.797   4.797  17.071  0.00  0.00    +0.000 C 
ENDROOT
BRANCH   2   3
ATOM      3  C   UNL     1       3.323   5.105  17.324  0.00  0.00    +0.000 C 
ATOM      4  C   UNL     1       2.362   3.907  17.358  0.00  0.00    +0.000 C 
ATOM      5  O   UNL     1       2.618   3.050  18.478  0.00  0.00    +0.000 OA
ATOM      6  C   UNL     1       2.693   3.775  19.717  0.00  0.00    +0.000 C 
ATOM      7  C   UNL     1       3.355   2.832  20.749  0.00  0.00    +0.000 C 
ATOM      8  C   UNL     1       2.297   2.524  21.805  0.00  0.00    +0.000 C 
ATOM      9  C   UNL     1       0.980   2.798  21.109  0.00  0.00    +0.000 C 
ATOM     10  C   UNL     1       1.290   4.046  20.286  0.00  0.00    +0.000 C 
ATOM     11  O   UNL     1       3.535   4.935  19.649  0.00  0.00    +0.000 OA
ATOM     12  O   UNL     1       3.086   5.805  18.560  0.00  0.00    +0.000 OA
ENDBRANCH   2   3
BRANCH   2  13
ATOM     13  C   UNL     1       5.826   5.663  17.682  0.00  0.00    +0.000 A 
ATOM     14  C   UNL     1       6.698   5.141  18.651  0.00  0.00    +0.000 A 
ATOM     15  C   UNL     1       7.797   5.882  19.096  0.00  0.00    +0.000 A 
ATOM     16  C   UNL     1       8.027   7.148  18.572  0.00  0.00    +0.000 A 
ATOM     17  F   UNL     1       9.106   7.839  18.966  0.00  0.00    +0.000 F 
ATOM     18  C   UNL     1       7.158   7.683  17.631  0.00  0.00    +0.000 A 
ATOM     19  F   UNL     1       7.393   8.898  17.112  0.00  0.00    +0.000 F 
ATOM     20  C   UNL     1       6.059   6.951  17.178  0.00  0.00    +0.000 A 
ENDBRANCH   2  13
TORSDOF 2
ENDMDL
MODEL 3
REMARK VINA RESULT:      -7.6      3.030      4.013
REMARK  Name = 
REMARK  2 active torsions:
REMARK  status: ('A' for Active; 'I' for Inactive)
REMARK    1  A    between atoms: C_2  and  C_3
REMARK    2  A    between atoms: C_2  and  C_11
REMARK                            x       y       z     vdW  Elec       q    Type
REMARK                         _______ _______ _______ _____ _____    ______ ____
ROOT
ATOM      1  C   UNL     1       4.532   6.405  16.655  0.00  0.00    +0.000 C 
ATOM      2  C   UNL     1       5.268   5.283  16.725  0.00  0.00    +0.000 C 
ENDROOT
BRANCH   2   3
ATOM      3  C   UNL     1       5.586   4.508  18.001  0.00  0.00    +0.000 C 
ATOM      4  C   UNL     1       5.211   5.183  19.330  0.00  0.00    +0.000 C 
ATOM      5  O   UNL     1       3.792   5.312  19.481  0.00  0.00    +0.000 OA
ATOM      6  C   UNL     1       3.100   4.076  19.238  0.00  0.00    +0.000 C 
ATOM      7  C   UNL     1       1.608   4.429  19.037  0.00  0.00    +0.000 C 
ATOM      8  C   UNL     1       0.848   3.810  20.206  0.00  0.00    +0.000 C 
ATOM      9  C   UNL     1       1.898   3.628  21.282  0.00  0.00    +0.000 C 
ATOM     10  C   UNL     1       3.119   3.175  20.485  0.00  0.00    +0.000 C 
ATOM     11  O   UNL     1       3.514   3.419  18.031  0.00  0.00    +0.000 OA
ATOM     12  O   UNL     1       4.964   3.211  18.056  0.00  0.00    +0.000 OA
ENDBRANCH   2   3
BRANCH   2  13
ATOM     13  C   UNL     1       5.856   4.831  15.447  0.00  0.00    +0.000 A 
ATOM     14  C   UNL     1       5.117   4.001  14.589  0.00  0.00    +0.000 A 
ATOM     15  C   UNL     1       5.572   3.723  13.296  0.00  0.00    +0.000 A 
ATOM     16  C   UNL     1       6.769   4.276  12.858  0.00  0.00    +0.000 A 
ATOM     17  F   UNL     1       7.182   4.046  11.603  0.00  0.00    +0.000 F 
ATOM     18  C   UNL     1       7.519   5.079  13.706  0.00  0.00    +0.000 A 
ATOM     19  F   UNL     1       8.664   5.628  13.274  0.00  0.00    +0.000 F 
ATOM     20  C   UNL     1       7.073   5.365  14.998  0.00  0.00    +0.000 A 
ENDBRANCH   2  13
TORSDOF 2
ENDMDL
MODEL 4
REMARK VINA RESULT:      -7.5      3.293      4.220
REMARK  Name = 
REMARK  2 active torsions:
REMARK  status: ('A' for Active; 'I' for Inactive)
REMARK    1  A    between atoms: C_2  and  C_3
REMARK    2  A    between atoms: C_2  and  C_11
REMARK                            x       y       z     vdW  Elec       q    Type
REMARK                         _______ _______ _______ _____ _____    ______ ____
ROOT
ATOM      1  C   UNL     1       4.646   6.538  16.945  0.00  0.00    +0.000 C 
ATOM      2  C   UNL     1       5.254   5.350  16.780  0.00  0.00    +0.000 C 
ENDROOT
BRANCH   2   3
ATOM      3  C   UNL     1       5.549   4.343  17.889  0.00  0.00    +0.000 C 
ATOM      4  C   UNL     1       5.382   4.838  19.333  0.00  0.00    +0.000 C 
ATOM      5  O   UNL     1       4.013   5.132  19.641  0.00  0.00    +0.000 OA
ATOM      6  C   UNL     1       3.129   4.056  19.285  0.00  0.00    +0.000 C 
ATOM      7  C   UNL     1       1.695   4.636  19.287  0.00  0.00    +0.000 C 
ATOM      8  C   UNL     1       0.942   3.944  20.420  0.00  0.00    +0.000 C 
ATOM      9  C   UNL     1       2.032   3.450  21.348  0.00  0.00    +0.000 C 
ATOM     10  C   UNL     1       3.108   2.971  20.376  0.00  0.00    +0.000 C 
ATOM     11  O   UNL     1       3.347   3.553  17.959  0.00  0.00    +0.000 OA
ATOM     12  O   UNL     1       4.747   3.150  17.810  0.00  0.00    +0.000 OA
ENDBRANCH   2   3
BRANCH   2  13
ATOM     13  C   UNL     1       5.720   5.062  15.407  0.00  0.00    +0.000 A 
ATOM     14  C   UNL     1       7.070   5.246  15.071  0.00  0.00    +0.000 A 
ATOM     15  C   UNL     1       7.569   4.797  13.844  0.00  0.00    +0.000 A 
ATOM     16  C   UNL     1       6.716   4.162  12.950  0.00  0.00    +0.000 A 
ATOM     17  F   UNL     1       7.205   3.691  11.793  0.00  0.00    +0.000 F 
ATOM     18  C   UNL     1       5.374   3.995  13.263  0.00  0.00    +0.000 A 
ATOM     19  F   UNL     1       4.558   3.363  12.406  0.00  0.00    +0.000 F 
ATOM     20  C   UNL     1       4.866   4.438  14.485  0.00  0.00    +0.000 A 
ENDBRANCH   2  13
TORSDOF 2
ENDMDL
MODEL 5
REMARK VINA RESULT:      -7.3      3.265      4.303
REMARK  Name = 
REMARK  2 active torsions:
REMARK  status: ('A' for Active; 'I' for Inactive)
REMARK    1  A    between atoms: C_2  and  C_3
REMARK    2  A    between atoms: C_2  and  C_11
REMARK                            x       y       z     vdW  Elec       q    Type
REMARK                         _______ _______ _______ _____ _____    ______ ____
ROOT
ATOM      1  C   UNL     1       5.082   6.204  16.447  0.00  0.00    +0.000 C 
ATOM      2  C   UNL     1       5.189   4.894  16.163  0.00  0.00    +0.000 C 
ENDROOT
BRANCH   2   3
ATOM      3  C   UNL     1       4.698   3.752  17.049  0.00  0.00    +0.000 C 
ATOM      4  C   UNL     1       5.077   3.819  18.537  0.00  0.00    +0.000 C 
ATOM      5  O   UNL     1       4.441   4.920  19.199  0.00  0.00    +0.000 OA
ATOM      6  C   UNL     1       3.026   4.964  18.954  0.00  0.00    +0.000 C 
ATOM      7  C   UNL     1       2.542   6.373  19.369  0.00  0.00    +0.000 C 
ATOM      8  C   UNL     1       1.618   6.185  20.568  0.00  0.00    +0.000 C 
ATOM      9  C   UNL     1       2.015   4.841  21.142  0.00  0.00    +0.000 C 
ATOM     10  C   UNL     1       2.270   4.005  19.890  0.00  0.00    +0.000 C 
ATOM     11  O   UNL     1       2.683   4.824  17.567  0.00  0.00    +0.000 OA
ATOM     12  O   UNL     1       3.268   3.590  17.038  0.00  0.00    +0.000 OA
ENDBRANCH   2   3
BRANCH   2  13
ATOM     13  C   UNL     1       5.908   4.574  14.912  0.00  0.00    +0.000 A 
ATOM     14  C   UNL     1       5.315   3.731  13.958  0.00  0.00    +0.000 A 
ATOM     15  C   UNL     1       5.886   3.573  12.692  0.00  0.00    +0.000 A 
ATOM     16  C   UNL     1       7.054   4.258  12.377  0.00  0.00    +0.000 A 
ATOM     17  F   UNL     1       7.576   4.140  11.147  0.00  0.00    +0.000 F 
ATOM     18  C   UNL     1       7.661   5.074  13.321  0.00  0.00    +0.000 A 
ATOM     19  F   UNL     1       8.777   5.750  13.007  0.00  0.00    +0.000 F 
ATOM     20  C   UNL     1       7.098   5.242  14.587  0.00  0.00    +0.000 A 
ENDBRANCH   2  13
TORSDOF 2
ENDMDL
MODEL 6
REMARK VINA RESULT:      -7.3      1.443      2.541
REMARK  Name = 
REMARK  2 active torsions:
REMARK  status: ('A' for Active; 'I' for Inactive)
REMARK    1  A    between atoms: C_2  and  C_3
REMARK    2  A    between atoms: C_2  and  C_11
REMARK                            x       y       z     vdW  Elec       q    Type
REMARK                         _______ _______ _______ _____ _____    ______ ____
ROOT
ATOM      1  C   UNL     1       5.369   4.191  15.151  0.00  0.00    +0.000 C 
ATOM      2  C   UNL     1       5.217   4.157  16.486  0.00  0.00    +0.000 C 
ENDROOT
BRANCH   2   3
ATOM      3  C   UNL     1       4.219   3.284  17.244  0.00  0.00    +0.000 C 
ATOM      4  C   UNL     1       4.367   3.234  18.772  0.00  0.00    +0.000 C 
ATOM      5  O   UNL     1       4.079   4.500  19.378  0.00  0.00    +0.000 OA
ATOM      6  C   UNL     1       2.829   5.050  18.930  0.00  0.00    +0.000 C 
ATOM      7  C   UNL     1       2.829   6.544  19.326  0.00  0.00    +0.000 C 
ATOM      8  C   UNL     1       1.729   6.724  20.368  0.00  0.00    +0.000 C 
ATOM      9  C   UNL     1       1.524   5.336  20.939  0.00  0.00    +0.000 C 
ATOM     10  C   UNL     1       1.647   4.445  19.706  0.00  0.00    +0.000 C 
ATOM     11  O   UNL     1       2.672   5.022  17.503  0.00  0.00    +0.000 OA
ATOM     12  O   UNL     1       2.846   3.651  17.017  0.00  0.00    +0.000 OA
ENDBRANCH   2   3
BRANCH   2  13
ATOM     13  C   UNL     1       6.059   5.106  17.244  0.00  0.00    +0.000 A 
ATOM     14  C   UNL     1       7.054   4.625  18.109  0.00  0.00    +0.000 A 
ATOM     15  C   UNL     1       7.985   5.497  18.682  0.00  0.00    +0.000 A 
ATOM     16  C   UNL     1       7.922   6.855  18.389  0.00  0.00    +0.000 A 
ATOM     17  F   UNL     1       8.843   7.684  18.902  0.00  0.00    +0.000 F 
ATOM     18  C   UNL     1       6.928   7.343  17.553  0.00  0.00    +0.000 A 
ATOM     19  F   UNL     1       6.882   8.651  17.256  0.00  0.00    +0.000 F 
ATOM     20  C   UNL     1       5.995   6.481  16.974  0.00  0.00    +0.000 A 
ENDBRANCH   2  13
TORSDOF 2
ENDMDL
MODEL 7
REMARK VINA RESULT:      -7.3      3.246      6.076
REMARK  Name = 
REMARK  2 active torsions:
REMARK  status: ('A' for Active; 'I' for Inactive)
REMARK    1  A    between atoms: C_2  and  C_3
REMARK    2  A    between atoms: C_2  and  C_11
REMARK                            x       y       z     vdW  Elec       q    Type
REMARK                         _______ _______ _______ _____ _____    ______ ____
ROOT
ATOM      1  C   UNL     1       3.580   7.037  17.885  0.00  0.00    +0.000 C 
ATOM      2  C   UNL     1       4.504   6.067  17.779  0.00  0.00    +0.000 C 
ENDROOT
BRANCH   2   3
ATOM      3  C   UNL     1       5.928   6.252  17.259  0.00  0.00    +0.000 C 
ATOM      4  C   UNL     1       6.752   4.975  17.035  0.00  0.00    +0.000 C 
ATOM      5  O   UNL     1       6.218   4.174  15.974  0.00  0.00    +0.000 OA
ATOM      6  C   UNL     1       5.983   4.936  14.778  0.00  0.00    +0.000 C 
ATOM      7  C   UNL     1       5.060   4.083  13.877  0.00  0.00    +0.000 C 
ATOM      8  C   UNL     1       5.872   3.712  12.640  0.00  0.00    +0.000 C 
ATOM      9  C   UNL     1       7.314   3.850  13.082  0.00  0.00    +0.000 C 
ATOM     10  C   UNL     1       7.276   5.099  13.961  0.00  0.00    +0.000 C 
ATOM     11  O   UNL     1       5.277   6.163  15.012  0.00  0.00    +0.000 OA
ATOM     12  O   UNL     1       5.996   6.961  16.008  0.00  0.00    +0.000 OA
ENDBRANCH   2   3
BRANCH   2  13
ATOM     13  C   UNL     1       4.044   4.711  18.141  0.00  0.00    +0.000 A 
ATOM     14  C   UNL     1       3.216   3.992  17.264  0.00  0.00    +0.000 A 
ATOM     15  C   UNL     1       2.931   2.643  17.494  0.00  0.00    +0.000 A 
ATOM     16  C   UNL     1       3.475   2.008  18.604  0.00  0.00    +0.000 A 
ATOM     17  F   UNL     1       3.237   0.703  18.800  0.00  0.00    +0.000 F 
ATOM     18  C   UNL     1       4.275   2.715  19.491  0.00  0.00    +0.000 A 
ATOM     19  F   UNL     1       4.815   2.094  20.551  0.00  0.00    +0.000 F 
ATOM     20  C   UNL     1       4.568   4.062  19.269  0.00  0.00    +0.000 A 
ENDBRANCH   2  13
TORSDOF 2
ENDMDL
MODEL 8
REMARK VINA RESULT:      -7.2      1.450      2.366
REMARK  Name = 
REMARK  2 active torsions:
REMARK  status: ('A' for Active; 'I' for Inactive)
REMARK    1  A    between atoms: C_2  and  C_3
REMARK    2  A    between atoms: C_2  and  C_11
REMARK                            x       y       z     vdW  Elec       q    Type
REMARK                         _______ _______ _______ _____ _____    ______ ____
ROOT
ATOM      1  C   UNL     1       5.295   3.858  15.340  0.00  0.00    +0.000 C 
ATOM      2  C   UNL     1       5.306   4.059  16.669  0.00  0.00    +0.000 C 
ENDROOT
BRANCH   2   3
ATOM      3  C   UNL     1       4.352   3.415  17.672  0.00  0.00    +0.000 C 
ATOM      4  C   UNL     1       4.549   3.788  19.150  0.00  0.00    +0.000 C 
ATOM      5  O   UNL     1       4.252   5.168  19.396  0.00  0.00    +0.000 OA
ATOM      6  C   UNL     1       2.977   5.558  18.860  0.00  0.00    +0.000 C 
ATOM      7  C   UNL     1       2.957   7.104  18.831  0.00  0.00    +0.000 C 
ATOM      8  C   UNL     1       1.886   7.549  19.823  0.00  0.00    +0.000 C 
ATOM      9  C   UNL     1       1.729   6.369  20.760  0.00  0.00    +0.000 C 
ATOM     10  C   UNL     1       1.833   5.175  19.814  0.00  0.00    +0.000 C 
ATOM     11  O   UNL     1       2.776   5.139  17.502  0.00  0.00    +0.000 OA
ATOM     12  O   UNL     1       2.964   3.689  17.403  0.00  0.00    +0.000 OA
ENDBRANCH   2   3
BRANCH   2  13
ATOM     13  C   UNL     1       6.297   5.044  17.152  0.00  0.00    +0.000 A 
ATOM     14  C   UNL     1       6.221   6.380  16.730  0.00  0.00    +0.000 A 
ATOM     15  C   UNL     1       7.021   7.363  17.322  0.00  0.00    +0.000 A 
ATOM     16  C   UNL     1       7.899   7.009  18.339  0.00  0.00    +0.000 A 
ATOM     17  F   UNL     1       8.633   7.960  18.937  0.00  0.00    +0.000 F 
ATOM     18  C   UNL     1       7.998   5.687  18.748  0.00  0.00    +0.000 A 
ATOM     19  F   UNL     1       8.833   5.352  19.744  0.00  0.00    +0.000 F 
ATOM     20  C   UNL     1       7.203   4.698  18.166  0.00  0.00    +0.000 A 
ENDBRANCH   2  13
TORSDOF 2
ENDMDL
MODEL 9
REMARK VINA RESULT:      -7.1      3.235      6.070
REMARK  Name = 
REMARK  2 active torsions:
REMARK  status: ('A' for Active; 'I' for Inactive)
REMARK    1  A    between atoms: C_2  and  C_3
REMARK    2  A    between atoms: C_2  and  C_11
REMARK                            x       y       z     vdW  Elec       q    Type
REMARK                         _______ _______ _______ _____ _____    ______ ____
ROOT
ATOM      1  C   UNL     1       2.470   7.681  17.848  0.00  0.00    +0.000 C 
ATOM      2  C   UNL     1       3.209   6.675  18.345  0.00  0.00    +0.000 C 
ENDROOT
BRANCH   2   3
ATOM      3  C   UNL     1       4.735   6.621  18.366  0.00  0.00    +0.000 C 
ATOM      4  C   UNL     1       5.377   5.225  18.369  0.00  0.00    +0.000 C 
ATOM      5  O   UNL     1       5.135   4.524  17.143  0.00  0.00    +0.000 OA
ATOM      6  C   UNL     1       5.459   5.313  15.987  0.00  0.00    +0.000 C 
ATOM      7  C   UNL     1       4.793   4.624  14.773  0.00  0.00    +0.000 C 
ATOM      8  C   UNL     1       5.922   4.124  13.877  0.00  0.00    +0.000 C 
ATOM      9  C   UNL     1       7.118   4.022  14.802  0.00  0.00    +0.000 C 
ATOM     10  C   UNL     1       6.966   5.259  15.683  0.00  0.00    +0.000 C 
ATOM     11  O   UNL     1       4.915   6.640  16.032  0.00  0.00    +0.000 OA
ATOM     12  O   UNL     1       5.350   7.309  17.260  0.00  0.00    +0.000 OA
ENDBRANCH   2   3
BRANCH   2  13
ATOM     13  C   UNL     1       2.445   5.512  18.842  0.00  0.00    +0.000 A 
ATOM     14  C   UNL     1       1.860   4.616  17.932  0.00  0.00    +0.000 A 
ATOM     15  C   UNL     1       1.304   3.411  18.374  0.00  0.00    +0.000 A 
ATOM     16  C   UNL     1       1.331   3.100  19.728  0.00  0.00    +0.000 A 
ATOM     17  F   UNL     1       0.838   1.925  20.145  0.00  0.00    +0.000 F 
ATOM     18  C   UNL     1       1.885   3.990  20.638  0.00  0.00    +0.000 A 
ATOM     19  F   UNL     1       1.928   3.678  21.942  0.00  0.00    +0.000 F 
ATOM     20  C   UNL     1       2.446   5.194  20.208  0.00  0.00    +0.000 A 
ENDBRANCH   2  13
TORSDOF 2
ENDMDL
