MODEL 1
REMARK VINA RESULT:      -8.9      0.000      0.000
REMARK  Name = 
REMARK  6 active torsions:
REMARK  status: ('A' for Active; 'I' for Inactive)
REMARK    1  A    between atoms: C_2  and  C_3
REMARK    2  A    between atoms: C_8  and  O_9
REMARK    3  A    between atoms: O_9  and  C_10
REMARK    4  A    between atoms: C_12  and  O_13
REMARK    5  A    between atoms: O_13  and  C_14
REMARK    6  A    between atoms: C_14  and  C_15
REMARK                            x       y       z     vdW  Elec       q    Type
REMARK                         _______ _______ _______ _____ _____    ______ ____
ROOT
ATOM      1  C   UNL     1       3.885   3.764  19.466  0.00  0.00    +0.000 A 
ATOM      2  C   UNL     1       3.319   4.896  20.058  0.00  0.00    +0.000 A 
ATOM      3  C   UNL     1       1.938   5.008  20.217  0.00  0.00    +0.000 A 
ATOM      4  C   UNL     1       1.108   3.966  19.814  0.00  0.00    +0.000 A 
ATOM      5  C   UNL     1       1.671   2.788  19.310  0.00  0.00    +0.000 A 
ATOM      6  C   UNL     1       3.057   2.682  19.147  0.00  0.00    +0.000 A 
ATOM      7 CL   UNL     1       3.701   1.196  18.549  0.00  0.00    +0.000 Cl
ENDROOT
BRANCH   1   8
ATOM      8  O   UNL     1       5.239   3.662  19.220  0.00  0.00    +0.000 OA
BRANCH   8  14
ATOM      9  C   UNL     1       6.244   4.638  15.776  0.00  0.00    +0.000 A 
ATOM     10  C   UNL     1       6.893   5.842  16.063  0.00  0.00    +0.000 A 
ATOM     11  C   UNL     1       7.006   6.266  17.387  0.00  0.00    +0.000 A 
ATOM     12 CL   UNL     1       7.826   7.738  17.737  0.00  0.00    +0.000 Cl
ATOM     13  C   UNL     1       6.454   5.518  18.424  0.00  0.00    +0.000 A 
ATOM     14  C   UNL     1       5.780   4.331  18.141  0.00  0.00    +0.000 A 
ATOM     15  C   UNL     1       5.713   3.870  16.819  0.00  0.00    +0.000 A 
BRANCH   9  17
ATOM     16  N   UNL     1       6.005   3.833  13.323  0.00  0.00    +0.000 NA
ATOM     17  C   UNL     1       6.109   4.196  14.417  0.00  0.00    +0.000 C 
ENDBRANCH   9  17
ENDBRANCH   8  14
ENDBRANCH   1   8
BRANCH   3  18
ATOM     18  O   UNL     1       1.530   6.201  20.736  0.00  0.00    +0.000 OA
BRANCH  18  19
ATOM     19  C   UNL     1       2.009   7.368  20.071  0.00  0.00    +0.000 C 
BRANCH  19  20
ATOM     20  C   UNL     1       1.190   8.527  20.557  0.00  0.00    +0.000 A 
ATOM     21  N   UNL     1       0.664   8.590  21.763  0.00  0.00    +0.000 NA
ATOM     22  C   UNL     1      -0.041   9.771  21.911  0.00  0.00    +0.000 A 
ATOM     23  C   UNL     1      -0.733  10.173  23.071  0.00  0.00    +0.000 A 
ATOM     24  C   UNL     1      -1.409  11.396  23.089  0.00  0.00    +0.000 A 
ATOM     25  C   UNL     1      -1.402  12.220  21.968  0.00  0.00    +0.000 A 
ATOM     26  C   UNL     1      -0.727  11.841  20.803  0.00  0.00    +0.000 A 
ATOM     27  C   UNL     1      -0.051  10.609  20.795  0.00  0.00    +0.000 A 
ATOM     28  S   UNL     1       0.853   9.865  19.532  0.00  0.00    +0.000 S 
ENDBRANCH  19  20
ENDBRANCH  18  19
ENDBRANCH   3  18
TORSDOF 6
ENDMDL
MODEL 2
REMARK VINA RESULT:      -8.9      1.689      2.111
REMARK  Name = 
REMARK  6 active torsions:
REMARK  status: ('A' for Active; 'I' for Inactive)
REMARK    1  A    between atoms: C_2  and  C_3
REMARK    2  A    between atoms: C_8  and  O_9
REMARK    3  A    between atoms: O_9  and  C_10
REMARK    4  A    between atoms: C_12  and  O_13
REMARK    5  A    between atoms: O_13  and  C_14
REMARK    6  A    between atoms: C_14  and  C_15
REMARK                            x       y       z     vdW  Elec       q    Type
REMARK                         _______ _______ _______ _____ _____    ______ ____
ROOT
ATOM      1  C   UNL     1       3.790   3.721  19.470  0.00  0.00    +0.000 A 
ATOM      2  C   UNL     1       3.184   4.837  20.056  0.00  0.00    +0.000 A 
ATOM      3  C   UNL     1       1.804   4.886  20.245  0.00  0.00    +0.000 A 
ATOM      4  C   UNL     1       1.015   3.800  19.880  0.00  0.00    +0.000 A 
ATOM      5  C   UNL     1       1.621   2.640  19.383  0.00  0.00    +0.000 A 
ATOM      6  C   UNL     1       3.006   2.596  19.190  0.00  0.00    +0.000 A 
ATOM      7 CL   UNL     1       3.706   1.131  18.603  0.00  0.00    +0.000 Cl
ENDROOT
BRANCH   1   8
ATOM      8  O   UNL     1       5.141   3.679  19.195  0.00  0.00    +0.000 OA
BRANCH   8  14
ATOM      9  C   UNL     1       6.829   6.424  17.341  0.00  0.00    +0.000 A 
ATOM     10  C   UNL     1       6.664   5.951  16.037  0.00  0.00    +0.000 A 
ATOM     11  C   UNL     1       5.968   4.762  15.818  0.00  0.00    +0.000 A 
ATOM     12 CL   UNL     1       5.747   4.195  14.208  0.00  0.00    +0.000 Cl
ATOM     13  C   UNL     1       5.461   4.025  16.886  0.00  0.00    +0.000 A 
ATOM     14  C   UNL     1       5.650   4.478  18.191  0.00  0.00    +0.000 A 
ATOM     15  C   UNL     1       6.297   5.701  18.415  0.00  0.00    +0.000 A 
BRANCH   9  17
ATOM     16  N   UNL     1       8.133   8.623  17.779  0.00  0.00    +0.000 NA
ATOM     17  C   UNL     1       7.555   7.639  17.582  0.00  0.00    +0.000 C 
ENDBRANCH   9  17
ENDBRANCH   8  14
ENDBRANCH   1   8
BRANCH   3  18
ATOM     18  O   UNL     1       1.352   6.069  20.753  0.00  0.00    +0.000 OA
BRANCH  18  19
ATOM     19  C   UNL     1       2.038   7.240  20.316  0.00  0.00    +0.000 C 
BRANCH  19  20
ATOM     20  C   UNL     1       1.205   8.421  20.716  0.00  0.00    +0.000 A 
ATOM     21  N   UNL     1       0.694   8.576  21.920  0.00  0.00    +0.000 NA
ATOM     22  C   UNL     1      -0.030   9.753  21.980  0.00  0.00    +0.000 A 
ATOM     23  C   UNL     1      -0.712  10.240  23.112  0.00  0.00    +0.000 A 
ATOM     24  C   UNL     1      -1.410  11.449  23.038  0.00  0.00    +0.000 A 
ATOM     25  C   UNL     1      -1.433  12.176  21.852  0.00  0.00    +0.000 A 
ATOM     26  C   UNL     1      -0.766  11.712  20.713  0.00  0.00    +0.000 A 
ATOM     27  C   UNL     1      -0.069  10.495  20.798  0.00  0.00    +0.000 A 
ATOM     28  S   UNL     1       0.832   9.664  19.588  0.00  0.00    +0.000 S 
ENDBRANCH  19  20
ENDBRANCH  18  19
ENDBRANCH   3  18
TORSDOF 6
ENDMDL
MODEL 3
REMARK VINA RESULT:      -8.6      0.775      1.198
REMARK  Name = 
REMARK  6 active torsions:
REMARK  status: ('A' for Active; 'I' for Inactive)
REMARK    1  A    between atoms: C_2  and  C_3
REMARK    2  A    between atoms: C_8  and  O_9
REMARK    3  A    between atoms: O_9  and  C_10
REMARK    4  A    between atoms: C_12  and  O_13
REMARK    5  A    between atoms: O_13  and  C_14
REMARK    6  A    between atoms: C_14  and  C_15
REMARK                            x       y       z     vdW  Elec       q    Type
REMARK                         _______ _______ _______ _____ _____    ______ ____
ROOT
ATOM      1  C   UNL     1       3.857   3.875  19.505  0.00  0.00    +0.000 A 
ATOM      2  C   UNL     1       3.314   5.017  20.100  0.00  0.00    +0.000 A 
ATOM      3  C   UNL     1       1.936   5.157  20.257  0.00  0.00    +0.000 A 
ATOM      4  C   UNL     1       1.084   4.134  19.850  0.00  0.00    +0.000 A 
ATOM      5  C   UNL     1       1.623   2.946  19.344  0.00  0.00    +0.000 A 
ATOM      6  C   UNL     1       3.006   2.811  19.183  0.00  0.00    +0.000 A 
ATOM      7 CL   UNL     1       3.620   1.314  18.581  0.00  0.00    +0.000 Cl
ENDROOT
BRANCH   1   8
ATOM      8  O   UNL     1       5.208   3.745  19.261  0.00  0.00    +0.000 OA
BRANCH   8  14
ATOM      9  C   UNL     1       6.248   4.635  15.804  0.00  0.00    +0.000 A 
ATOM     10  C   UNL     1       6.896   5.844  16.068  0.00  0.00    +0.000 A 
ATOM     11  C   UNL     1       6.998   6.301  17.382  0.00  0.00    +0.000 A 
ATOM     12 CL   UNL     1       7.817   7.779  17.704  0.00  0.00    +0.000 Cl
ATOM     13  C   UNL     1       6.435   5.579  18.432  0.00  0.00    +0.000 A 
ATOM     14  C   UNL     1       5.761   4.386  18.171  0.00  0.00    +0.000 A 
ATOM     15  C   UNL     1       5.706   3.893  16.860  0.00  0.00    +0.000 A 
BRANCH   9  17
ATOM     16  N   UNL     1       6.021   3.771  13.370  0.00  0.00    +0.000 NA
ATOM     17  C   UNL     1       6.124   4.161  14.455  0.00  0.00    +0.000 C 
ENDBRANCH   9  17
ENDBRANCH   8  14
ENDBRANCH   1   8
BRANCH   3  18
ATOM     18  O   UNL     1       1.553   6.358  20.779  0.00  0.00    +0.000 OA
BRANCH  18  19
ATOM     19  C   UNL     1       2.011   7.516  20.085  0.00  0.00    +0.000 C 
BRANCH  19  20
ATOM     20  C   UNL     1       1.161   8.669  20.530  0.00  0.00    +0.000 A 
ATOM     21  N   UNL     1       0.598   9.520  19.697  0.00  0.00    +0.000 NA
ATOM     22  C   UNL     1      -0.112  10.474  20.404  0.00  0.00    +0.000 A 
ATOM     23  C   UNL     1      -0.841  11.540  19.838  0.00  0.00    +0.000 A 
ATOM     24  C   UNL     1      -1.516  12.439  20.669  0.00  0.00    +0.000 A 
ATOM     25  C   UNL     1      -1.474  12.286  22.051  0.00  0.00    +0.000 A 
ATOM     26  C   UNL     1      -0.755  11.240  22.637  0.00  0.00    +0.000 A 
ATOM     27  C   UNL     1      -0.078  10.342  21.793  0.00  0.00    +0.000 A 
ATOM     28  S   UNL     1       0.887   8.975  22.199  0.00  0.00    +0.000 S 
ENDBRANCH  19  20
ENDBRANCH  18  19
ENDBRANCH   3  18
TORSDOF 6
ENDMDL
MODEL 4
REMARK VINA RESULT:      -8.5      1.858      2.426
REMARK  Name = 
REMARK  6 active torsions:
REMARK  status: ('A' for Active; 'I' for Inactive)
REMARK    1  A    between atoms: C_2  and  C_3
REMARK    2  A    between atoms: C_8  and  O_9
REMARK    3  A    between atoms: O_9  and  C_10
REMARK    4  A    between atoms: C_12  and  O_13
REMARK    5  A    between atoms: O_13  and  C_14
REMARK    6  A    between atoms: C_14  and  C_15
REMARK                            x       y       z     vdW  Elec       q    Type
REMARK                         _______ _______ _______ _____ _____    ______ ____
ROOT
ATOM      1  C   UNL     1       3.793   3.827  19.528  0.00  0.00    +0.000 A 
ATOM      2  C   UNL     1       3.235   4.962  20.123  0.00  0.00    +0.000 A 
ATOM      3  C   UNL     1       1.858   5.071  20.308  0.00  0.00    +0.000 A 
ATOM      4  C   UNL     1       1.023   4.023  19.930  0.00  0.00    +0.000 A 
ATOM      5  C   UNL     1       1.580   2.843  19.425  0.00  0.00    +0.000 A 
ATOM      6  C   UNL     1       2.962   2.740  19.235  0.00  0.00    +0.000 A 
ATOM      7 CL   UNL     1       3.600   1.252  18.635  0.00  0.00    +0.000 Cl
ENDROOT
BRANCH   1   8
ATOM      8  O   UNL     1       5.142   3.728  19.256  0.00  0.00    +0.000 OA
BRANCH   8  14
ATOM      9  C   UNL     1       6.905   6.430  17.407  0.00  0.00    +0.000 A 
ATOM     10  C   UNL     1       6.776   5.935  16.107  0.00  0.00    +0.000 A 
ATOM     11  C   UNL     1       6.078   4.748  15.887  0.00  0.00    +0.000 A 
ATOM     12 CL   UNL     1       5.901   4.154  14.282  0.00  0.00    +0.000 Cl
ATOM     13  C   UNL     1       5.534   4.033  16.952  0.00  0.00    +0.000 A 
ATOM     14  C   UNL     1       5.687   4.507  18.255  0.00  0.00    +0.000 A 
ATOM     15  C   UNL     1       6.336   5.729  18.477  0.00  0.00    +0.000 A 
BRANCH   9  17
ATOM     16  N   UNL     1       8.215   8.623  17.853  0.00  0.00    +0.000 NA
ATOM     17  C   UNL     1       7.632   7.644  17.650  0.00  0.00    +0.000 C 
ENDBRANCH   9  17
ENDBRANCH   8  14
ENDBRANCH   1   8
BRANCH   3  18
ATOM     18  O   UNL     1       1.456   6.267  20.826  0.00  0.00    +0.000 OA
BRANCH  18  19
ATOM     19  C   UNL     1       2.034   7.429  20.236  0.00  0.00    +0.000 C 
BRANCH  19  20
ATOM     20  C   UNL     1       1.170   8.597  20.610  0.00  0.00    +0.000 A 
ATOM     21  N   UNL     1       0.510   9.323  19.731  0.00  0.00    +0.000 NA
ATOM     22  C   UNL     1      -0.187  10.329  20.376  0.00  0.00    +0.000 A 
ATOM     23  C   UNL     1      -1.000  11.294  19.750  0.00  0.00    +0.000 A 
ATOM     24  C   UNL     1      -1.652  12.262  20.522  0.00  0.00    +0.000 A 
ATOM     25  C   UNL     1      -1.501  12.276  21.905  0.00  0.00    +0.000 A 
ATOM     26  C   UNL     1      -0.696  11.331  22.549  0.00  0.00    +0.000 A 
ATOM     27  C   UNL     1      -0.045  10.364  21.764  0.00  0.00    +0.000 A 
ATOM     28  S   UNL     1       1.007   9.088  22.249  0.00  0.00    +0.000 S 
ENDBRANCH  19  20
ENDBRANCH  18  19
ENDBRANCH   3  18
TORSDOF 6
ENDMDL
MODEL 5
REMARK VINA RESULT:      -8.4      1.891      2.275
REMARK  Name = 
REMARK  6 active torsions:
REMARK  status: ('A' for Active; 'I' for Inactive)
REMARK    1  A    between atoms: C_2  and  C_3
REMARK    2  A    between atoms: C_8  and  O_9
REMARK    3  A    between atoms: O_9  and  C_10
REMARK    4  A    between atoms: C_12  and  O_13
REMARK    5  A    between atoms: O_13  and  C_14
REMARK    6  A    between atoms: C_14  and  C_15
REMARK                            x       y       z     vdW  Elec       q    Type
REMARK                         _______ _______ _______ _____ _____    ______ ____
ROOT
ATOM      1  C   UNL     1       2.912   3.958  18.419  0.00  0.00    +0.000 A 
ATOM      2  C   UNL     1       2.489   5.124  19.063  0.00  0.00    +0.000 A 
ATOM      3  C   UNL     1       2.057   5.094  20.388  0.00  0.00    +0.000 A 
ATOM      4  C   UNL     1       2.077   3.896  21.096  0.00  0.00    +0.000 A 
ATOM      5  C   UNL     1       2.590   2.743  20.492  0.00  0.00    +0.000 A 
ATOM      6  C   UNL     1       3.018   2.776  19.160  0.00  0.00    +0.000 A 
ATOM      7 CL   UNL     1       3.670   1.333  18.471  0.00  0.00    +0.000 Cl
ENDROOT
BRANCH   1   8
ATOM      8  O   UNL     1       3.266   3.943  17.085  0.00  0.00    +0.000 OA
BRANCH   8  14
ATOM      9  C   UNL     1       6.592   5.605  17.093  0.00  0.00    +0.000 A 
ATOM     10  C   UNL     1       7.025   5.250  15.813  0.00  0.00    +0.000 A 
ATOM     11  C   UNL     1       6.186   4.508  14.982  0.00  0.00    +0.000 A 
ATOM     12 CL   UNL     1       6.714   4.093  13.398  0.00  0.00    +0.000 Cl
ATOM     13  C   UNL     1       4.933   4.090  15.425  0.00  0.00    +0.000 A 
ATOM     14  C   UNL     1       4.508   4.416  16.713  0.00  0.00    +0.000 A 
ATOM     15  C   UNL     1       5.323   5.212  17.531  0.00  0.00    +0.000 A 
BRANCH   9  17
ATOM     16  N   UNL     1       8.149   6.962  18.661  0.00  0.00    +0.000 NA
ATOM     17  C   UNL     1       7.451   6.358  17.963  0.00  0.00    +0.000 C 
ENDBRANCH   9  17
ENDBRANCH   8  14
ENDBRANCH   1   8
BRANCH   3  18
ATOM     18  O   UNL     1       1.600   6.292  20.854  0.00  0.00    +0.000 OA
BRANCH  18  19
ATOM     19  C   UNL     1       2.020   7.446  20.129  0.00  0.00    +0.000 C 
BRANCH  19  20
ATOM     20  C   UNL     1       1.165   8.592  20.580  0.00  0.00    +0.000 A 
ATOM     21  N   UNL     1       0.659   8.688  21.793  0.00  0.00    +0.000 NA
ATOM     22  C   UNL     1      -0.089   9.846  21.903  0.00  0.00    +0.000 A 
ATOM     23  C   UNL     1      -0.775  10.272  23.058  0.00  0.00    +0.000 A 
ATOM     24  C   UNL     1      -1.499  11.468  23.036  0.00  0.00    +0.000 A 
ATOM     25  C   UNL     1      -1.544  12.242  21.881  0.00  0.00    +0.000 A 
ATOM     26  C   UNL     1      -0.875  11.838  20.720  0.00  0.00    +0.000 A 
ATOM     27  C   UNL     1      -0.152  10.634  20.753  0.00  0.00    +0.000 A 
ATOM     28  S   UNL     1       0.759   9.870  19.505  0.00  0.00    +0.000 S 
ENDBRANCH  19  20
ENDBRANCH  18  19
ENDBRANCH   3  18
TORSDOF 6
ENDMDL
MODEL 6
REMARK VINA RESULT:      -8.1      2.058      2.581
REMARK  Name = 
REMARK  6 active torsions:
REMARK  status: ('A' for Active; 'I' for Inactive)
REMARK    1  A    between atoms: C_2  and  C_3
REMARK    2  A    between atoms: C_8  and  O_9
REMARK    3  A    between atoms: O_9  and  C_10
REMARK    4  A    between atoms: C_12  and  O_13
REMARK    5  A    between atoms: O_13  and  C_14
REMARK    6  A    between atoms: C_14  and  C_15
REMARK                            x       y       z     vdW  Elec       q    Type
REMARK                         _______ _______ _______ _____ _____    ______ ____
ROOT
ATOM      1  C   UNL     1       2.642   3.960  18.460  0.00  0.00    +0.000 A 
ATOM      2  C   UNL     1       2.183   5.121  19.089  0.00  0.00    +0.000 A 
ATOM      3  C   UNL     1       1.616   5.071  20.361  0.00  0.00    +0.000 A 
ATOM      4  C   UNL     1       1.533   3.857  21.036  0.00  0.00    +0.000 A 
ATOM      5  C   UNL     1       2.078   2.705  20.457  0.00  0.00    +0.000 A 
ATOM      6  C   UNL     1       2.642   2.758  19.178  0.00  0.00    +0.000 A 
ATOM      7 CL   UNL     1       3.327   1.315  18.522  0.00  0.00    +0.000 Cl
ENDROOT
BRANCH   1   8
ATOM      8  O   UNL     1       3.132   3.967  17.170  0.00  0.00    +0.000 OA
BRANCH   8  14
ATOM      9  C   UNL     1       6.701   4.878  17.672  0.00  0.00    +0.000 A 
ATOM     10  C   UNL     1       7.150   4.768  16.353  0.00  0.00    +0.000 A 
ATOM     11  C   UNL     1       6.248   4.434  15.343  0.00  0.00    +0.000 A 
ATOM     12 CL   UNL     1       6.800   4.323  13.717  0.00  0.00    +0.000 Cl
ATOM     13  C   UNL     1       4.910   4.180  15.638  0.00  0.00    +0.000 A 
ATOM     14  C   UNL     1       4.464   4.259  16.957  0.00  0.00    +0.000 A 
ATOM     15  C   UNL     1       5.353   4.651  17.968  0.00  0.00    +0.000 A 
BRANCH   9  17
ATOM     16  N   UNL     1       8.362   5.482  19.570  0.00  0.00    +0.000 NA
ATOM     17  C   UNL     1       7.622   5.208  18.723  0.00  0.00    +0.000 C 
ENDBRANCH   9  17
ENDBRANCH   8  14
ENDBRANCH   1   8
BRANCH   3  18
ATOM     18  O   UNL     1       1.143   6.270  20.809  0.00  0.00    +0.000 OA
BRANCH  18  19
ATOM     19  C   UNL     1       1.919   7.416  20.466  0.00  0.00    +0.000 C 
BRANCH  19  20
ATOM     20  C   UNL     1       1.084   8.626  20.763  0.00  0.00    +0.000 A 
ATOM     21  N   UNL     1       0.481   9.338  19.834  0.00  0.00    +0.000 NA
ATOM     22  C   UNL     1      -0.202  10.392  20.414  0.00  0.00    +0.000 A 
ATOM     23  C   UNL     1      -0.960  11.358  19.723  0.00  0.00    +0.000 A 
ATOM     24  C   UNL     1      -1.602  12.377  20.433  0.00  0.00    +0.000 A 
ATOM     25  C   UNL     1      -1.498  12.442  21.819  0.00  0.00    +0.000 A 
ATOM     26  C   UNL     1      -0.748  11.497  22.527  0.00  0.00    +0.000 A 
ATOM     27  C   UNL     1      -0.106  10.478  21.804  0.00  0.00    +0.000 A 
ATOM     28  S   UNL     1       0.883   9.189  22.375  0.00  0.00    +0.000 S 
ENDBRANCH  19  20
ENDBRANCH  18  19
ENDBRANCH   3  18
TORSDOF 6
ENDMDL
MODEL 7
REMARK VINA RESULT:      -8.0      2.609      3.307
REMARK  Name = 
REMARK  6 active torsions:
REMARK  status: ('A' for Active; 'I' for Inactive)
REMARK    1  A    between atoms: C_2  and  C_3
REMARK    2  A    between atoms: C_8  and  O_9
REMARK    3  A    between atoms: O_9  and  C_10
REMARK    4  A    between atoms: C_12  and  O_13
REMARK    5  A    between atoms: O_13  and  C_14
REMARK    6  A    between atoms: C_14  and  C_15
REMARK                            x       y       z     vdW  Elec       q    Type
REMARK                         _______ _______ _______ _____ _____    ______ ____
ROOT
ATOM      1  C   UNL     1       2.697   5.702  19.000  0.00  0.00    +0.000 A 
ATOM      2  C   UNL     1       2.634   6.883  18.256  0.00  0.00    +0.000 A 
ATOM      3  C   UNL     1       2.018   8.023  18.771  0.00  0.00    +0.000 A 
ATOM      4  C   UNL     1       1.486   8.002  20.057  0.00  0.00    +0.000 A 
ATOM      5  C   UNL     1       1.631   6.856  20.847  0.00  0.00    +0.000 A 
ATOM      6  C   UNL     1       2.245   5.712  20.325  0.00  0.00    +0.000 A 
ATOM      7 CL   UNL     1       2.424   4.335  21.351  0.00  0.00    +0.000 Cl
ENDROOT
BRANCH   1   8
ATOM      8  O   UNL     1       3.225   4.536  18.485  0.00  0.00    +0.000 OA
BRANCH   8  14
ATOM      9  C   UNL     1       5.993   4.308  16.012  0.00  0.00    +0.000 A 
ATOM     10  C   UNL     1       7.050   4.739  16.816  0.00  0.00    +0.000 A 
ATOM     11  C   UNL     1       6.816   5.052  18.155  0.00  0.00    +0.000 A 
ATOM     12 CL   UNL     1       8.126   5.561  19.148  0.00  0.00    +0.000 Cl
ATOM     13  C   UNL     1       5.533   4.969  18.692  0.00  0.00    +0.000 A 
ATOM     14  C   UNL     1       4.469   4.568  17.885  0.00  0.00    +0.000 A 
ATOM     15  C   UNL     1       4.708   4.196  16.555  0.00  0.00    +0.000 A 
BRANCH   9  17
ATOM     16  N   UNL     1       6.391   3.739  13.513  0.00  0.00    +0.000 NA
ATOM     17  C   UNL     1       6.217   3.995  14.629  0.00  0.00    +0.000 C 
ENDBRANCH   9  17
ENDBRANCH   8  14
ENDBRANCH   1   8
BRANCH   3  18
ATOM     18  O   UNL     1       1.964   9.071  17.899  0.00  0.00    +0.000 OA
BRANCH  18  19
ATOM     19  C   UNL     1       1.782  10.359  18.482  0.00  0.00    +0.000 C 
BRANCH  19  20
ATOM     20  C   UNL     1       0.309  10.642  18.490  0.00  0.00    +0.000 A 
ATOM     21  N   UNL     1      -0.559   9.994  17.741  0.00  0.00    +0.000 NA
ATOM     22  C   UNL     1      -1.834  10.483  17.962  0.00  0.00    +0.000 A 
ATOM     23  C   UNL     1      -3.009  10.025  17.333  0.00  0.00    +0.000 A 
ATOM     24  C   UNL     1      -4.240  10.610  17.646  0.00  0.00    +0.000 A 
ATOM     25  C   UNL     1      -4.311  11.641  18.578  0.00  0.00    +0.000 A 
ATOM     26  C   UNL     1      -3.158  12.116  19.212  0.00  0.00    +0.000 A 
ATOM     27  C   UNL     1      -1.927  11.523  18.889  0.00  0.00    +0.000 A 
ATOM     28  S   UNL     1      -0.350  11.882  19.482  0.00  0.00    +0.000 S 
ENDBRANCH  19  20
ENDBRANCH  18  19
ENDBRANCH   3  18
TORSDOF 6
ENDMDL
MODEL 8
REMARK VINA RESULT:      -8.0      3.429      4.374
REMARK  Name = 
REMARK  6 active torsions:
REMARK  status: ('A' for Active; 'I' for Inactive)
REMARK    1  A    between atoms: C_2  and  C_3
REMARK    2  A    between atoms: C_8  and  O_9
REMARK    3  A    between atoms: O_9  and  C_10
REMARK    4  A    between atoms: C_12  and  O_13
REMARK    5  A    between atoms: O_13  and  C_14
REMARK    6  A    between atoms: C_14  and  C_15
REMARK                            x       y       z     vdW  Elec       q    Type
REMARK                         _______ _______ _______ _____ _____    ______ ____
ROOT
ATOM      1  C   UNL     1       2.459   6.243  18.760  0.00  0.00    +0.000 A 
ATOM      2  C   UNL     1       2.352   7.580  18.367  0.00  0.00    +0.000 A 
ATOM      3  C   UNL     1       1.791   8.534  19.214  0.00  0.00    +0.000 A 
ATOM      4  C   UNL     1       1.361   8.164  20.486  0.00  0.00    +0.000 A 
ATOM      5  C   UNL     1       1.554   6.850  20.926  0.00  0.00    +0.000 A 
ATOM      6  C   UNL     1       2.112   5.894  20.071  0.00  0.00    +0.000 A 
ATOM      7 CL   UNL     1       2.355   4.295  20.674  0.00  0.00    +0.000 Cl
ENDROOT
BRANCH   1   8
ATOM      8  O   UNL     1       2.933   5.263  17.912  0.00  0.00    +0.000 OA
BRANCH   8  14
ATOM      9  C   UNL     1       6.599   5.128  18.518  0.00  0.00    +0.000 A 
ATOM     10  C   UNL     1       7.023   4.727  17.248  0.00  0.00    +0.000 A 
ATOM     11  C   UNL     1       6.085   4.553  16.231  0.00  0.00    +0.000 A 
ATOM     12 CL   UNL     1       6.614   4.082  14.663  0.00  0.00    +0.000 Cl
ATOM     13  C   UNL     1       4.727   4.746  16.473  0.00  0.00    +0.000 A 
ATOM     14  C   UNL     1       4.296   5.118  17.746  0.00  0.00    +0.000 A 
ATOM     15  C   UNL     1       5.239   5.350  18.758  0.00  0.00    +0.000 A 
BRANCH   9  17
ATOM     16  N   UNL     1       8.318   5.427  20.436  0.00  0.00    +0.000 NA
ATOM     17  C   UNL     1       7.552   5.297  19.578  0.00  0.00    +0.000 C 
ENDBRANCH   9  17
ENDBRANCH   8  14
ENDBRANCH   1   8
BRANCH   3  18
ATOM     18  O   UNL     1       1.680   9.776  18.662  0.00  0.00    +0.000 OA
BRANCH  18  19
ATOM     19  C   UNL     1       0.939  10.732  19.417  0.00  0.00    +0.000 C 
BRANCH  19  20
ATOM     20  C   UNL     1      -0.411  10.858  18.777  0.00  0.00    +0.000 A 
ATOM     21  N   UNL     1      -0.701  10.365  17.590  0.00  0.00    +0.000 NA
ATOM     22  C   UNL     1      -2.016  10.649  17.268  0.00  0.00    +0.000 A 
ATOM     23  C   UNL     1      -2.667  10.274  16.075  0.00  0.00    +0.000 A 
ATOM     24  C   UNL     1      -4.005  10.626  15.873  0.00  0.00    +0.000 A 
ATOM     25  C   UNL     1      -4.697  11.344  16.844  0.00  0.00    +0.000 A 
ATOM     26  C   UNL     1      -4.072  11.731  18.034  0.00  0.00    +0.000 A 
ATOM     27  C   UNL     1      -2.727  11.373  18.226  0.00  0.00    +0.000 A 
ATOM     28  S   UNL     1      -1.688  11.701  19.560  0.00  0.00    +0.000 S 
ENDBRANCH  19  20
ENDBRANCH  18  19
ENDBRANCH   3  18
TORSDOF 6
ENDMDL
MODEL 9
REMARK VINA RESULT:      -7.9      4.738      9.356
REMARK  Name = 
REMARK  6 active torsions:
REMARK  status: ('A' for Active; 'I' for Inactive)
REMARK    1  A    between atoms: C_2  and  C_3
REMARK    2  A    between atoms: C_8  and  O_9
REMARK    3  A    between atoms: O_9  and  C_10
REMARK    4  A    between atoms: C_12  and  O_13
REMARK    5  A    between atoms: O_13  and  C_14
REMARK    6  A    between atoms: C_14  and  C_15
REMARK                            x       y       z     vdW  Elec       q    Type
REMARK                         _______ _______ _______ _____ _____    ______ ____
ROOT
ATOM      1  C   UNL     1      -0.543  11.014  20.824  0.00  0.00    +0.000 A 
ATOM      2  C   UNL     1       0.102   9.807  20.544  0.00  0.00    +0.000 A 
ATOM      3  C   UNL     1       0.426   8.913  21.563  0.00  0.00    +0.000 A 
ATOM      4  C   UNL     1       0.072   9.204  22.877  0.00  0.00    +0.000 A 
ATOM      5  C   UNL     1      -0.661  10.363  23.157  0.00  0.00    +0.000 A 
ATOM      6  C   UNL     1      -0.979  11.260  22.131  0.00  0.00    +0.000 A 
ATOM      7 CL   UNL     1      -1.910  12.660  22.525  0.00  0.00    +0.000 Cl
ENDROOT
BRANCH   1   8
ATOM      8  O   UNL     1      -0.801  11.954  19.847  0.00  0.00    +0.000 OA
BRANCH   8  14
ATOM      9  C   UNL     1      -2.934  11.142  16.912  0.00  0.00    +0.000 A 
ATOM     10  C   UNL     1      -4.188  11.418  17.462  0.00  0.00    +0.000 A 
ATOM     11  C   UNL     1      -4.279  11.897  18.768  0.00  0.00    +0.000 A 
ATOM     12 CL   UNL     1      -5.825  12.257  19.433  0.00  0.00    +0.000 Cl
ATOM     13  C   UNL     1      -3.135  12.077  19.542  0.00  0.00    +0.000 A 
ATOM     14  C   UNL     1      -1.882  11.775  19.009  0.00  0.00    +0.000 A 
ATOM     15  C   UNL     1      -1.780  11.348  17.677  0.00  0.00    +0.000 A 
BRANCH   9  17
ATOM     16  N   UNL     1      -2.740  10.235  14.491  0.00  0.00    +0.000 NA
ATOM     17  C   UNL     1      -2.827  10.636  15.573  0.00  0.00    +0.000 C 
ENDBRANCH   9  17
ENDBRANCH   8  14
ENDBRANCH   1   8
BRANCH   3  18
ATOM     18  O   UNL     1       1.124   7.818  21.145  0.00  0.00    +0.000 OA
BRANCH  18  19
ATOM     19  C   UNL     1       1.882   7.980  19.949  0.00  0.00    +0.000 C 
BRANCH  19  20
ATOM     20  C   UNL     1       2.274   6.610  19.480  0.00  0.00    +0.000 A 
ATOM     21  N   UNL     1       1.930   5.503  20.104  0.00  0.00    +0.000 NA
ATOM     22  C   UNL     1       2.446   4.404  19.440  0.00  0.00    +0.000 A 
ATOM     23  C   UNL     1       2.276   3.059  19.824  0.00  0.00    +0.000 A 
ATOM     24  C   UNL     1       2.854   2.040  19.062  0.00  0.00    +0.000 A 
ATOM     25  C   UNL     1       3.596   2.346  17.925  0.00  0.00    +0.000 A 
ATOM     26  C   UNL     1       3.782   3.674  17.525  0.00  0.00    +0.000 A 
ATOM     27  C   UNL     1       3.197   4.691  18.299  0.00  0.00    +0.000 A 
ATOM     28  S   UNL     1       3.248   6.398  18.079  0.00  0.00    +0.000 S 
ENDBRANCH  19  20
ENDBRANCH  18  19
ENDBRANCH   3  18
TORSDOF 6
ENDMDL
