MODEL 1
REMARK VINA RESULT:      -7.3      0.000      0.000
REMARK  Name = 
REMARK  5 active torsions:
REMARK  status: ('A' for Active; 'I' for Inactive)
REMARK    1  A    between atoms: C_7  and  C_8
REMARK    2  A    between atoms: C_10  and  C_11
REMARK    3  A    between atoms: C_11  and  N_12
REMARK    4  A    between atoms: N_12  and  C_13
REMARK    5  A    between atoms: C_13  and  C_14
REMARK                            x       y       z     vdW  Elec       q    Type
REMARK                         _______ _______ _______ _____ _____    ______ ____
ROOT
ATOM      1  C   UNL     1       4.437   4.397  19.182  0.00  0.00    +0.000 A 
ATOM      2  N   UNL     1       5.503   3.816  18.668  0.00  0.00    +0.000 NA
ATOM      3  C   UNL     1       6.411   4.839  18.510  0.00  0.00    +0.000 A 
ATOM      4  C   UNL     1       5.840   6.021  18.918  0.00  0.00    +0.000 A 
ATOM      5  O   UNL     1       4.574   5.756  19.342  0.00  0.00    +0.000 OA
ENDROOT
BRANCH   1  12
ATOM      6 CL   UNL     1       2.516   3.206  16.993  0.00  0.00    +0.000 Cl
ATOM      7  C   UNL     1       2.234   3.290  18.700  0.00  0.00    +0.000 A 
ATOM      8  C   UNL     1       1.023   2.751  19.155  0.00  0.00    +0.000 A 
ATOM      9  C   UNL     1       0.721   2.734  20.514  0.00  0.00    +0.000 A 
ATOM     10  C   UNL     1       1.630   3.254  21.429  0.00  0.00    +0.000 A 
ATOM     11  C   UNL     1       2.839   3.792  20.981  0.00  0.00    +0.000 A 
ATOM     12  C   UNL     1       3.164   3.823  19.609  0.00  0.00    +0.000 A 
ENDBRANCH   1  12
BRANCH   3  13
ATOM     13  C   UNL     1       7.761   4.595  17.930  0.00  0.00    +0.000 C 
BRANCH  13  14
ATOM     14  N   UNL     1       7.668   4.194  16.525  0.00  0.00    +0.000 NA
ATOM     15  H   UNL     1       7.212   3.277  16.499  0.00  0.00    +0.000 HD
BRANCH  14  16
ATOM     16  C   UNL     1       6.856   5.116  15.727  0.00  0.00    +0.000 C 
BRANCH  16  17
ATOM     17  C   UNL     1       6.835   4.673  14.308  0.00  0.00    +0.000 A 
ATOM     18  C   UNL     1       6.114   3.715  13.628  0.00  0.00    +0.000 A 
ATOM     19  C   UNL     1       6.523   3.792  12.276  0.00  0.00    +0.000 A 
ATOM     20  C   UNL     1       7.472   4.784  12.219  0.00  0.00    +0.000 A 
ATOM     21  O   UNL     1       7.673   5.321  13.448  0.00  0.00    +0.000 OA
ENDBRANCH  16  17
ENDBRANCH  14  16
ENDBRANCH  13  14
ENDBRANCH   3  13
TORSDOF 5
ENDMDL
MODEL 2
REMARK VINA RESULT:      -7.2      1.687      1.944
REMARK  Name = 
REMARK  5 active torsions:
REMARK  status: ('A' for Active; 'I' for Inactive)
REMARK    1  A    between atoms: C_7  and  C_8
REMARK    2  A    between atoms: C_10  and  C_11
REMARK    3  A    between atoms: C_11  and  N_12
REMARK    4  A    between atoms: N_12  and  C_13
REMARK    5  A    between atoms: C_13  and  C_14
REMARK                            x       y       z     vdW  Elec       q    Type
REMARK                         _______ _______ _______ _____ _____    ______ ____
ROOT
ATOM      1  C   UNL     1       3.794   5.308  18.412  0.00  0.00    +0.000 A 
ATOM      2  N   UNL     1       5.102   5.332  18.576  0.00  0.00    +0.000 NA
ATOM      3  C   UNL     1       5.527   6.388  17.800  0.00  0.00    +0.000 A 
ATOM      4  C   UNL     1       4.444   6.952  17.168  0.00  0.00    +0.000 A 
ATOM      5  O   UNL     1       3.329   6.266  17.543  0.00  0.00    +0.000 OA
ENDROOT
BRANCH   1  12
ATOM      6 CL   UNL     1       1.823   6.535  20.536  0.00  0.00    +0.000 Cl
ATOM      7  C   UNL     1       1.879   4.894  19.987  0.00  0.00    +0.000 A 
ATOM      8  C   UNL     1       0.930   4.023  20.538  0.00  0.00    +0.000 A 
ATOM      9  C   UNL     1       0.868   2.692  20.131  0.00  0.00    +0.000 A 
ATOM     10  C   UNL     1       1.754   2.225  19.167  0.00  0.00    +0.000 A 
ATOM     11  C   UNL     1       2.702   3.089  18.613  0.00  0.00    +0.000 A 
ATOM     12  C   UNL     1       2.785   4.439  19.013  0.00  0.00    +0.000 A 
ENDBRANCH   1  12
BRANCH   3  13
ATOM     13  C   UNL     1       6.969   6.744  17.697  0.00  0.00    +0.000 C 
BRANCH  13  14
ATOM     14  N   UNL     1       7.530   6.312  16.415  0.00  0.00    +0.000 NA
ATOM     15  H   UNL     1       8.542   6.459  16.460  0.00  0.00    +0.000 HD
BRANCH  14  16
ATOM     16  C   UNL     1       7.298   4.891  16.147  0.00  0.00    +0.000 C 
BRANCH  16  17
ATOM     17  C   UNL     1       7.124   4.673  14.687  0.00  0.00    +0.000 A 
ATOM     18  C   UNL     1       6.273   3.886  13.944  0.00  0.00    +0.000 A 
ATOM     19  C   UNL     1       6.576   4.140  12.585  0.00  0.00    +0.000 A 
ATOM     20  C   UNL     1       7.598   5.058  12.587  0.00  0.00    +0.000 A 
ATOM     21  O   UNL     1       7.942   5.384  13.857  0.00  0.00    +0.000 OA
ENDBRANCH  16  17
ENDBRANCH  14  16
ENDBRANCH  13  14
ENDBRANCH   3  13
TORSDOF 5
ENDMDL
MODEL 3
REMARK VINA RESULT:      -7.2      1.090      1.199
REMARK  Name = 
REMARK  5 active torsions:
REMARK  status: ('A' for Active; 'I' for Inactive)
REMARK    1  A    between atoms: C_7  and  C_8
REMARK    2  A    between atoms: C_10  and  C_11
REMARK    3  A    between atoms: C_11  and  N_12
REMARK    4  A    between atoms: N_12  and  C_13
REMARK    5  A    between atoms: C_13  and  C_14
REMARK                            x       y       z     vdW  Elec       q    Type
REMARK                         _______ _______ _______ _____ _____    ______ ____
ROOT
ATOM      1  C   UNL     1       4.394   5.010  18.954  0.00  0.00    +0.000 A 
ATOM      2  N   UNL     1       4.652   5.947  18.063  0.00  0.00    +0.000 NA
ATOM      3  C   UNL     1       6.016   6.123  18.132  0.00  0.00    +0.000 A 
ATOM      4  C   UNL     1       6.532   5.290  19.095  0.00  0.00    +0.000 A 
ATOM      5  O   UNL     1       5.506   4.578  19.636  0.00  0.00    +0.000 OA
ENDROOT
BRANCH   1  12
ATOM      6 CL   UNL     1       3.018   3.128  16.840  0.00  0.00    +0.000 Cl
ATOM      7  C   UNL     1       2.433   3.532  18.419  0.00  0.00    +0.000 A 
ATOM      8  C   UNL     1       1.222   2.940  18.801  0.00  0.00    +0.000 A 
ATOM      9  C   UNL     1       0.689   3.170  20.068  0.00  0.00    +0.000 A 
ATOM     10  C   UNL     1       1.366   3.993  20.961  0.00  0.00    +0.000 A 
ATOM     11  C   UNL     1       2.574   4.584  20.586  0.00  0.00    +0.000 A 
ATOM     12  C   UNL     1       3.130   4.369  19.307  0.00  0.00    +0.000 A 
ENDBRANCH   1  12
BRANCH   3  13
ATOM     13  C   UNL     1       6.712   7.125  17.280  0.00  0.00    +0.000 C 
BRANCH  13  14
ATOM     14  N   UNL     1       7.520   6.472  16.247  0.00  0.00    +0.000 NA
ATOM     15  H   UNL     1       8.500   6.545  16.535  0.00  0.00    +0.000 HD
BRANCH  14  16
ATOM     16  C   UNL     1       7.205   5.049  16.101  0.00  0.00    +0.000 C 
BRANCH  16  17
ATOM     17  C   UNL     1       7.067   4.706  14.661  0.00  0.00    +0.000 A 
ATOM     18  C   UNL     1       6.291   3.798  13.976  0.00  0.00    +0.000 A 
ATOM     19  C   UNL     1       6.590   3.971  12.604  0.00  0.00    +0.000 A 
ATOM     20  C   UNL     1       7.535   4.966  12.541  0.00  0.00    +0.000 A 
ATOM     21  O   UNL     1       7.836   5.416  13.784  0.00  0.00    +0.000 OA
ENDBRANCH  16  17
ENDBRANCH  14  16
ENDBRANCH  13  14
ENDBRANCH   3  13
TORSDOF 5
ENDMDL
MODEL 4
REMARK VINA RESULT:      -7.2      1.278      1.411
REMARK  Name = 
REMARK  5 active torsions:
REMARK  status: ('A' for Active; 'I' for Inactive)
REMARK    1  A    between atoms: C_7  and  C_8
REMARK    2  A    between atoms: C_10  and  C_11
REMARK    3  A    between atoms: C_11  and  N_12
REMARK    4  A    between atoms: N_12  and  C_13
REMARK    5  A    between atoms: C_13  and  C_14
REMARK                            x       y       z     vdW  Elec       q    Type
REMARK                         _______ _______ _______ _____ _____    ______ ____
ROOT
ATOM      1  C   UNL     1       4.756   4.360  19.128  0.00  0.00    +0.000 A 
ATOM      2  N   UNL     1       5.333   3.966  18.011  0.00  0.00    +0.000 NA
ATOM      3  C   UNL     1       6.504   4.689  17.952  0.00  0.00    +0.000 A 
ATOM      4  C   UNL     1       6.576   5.524  19.042  0.00  0.00    +0.000 A 
ATOM      5  O   UNL     1       5.460   5.331  19.799  0.00  0.00    +0.000 OA
ENDROOT
BRANCH   1  12
ATOM      6 CL   UNL     1       2.041   5.548  18.071  0.00  0.00    +0.000 Cl
ATOM      7  C   UNL     1       2.255   4.413  19.361  0.00  0.00    +0.000 A 
ATOM      8  C   UNL     1       1.086   3.963  19.990  0.00  0.00    +0.000 A 
ATOM      9  C   UNL     1       1.150   3.019  21.012  0.00  0.00    +0.000 A 
ATOM     10  C   UNL     1       2.384   2.516  21.410  0.00  0.00    +0.000 A 
ATOM     11  C   UNL     1       3.552   2.961  20.786  0.00  0.00    +0.000 A 
ATOM     12  C   UNL     1       3.511   3.919  19.752  0.00  0.00    +0.000 A 
ENDBRANCH   1  12
BRANCH   3  13
ATOM     13  C   UNL     1       7.450   4.544  16.812  0.00  0.00    +0.000 C 
BRANCH  13  14
ATOM     14  N   UNL     1       7.166   5.525  15.762  0.00  0.00    +0.000 NA
ATOM     15  H   UNL     1       7.920   5.461  15.073  0.00  0.00    +0.000 HD
BRANCH  14  16
ATOM     16  C   UNL     1       5.905   5.258  15.066  0.00  0.00    +0.000 C 
BRANCH  16  17
ATOM     17  C   UNL     1       6.175   4.566  13.778  0.00  0.00    +0.000 A 
ATOM     18  C   UNL     1       7.277   4.499  12.955  0.00  0.00    +0.000 A 
ATOM     19  C   UNL     1       6.924   3.648  11.881  0.00  0.00    +0.000 A 
ATOM     20  C   UNL     1       5.627   3.258  12.113  0.00  0.00    +0.000 A 
ATOM     21  O   UNL     1       5.161   3.814  13.259  0.00  0.00    +0.000 OA
ENDBRANCH  16  17
ENDBRANCH  14  16
ENDBRANCH  13  14
ENDBRANCH   3  13
TORSDOF 5
ENDMDL
MODEL 5
REMARK VINA RESULT:      -7.1      1.226      1.330
REMARK  Name = 
REMARK  5 active torsions:
REMARK  status: ('A' for Active; 'I' for Inactive)
REMARK    1  A    between atoms: C_7  and  C_8
REMARK    2  A    between atoms: C_10  and  C_11
REMARK    3  A    between atoms: C_11  and  N_12
REMARK    4  A    between atoms: N_12  and  C_13
REMARK    5  A    between atoms: C_13  and  C_14
REMARK                            x       y       z     vdW  Elec       q    Type
REMARK                         _______ _______ _______ _____ _____    ______ ____
ROOT
ATOM      1  C   UNL     1       3.743   5.339  18.574  0.00  0.00    +0.000 A 
ATOM      2  N   UNL     1       5.049   5.384  18.401  0.00  0.00    +0.000 NA
ATOM      3  C   UNL     1       5.255   6.495  17.613  0.00  0.00    +0.000 A 
ATOM      4  C   UNL     1       4.043   7.071  17.315  0.00  0.00    +0.000 A 
ATOM      5  O   UNL     1       3.065   6.337  17.916  0.00  0.00    +0.000 OA
ENDROOT
BRANCH   1  12
ATOM      6 CL   UNL     1       2.514   2.831  17.124  0.00  0.00    +0.000 Cl
ATOM      7  C   UNL     1       2.320   3.279  18.785  0.00  0.00    +0.000 A 
ATOM      8  C   UNL     1       1.544   2.418  19.572  0.00  0.00    +0.000 A 
ATOM      9  C   UNL     1       1.361   2.669  20.930  0.00  0.00    +0.000 A 
ATOM     10  C   UNL     1       1.957   3.783  21.510  0.00  0.00    +0.000 A 
ATOM     11  C   UNL     1       2.733   4.644  20.731  0.00  0.00    +0.000 A 
ATOM     12  C   UNL     1       2.928   4.411  19.353  0.00  0.00    +0.000 A 
ENDBRANCH   1  12
BRANCH   3  13
ATOM     13  C   UNL     1       6.620   6.891  17.171  0.00  0.00    +0.000 C 
BRANCH  13  14
ATOM     14  N   UNL     1       7.302   5.780  16.503  0.00  0.00    +0.000 NA
ATOM     15  H   UNL     1       7.803   5.252  17.223  0.00  0.00    +0.000 HD
BRANCH  14  16
ATOM     16  C   UNL     1       6.371   4.860  15.845  0.00  0.00    +0.000 C 
BRANCH  16  17
ATOM     17  C   UNL     1       6.746   4.697  14.416  0.00  0.00    +0.000 A 
ATOM     18  C   UNL     1       6.267   3.901  13.398  0.00  0.00    +0.000 A 
ATOM     19  C   UNL     1       7.021   4.227  12.246  0.00  0.00    +0.000 A 
ATOM     20  C   UNL     1       7.917   5.193  12.637  0.00  0.00    +0.000 A 
ATOM     21  O   UNL     1       7.762   5.482  13.953  0.00  0.00    +0.000 OA
ENDBRANCH  16  17
ENDBRANCH  14  16
ENDBRANCH  13  14
ENDBRANCH   3  13
TORSDOF 5
ENDMDL
MODEL 6
REMARK VINA RESULT:      -7.0      1.824      2.313
REMARK  Name = 
REMARK  5 active torsions:
REMARK  status: ('A' for Active; 'I' for Inactive)
REMARK    1  A    between atoms: C_7  and  C_8
REMARK    2  A    between atoms: C_10  and  C_11
REMARK    3  A    between atoms: C_11  and  N_12
REMARK    4  A    between atoms: N_12  and  C_13
REMARK    5  A    between atoms: C_13  and  C_14
REMARK                            x       y       z     vdW  Elec       q    Type
REMARK                         _______ _______ _______ _____ _____    ______ ____
ROOT
ATOM      1  C   UNL     1       4.840   4.336  18.312  0.00  0.00    +0.000 A 
ATOM      2  N   UNL     1       5.013   4.411  17.007  0.00  0.00    +0.000 NA
ATOM      3  C   UNL     1       6.373   4.556  16.845  0.00  0.00    +0.000 A 
ATOM      4  C   UNL     1       6.975   4.589  18.080  0.00  0.00    +0.000 A 
ATOM      5  O   UNL     1       6.007   4.458  19.029  0.00  0.00    +0.000 OA
ENDROOT
BRANCH   1  12
ATOM      6 CL   UNL     1       3.515   1.482  18.322  0.00  0.00    +0.000 Cl
ATOM      7  C   UNL     1       2.948   2.902  19.136  0.00  0.00    +0.000 A 
ATOM      8  C   UNL     1       1.780   2.757  19.896  0.00  0.00    +0.000 A 
ATOM      9  C   UNL     1       1.267   3.831  20.620  0.00  0.00    +0.000 A 
ATOM     10  C   UNL     1       1.921   5.057  20.590  0.00  0.00    +0.000 A 
ATOM     11  C   UNL     1       3.087   5.207  19.835  0.00  0.00    +0.000 A 
ATOM     12  C   UNL     1       3.622   4.135  19.091  0.00  0.00    +0.000 A 
ENDBRANCH   1  12
BRANCH   3  13
ATOM     13  C   UNL     1       6.983   4.696  15.495  0.00  0.00    +0.000 C 
BRANCH  13  14
ATOM     14  N   UNL     1       6.385   3.755  14.545  0.00  0.00    +0.000 NA
ATOM     15  H   UNL     1       5.402   3.641  14.805  0.00  0.00    +0.000 HD
BRANCH  14  16
ATOM     16  C   UNL     1       6.426   4.244  13.164  0.00  0.00    +0.000 C 
BRANCH  16  17
ATOM     17  C   UNL     1       6.467   3.095  12.222  0.00  0.00    +0.000 A 
ATOM     18  C   UNL     1       7.479   2.499  11.503  0.00  0.00    +0.000 A 
ATOM     19  C   UNL     1       6.891   1.417  10.805  0.00  0.00    +0.000 A 
ATOM     20  C   UNL     1       5.557   1.429  11.135  0.00  0.00    +0.000 A 
ATOM     21  O   UNL     1       5.288   2.447  11.991  0.00  0.00    +0.000 OA
ENDBRANCH  16  17
ENDBRANCH  14  16
ENDBRANCH  13  14
ENDBRANCH   3  13
TORSDOF 5
ENDMDL
MODEL 7
REMARK VINA RESULT:      -7.0      3.663      6.277
REMARK  Name = 
REMARK  5 active torsions:
REMARK  status: ('A' for Active; 'I' for Inactive)
REMARK    1  A    between atoms: C_7  and  C_8
REMARK    2  A    between atoms: C_10  and  C_11
REMARK    3  A    between atoms: C_11  and  N_12
REMARK    4  A    between atoms: N_12  and  C_13
REMARK    5  A    between atoms: C_13  and  C_14
REMARK                            x       y       z     vdW  Elec       q    Type
REMARK                         _______ _______ _______ _____ _____    ______ ____
ROOT
ATOM      1  C   UNL     1       3.140   6.968  17.974  0.00  0.00    +0.000 A 
ATOM      2  N   UNL     1       2.897   5.680  17.831  0.00  0.00    +0.000 NA
ATOM      3  C   UNL     1       4.040   5.175  17.253  0.00  0.00    +0.000 A 
ATOM      4  C   UNL     1       4.932   6.199  17.041  0.00  0.00    +0.000 A 
ATOM      5  O   UNL     1       4.367   7.354  17.489  0.00  0.00    +0.000 OA
ENDROOT
BRANCH   1  12
ATOM      6 CL   UNL     1       1.926   6.497  20.838  0.00  0.00    +0.000 Cl
ATOM      7  C   UNL     1       1.719   7.890  19.830  0.00  0.00    +0.000 A 
ATOM      8  C   UNL     1       0.938   8.927  20.358  0.00  0.00    +0.000 A 
ATOM      9  C   UNL     1       0.746  10.105  19.641  0.00  0.00    +0.000 A 
ATOM     10  C   UNL     1       1.336  10.255  18.391  0.00  0.00    +0.000 A 
ATOM     11  C   UNL     1       2.116   9.225  17.860  0.00  0.00    +0.000 A 
ATOM     12  C   UNL     1       2.321   8.022  18.567  0.00  0.00    +0.000 A 
ENDBRANCH   1  12
BRANCH   3  13
ATOM     13  C   UNL     1       4.162   3.732  16.908  0.00  0.00    +0.000 C 
BRANCH  13  14
ATOM     14  N   UNL     1       2.918   3.013  17.193  0.00  0.00    +0.000 NA
ATOM     15  H   UNL     1       2.616   2.568  16.322  0.00  0.00    +0.000 HD
BRANCH  14  16
ATOM     16  C   UNL     1       3.092   1.958  18.194  0.00  0.00    +0.000 C 
BRANCH  16  17
ATOM     17  C   UNL     1       2.455   2.365  19.473  0.00  0.00    +0.000 A 
ATOM     18  C   UNL     1       1.154   2.639  19.836  0.00  0.00    +0.000 A 
ATOM     19  C   UNL     1       1.179   2.944  21.218  0.00  0.00    +0.000 A 
ATOM     20  C   UNL     1       2.494   2.846  21.607  0.00  0.00    +0.000 A 
ATOM     21  O   UNL     1       3.277   2.501  20.555  0.00  0.00    +0.000 OA
ENDBRANCH  16  17
ENDBRANCH  14  16
ENDBRANCH  13  14
ENDBRANCH   3  13
TORSDOF 5
ENDMDL
MODEL 8
REMARK VINA RESULT:      -7.0      3.176      6.405
REMARK  Name = 
REMARK  5 active torsions:
REMARK  status: ('A' for Active; 'I' for Inactive)
REMARK    1  A    between atoms: C_7  and  C_8
REMARK    2  A    between atoms: C_10  and  C_11
REMARK    3  A    between atoms: C_11  and  N_12
REMARK    4  A    between atoms: N_12  and  C_13
REMARK    5  A    between atoms: C_13  and  C_14
REMARK                            x       y       z     vdW  Elec       q    Type
REMARK                         _______ _______ _______ _____ _____    ______ ____
ROOT
ATOM      1  C   UNL     1       5.445   4.315  18.533  0.00  0.00    +0.000 A 
ATOM      2  N   UNL     1       4.579   3.748  17.717  0.00  0.00    +0.000 NA
ATOM      3  C   UNL     1       4.030   2.722  18.453  0.00  0.00    +0.000 A 
ATOM      4  C   UNL     1       4.615   2.693  19.696  0.00  0.00    +0.000 A 
ATOM      5  O   UNL     1       5.529   3.700  19.760  0.00  0.00    +0.000 OA
ENDROOT
BRANCH   1  12
ATOM      6 CL   UNL     1       4.670   6.393  16.302  0.00  0.00    +0.000 Cl
ATOM      7  C   UNL     1       6.048   6.447  17.349  0.00  0.00    +0.000 A 
ATOM      8  C   UNL     1       6.901   7.548  17.194  0.00  0.00    +0.000 A 
ATOM      9  C   UNL     1       8.015   7.703  18.016  0.00  0.00    +0.000 A 
ATOM     10  C   UNL     1       8.281   6.758  19.000  0.00  0.00    +0.000 A 
ATOM     11  C   UNL     1       7.434   5.659  19.159  0.00  0.00    +0.000 A 
ATOM     12  C   UNL     1       6.303   5.480  18.336  0.00  0.00    +0.000 A 
ENDBRANCH   1  12
BRANCH   3  13
ATOM     13  C   UNL     1       3.003   1.815  17.873  0.00  0.00    +0.000 C 
BRANCH  13  14
ATOM     14  N   UNL     1       1.863   1.658  18.779  0.00  0.00    +0.000 NA
ATOM     15  H   UNL     1       2.224   1.714  19.736  0.00  0.00    +0.000 HD
BRANCH  14  16
ATOM     16  C   UNL     1       0.864   2.718  18.618  0.00  0.00    +0.000 C 
BRANCH  16  17
ATOM     17  C   UNL     1       1.293   3.933  19.358  0.00  0.00    +0.000 A 
ATOM     18  C   UNL     1       1.353   4.253  20.697  0.00  0.00    +0.000 A 
ATOM     19  C   UNL     1       1.884   5.562  20.773  0.00  0.00    +0.000 A 
ATOM     20  C   UNL     1       2.105   5.961  19.477  0.00  0.00    +0.000 A 
ATOM     21  O   UNL     1       1.745   4.982  18.610  0.00  0.00    +0.000 OA
ENDBRANCH  16  17
ENDBRANCH  14  16
ENDBRANCH  13  14
ENDBRANCH   3  13
TORSDOF 5
ENDMDL
MODEL 9
REMARK VINA RESULT:      -6.9      1.447      1.690
REMARK  Name = 
REMARK  5 active torsions:
REMARK  status: ('A' for Active; 'I' for Inactive)
REMARK    1  A    between atoms: C_7  and  C_8
REMARK    2  A    between atoms: C_10  and  C_11
REMARK    3  A    between atoms: C_11  and  N_12
REMARK    4  A    between atoms: N_12  and  C_13
REMARK    5  A    between atoms: C_13  and  C_14
REMARK                            x       y       z     vdW  Elec       q    Type
REMARK                         _______ _______ _______ _____ _____    ______ ____
ROOT
ATOM      1  C   UNL     1       4.558   4.563  18.622  0.00  0.00    +0.000 A 
ATOM      2  N   UNL     1       4.769   5.242  17.512  0.00  0.00    +0.000 NA
ATOM      3  C   UNL     1       6.137   5.380  17.444  0.00  0.00    +0.000 A 
ATOM      4  C   UNL     1       6.707   4.791  18.548  0.00  0.00    +0.000 A 
ATOM      5  O   UNL     1       5.709   4.272  19.315  0.00  0.00    +0.000 OA
ENDROOT
BRANCH   1  12
ATOM      6 CL   UNL     1       3.619   1.639  17.939  0.00  0.00    +0.000 Cl
ATOM      7  C   UNL     1       2.803   2.793  18.939  0.00  0.00    +0.000 A 
ATOM      8  C   UNL     1       1.601   2.369  19.521  0.00  0.00    +0.000 A 
ATOM      9  C   UNL     1       0.891   3.210  20.374  0.00  0.00    +0.000 A 
ATOM     10  C   UNL     1       1.380   4.481  20.653  0.00  0.00    +0.000 A 
ATOM     11  C   UNL     1       2.579   4.909  20.077  0.00  0.00    +0.000 A 
ATOM     12  C   UNL     1       3.312   4.076  19.207  0.00  0.00    +0.000 A 
ENDBRANCH   1  12
BRANCH   3  13
ATOM     13  C   UNL     1       6.789   6.116  16.326  0.00  0.00    +0.000 C 
BRANCH  13  14
ATOM     14  N   UNL     1       6.287   5.658  15.029  0.00  0.00    +0.000 NA
ATOM     15  H   UNL     1       6.544   6.366  14.335  0.00  0.00    +0.000 HD
BRANCH  14  16
ATOM     16  C   UNL     1       6.884   4.388  14.609  0.00  0.00    +0.000 C 
BRANCH  16  17
ATOM     17  C   UNL     1       6.144   3.843  13.441  0.00  0.00    +0.000 A 
ATOM     18  C   UNL     1       4.837   3.945  13.019  0.00  0.00    +0.000 A 
ATOM     19  C   UNL     1       4.750   3.223  11.805  0.00  0.00    +0.000 A 
ATOM     20  C   UNL     1       6.007   2.720  11.569  0.00  0.00    +0.000 A 
ATOM     21  O   UNL     1       6.859   3.085  12.558  0.00  0.00    +0.000 OA
ENDBRANCH  16  17
ENDBRANCH  14  16
ENDBRANCH  13  14
ENDBRANCH   3  13
TORSDOF 5
ENDMDL
