MODEL 1
REMARK VINA RESULT:      -7.8      0.000      0.000
REMARK  Name = 
REMARK  6 active torsions:
REMARK  status: ('A' for Active; 'I' for Inactive)
REMARK    1  A    between atoms: C_1  and  N_2
REMARK    2  A    between atoms: N_2  and  C_3
REMARK    3  A    between atoms: N_2  and  C_14
REMARK    4  A    between atoms: C_3  and  C_4
REMARK    5  A    between atoms: C_7  and  C_8
REMARK    6  A    between atoms: C_14  and  C_15
REMARK                            x       y       z     vdW  Elec       q    Type
REMARK                         _______ _______ _______ _____ _____    ______ ____
ROOT
ATOM      1  C   UNL     1       6.441   4.629  17.505  0.00  0.00    +0.000 C 
ENDROOT
BRANCH   1   2
ATOM      2  C   UNL     1       6.670   4.673  16.034  0.00  0.00    +0.000 A 
ATOM      3  N   UNL     1       7.437   5.464  15.317  0.00  0.00    +0.000 NA
ATOM      4  N   UNL     1       7.227   5.109  13.999  0.00  0.00    +0.000 NA
ATOM      5  C   UNL     1       6.344   4.126  14.001  0.00  0.00    +0.000 A 
ATOM      6  O   UNL     1       5.947   3.800  15.273  0.00  0.00    +0.000 OA
BRANCH   5   7
ATOM      7  C   UNL     1       5.837   3.469  12.839  0.00  0.00    +0.000 A 
ATOM      8  C   UNL     1       6.474   2.563  12.006  0.00  0.00    +0.000 A 
ATOM      9  C   UNL     1       5.549   2.206  10.992  0.00  0.00    +0.000 A 
ATOM     10  C   UNL     1       4.405   2.912  11.258  0.00  0.00    +0.000 A 
ATOM     11  O   UNL     1       4.565   3.679  12.366  0.00  0.00    +0.000 OA
ENDBRANCH   5   7
ENDBRANCH   1   2
BRANCH   1  13
ATOM     12  C   UNL     1       4.653   6.200  17.953  0.00  0.00    +0.000 C 
ATOM     13  N   UNL     1       5.044   4.786  17.979  0.00  0.00    +0.000 NA
BRANCH  13  14
ATOM     14  C   UNL     1       4.779   4.210  19.320  0.00  0.00    +0.000 C 
BRANCH  14  15
ATOM     15  C   UNL     1       3.343   3.796  19.590  0.00  0.00    +0.000 A 
ATOM     16  C   UNL     1       2.544   4.525  20.491  0.00  0.00    +0.000 A 
ATOM     17  C   UNL     1       1.193   4.221  20.668  0.00  0.00    +0.000 A 
ATOM     18  C   UNL     1       0.615   3.171  19.962  0.00  0.00    +0.000 A 
ATOM     19  C   UNL     1       1.409   2.377  19.138  0.00  0.00    +0.000 A 
ATOM     20  C   UNL     1       2.771   2.663  18.983  0.00  0.00    +0.000 A 
ATOM     21 CL   UNL     1       3.715   1.534  18.073  0.00  0.00    +0.000 Cl
ENDBRANCH  14  15
ENDBRANCH  13  14
ENDBRANCH   1  13
TORSDOF 5
ENDMDL
MODEL 2
REMARK VINA RESULT:      -7.7      1.719      2.058
REMARK  Name = 
REMARK  6 active torsions:
REMARK  status: ('A' for Active; 'I' for Inactive)
REMARK    1  A    between atoms: C_1  and  N_2
REMARK    2  A    between atoms: N_2  and  C_3
REMARK    3  A    between atoms: N_2  and  C_14
REMARK    4  A    between atoms: C_3  and  C_4
REMARK    5  A    between atoms: C_7  and  C_8
REMARK    6  A    between atoms: C_14  and  C_15
REMARK                            x       y       z     vdW  Elec       q    Type
REMARK                         _______ _______ _______ _____ _____    ______ ____
ROOT
ATOM      1  C   UNL     1       7.073   4.459  17.472  0.00  0.00    +0.000 C 
ENDROOT
BRANCH   1   2
ATOM      2  C   UNL     1       7.053   4.618  15.991  0.00  0.00    +0.000 A 
ATOM      3  N   UNL     1       7.597   5.539  15.227  0.00  0.00    +0.000 NA
ATOM      4  N   UNL     1       7.216   5.239  13.934  0.00  0.00    +0.000 NA
ATOM      5  C   UNL     1       6.463   4.156  13.997  0.00  0.00    +0.000 A 
ATOM      6  O   UNL     1       6.318   3.708  15.286  0.00  0.00    +0.000 OA
BRANCH   5   7
ATOM      7  C   UNL     1       5.850   3.511  12.879  0.00  0.00    +0.000 A 
ATOM      8  C   UNL     1       6.370   2.530  12.050  0.00  0.00    +0.000 A 
ATOM      9  C   UNL     1       5.373   2.223  11.089  0.00  0.00    +0.000 A 
ATOM     10  C   UNL     1       4.305   3.032  11.381  0.00  0.00    +0.000 A 
ATOM     11  O   UNL     1       4.579   3.815  12.454  0.00  0.00    +0.000 OA
ENDBRANCH   5   7
ENDBRANCH   1   2
BRANCH   1  13
ATOM     12  C   UNL     1       7.787   6.272  18.909  0.00  0.00    +0.000 C 
ATOM     13  N   UNL     1       6.632   5.618  18.285  0.00  0.00    +0.000 NA
BRANCH  13  14
ATOM     14  C   UNL     1       5.612   5.298  19.313  0.00  0.00    +0.000 C 
BRANCH  14  15
ATOM     15  C   UNL     1       4.333   4.659  18.799  0.00  0.00    +0.000 A 
ATOM     16  C   UNL     1       4.142   3.267  18.886  0.00  0.00    +0.000 A 
ATOM     17  C   UNL     1       2.930   2.680  18.517  0.00  0.00    +0.000 A 
ATOM     18  C   UNL     1       1.890   3.468  18.035  0.00  0.00    +0.000 A 
ATOM     19  C   UNL     1       2.091   4.834  17.850  0.00  0.00    +0.000 A 
ATOM     20  C   UNL     1       3.317   5.419  18.192  0.00  0.00    +0.000 A 
ATOM     21 CL   UNL     1       3.537   7.085  17.781  0.00  0.00    +0.000 Cl
ENDBRANCH  14  15
ENDBRANCH  13  14
ENDBRANCH   1  13
TORSDOF 5
ENDMDL
MODEL 3
REMARK VINA RESULT:      -7.7      1.264      1.640
REMARK  Name = 
REMARK  6 active torsions:
REMARK  status: ('A' for Active; 'I' for Inactive)
REMARK    1  A    between atoms: C_1  and  N_2
REMARK    2  A    between atoms: N_2  and  C_3
REMARK    3  A    between atoms: N_2  and  C_14
REMARK    4  A    between atoms: C_3  and  C_4
REMARK    5  A    between atoms: C_7  and  C_8
REMARK    6  A    between atoms: C_14  and  C_15
REMARK                            x       y       z     vdW  Elec       q    Type
REMARK                         _______ _______ _______ _____ _____    ______ ____
ROOT
ATOM      1  C   UNL     1       7.272   4.498  17.453  0.00  0.00    +0.000 C 
ENDROOT
BRANCH   1   2
ATOM      2  C   UNL     1       7.165   4.685  15.979  0.00  0.00    +0.000 A 
ATOM      3  N   UNL     1       7.612   5.653  15.211  0.00  0.00    +0.000 NA
ATOM      4  N   UNL     1       7.183   5.356  13.933  0.00  0.00    +0.000 NA
ATOM      5  C   UNL     1       6.502   4.227  14.008  0.00  0.00    +0.000 A 
ATOM      6  O   UNL     1       6.452   3.746  15.292  0.00  0.00    +0.000 OA
BRANCH   5   7
ATOM      7  C   UNL     1       5.872   3.568  12.908  0.00  0.00    +0.000 A 
ATOM      8  C   UNL     1       6.364   2.547  12.110  0.00  0.00    +0.000 A 
ATOM      9  C   UNL     1       5.360   2.242  11.156  0.00  0.00    +0.000 A 
ATOM     10  C   UNL     1       4.317   3.091  11.419  0.00  0.00    +0.000 A 
ATOM     11  O   UNL     1       4.612   3.897  12.470  0.00  0.00    +0.000 OA
ENDBRANCH   5   7
ENDBRANCH   1   2
BRANCH   1  13
ATOM     12  C   UNL     1       7.862   6.350  18.897  0.00  0.00    +0.000 C 
ATOM     13  N   UNL     1       6.752   5.587  18.315  0.00  0.00    +0.000 NA
BRANCH  13  14
ATOM     14  C   UNL     1       5.826   5.140  19.384  0.00  0.00    +0.000 C 
BRANCH  14  15
ATOM     15  C   UNL     1       4.381   4.931  18.963  0.00  0.00    +0.000 A 
ATOM     16  C   UNL     1       3.625   5.998  18.443  0.00  0.00    +0.000 A 
ATOM     17  C   UNL     1       2.333   5.797  17.953  0.00  0.00    +0.000 A 
ATOM     18  C   UNL     1       1.763   4.529  17.989  0.00  0.00    +0.000 A 
ATOM     19  C   UNL     1       2.456   3.479  18.587  0.00  0.00    +0.000 A 
ATOM     20  C   UNL     1       3.740   3.688  19.106  0.00  0.00    +0.000 A 
ATOM     21 CL   UNL     1       4.462   2.376  19.972  0.00  0.00    +0.000 Cl
ENDBRANCH  14  15
ENDBRANCH  13  14
ENDBRANCH   1  13
TORSDOF 5
ENDMDL
MODEL 4
REMARK VINA RESULT:      -7.6      1.020      1.098
REMARK  Name = 
REMARK  6 active torsions:
REMARK  status: ('A' for Active; 'I' for Inactive)
REMARK    1  A    between atoms: C_1  and  N_2
REMARK    2  A    between atoms: N_2  and  C_3
REMARK    3  A    between atoms: N_2  and  C_14
REMARK    4  A    between atoms: C_3  and  C_4
REMARK    5  A    between atoms: C_7  and  C_8
REMARK    6  A    between atoms: C_14  and  C_15
REMARK                            x       y       z     vdW  Elec       q    Type
REMARK                         _______ _______ _______ _____ _____    ______ ____
ROOT
ATOM      1  C   UNL     1       5.509   6.704  17.284  0.00  0.00    +0.000 C 
ENDROOT
BRANCH   1   2
ATOM      2  C   UNL     1       6.192   5.961  16.189  0.00  0.00    +0.000 A 
ATOM      3  N   UNL     1       7.467   5.888  15.878  0.00  0.00    +0.000 NA
ATOM      4  N   UNL     1       7.539   5.110  14.739  0.00  0.00    +0.000 NA
ATOM      5  C   UNL     1       6.303   4.762  14.431  0.00  0.00    +0.000 A 
ATOM      6  O   UNL     1       5.392   5.275  15.320  0.00  0.00    +0.000 OA
BRANCH   5   7
ATOM      7  C   UNL     1       5.926   3.961  13.311  0.00  0.00    +0.000 A 
ATOM      8  C   UNL     1       6.720   3.145  12.520  0.00  0.00    +0.000 A 
ATOM      9  C   UNL     1       5.877   2.568  11.537  0.00  0.00    +0.000 A 
ATOM     10  C   UNL     1       4.621   3.062  11.778  0.00  0.00    +0.000 A 
ATOM     11  O   UNL     1       4.636   3.904  12.841  0.00  0.00    +0.000 OA
ENDBRANCH   5   7
ENDBRANCH   1   2
BRANCH   1  13
ATOM     12  C   UNL     1       3.239   7.260  17.916  0.00  0.00    +0.000 C 
ATOM     13  N   UNL     1       4.208   6.171  17.758  0.00  0.00    +0.000 NA
BRANCH  13  14
ATOM     14  C   UNL     1       4.286   5.372  19.005  0.00  0.00    +0.000 C 
BRANCH  14  15
ATOM     15  C   UNL     1       3.103   4.460  19.282  0.00  0.00    +0.000 A 
ATOM     16  C   UNL     1       2.248   4.705  20.373  0.00  0.00    +0.000 A 
ATOM     17  C   UNL     1       1.099   3.940  20.577  0.00  0.00    +0.000 A 
ATOM     18  C   UNL     1       0.787   2.902  19.704  0.00  0.00    +0.000 A 
ATOM     19  C   UNL     1       1.669   2.581  18.675  0.00  0.00    +0.000 A 
ATOM     20  C   UNL     1       2.838   3.330  18.489  0.00  0.00    +0.000 A 
ATOM     21 CL   UNL     1       3.953   2.764  17.293  0.00  0.00    +0.000 Cl
ENDBRANCH  14  15
ENDBRANCH  13  14
ENDBRANCH   1  13
TORSDOF 5
ENDMDL
MODEL 5
REMARK VINA RESULT:      -7.6      1.539      1.917
REMARK  Name = 
REMARK  6 active torsions:
REMARK  status: ('A' for Active; 'I' for Inactive)
REMARK    1  A    between atoms: C_1  and  N_2
REMARK    2  A    between atoms: N_2  and  C_3
REMARK    3  A    between atoms: N_2  and  C_14
REMARK    4  A    between atoms: C_3  and  C_4
REMARK    5  A    between atoms: C_7  and  C_8
REMARK    6  A    between atoms: C_14  and  C_15
REMARK                            x       y       z     vdW  Elec       q    Type
REMARK                         _______ _______ _______ _____ _____    ______ ____
ROOT
ATOM      1  C   UNL     1       6.267   5.073  17.476  0.00  0.00    +0.000 C 
ENDROOT
BRANCH   1   2
ATOM      2  C   UNL     1       6.598   4.952  16.029  0.00  0.00    +0.000 A 
ATOM      3  N   UNL     1       7.492   5.588  15.305  0.00  0.00    +0.000 NA
ATOM      4  N   UNL     1       7.333   5.131  14.012  0.00  0.00    +0.000 NA
ATOM      5  C   UNL     1       6.353   4.246  14.034  0.00  0.00    +0.000 A 
ATOM      6  O   UNL     1       5.838   4.086  15.295  0.00  0.00    +0.000 OA
BRANCH   5   7
ATOM      7  C   UNL     1       5.857   3.535  12.899  0.00  0.00    +0.000 A 
ATOM      8  C   UNL     1       4.633   3.662  12.261  0.00  0.00    +0.000 A 
ATOM      9  C   UNL     1       4.621   2.732  11.190  0.00  0.00    +0.000 A 
ATOM     10  C   UNL     1       5.831   2.089  11.235  0.00  0.00    +0.000 A 
ATOM     11  O   UNL     1       6.584   2.560  12.260  0.00  0.00    +0.000 OA
ENDBRANCH   5   7
ENDBRANCH   1   2
BRANCH   1  13
ATOM     12  C   UNL     1       4.600   6.823  17.333  0.00  0.00    +0.000 C 
ATOM     13  N   UNL     1       4.881   5.469  17.824  0.00  0.00    +0.000 NA
BRANCH  13  14
ATOM     14  C   UNL     1       4.556   5.374  19.268  0.00  0.00    +0.000 C 
BRANCH  14  15
ATOM     15  C   UNL     1       3.326   4.553  19.617  0.00  0.00    +0.000 A 
ATOM     16  C   UNL     1       3.300   3.165  19.380  0.00  0.00    +0.000 A 
ATOM     17  C   UNL     1       2.221   2.382  19.793  0.00  0.00    +0.000 A 
ATOM     18  C   UNL     1       1.137   2.971  20.435  0.00  0.00    +0.000 A 
ATOM     19  C   UNL     1       1.099   4.354  20.593  0.00  0.00    +0.000 A 
ATOM     20  C   UNL     1       2.168   5.144  20.152  0.00  0.00    +0.000 A 
ATOM     21 CL   UNL     1       1.969   6.860  20.240  0.00  0.00    +0.000 Cl
ENDBRANCH  14  15
ENDBRANCH  13  14
ENDBRANCH   1  13
TORSDOF 5
ENDMDL
MODEL 6
REMARK VINA RESULT:      -7.6      1.742      2.258
REMARK  Name = 
REMARK  6 active torsions:
REMARK  status: ('A' for Active; 'I' for Inactive)
REMARK    1  A    between atoms: C_1  and  N_2
REMARK    2  A    between atoms: N_2  and  C_3
REMARK    3  A    between atoms: N_2  and  C_14
REMARK    4  A    between atoms: C_3  and  C_4
REMARK    5  A    between atoms: C_7  and  C_8
REMARK    6  A    between atoms: C_14  and  C_15
REMARK                            x       y       z     vdW  Elec       q    Type
REMARK                         _______ _______ _______ _____ _____    ______ ____
ROOT
ATOM      1  C   UNL     1       5.274   6.716  17.325  0.00  0.00    +0.000 C 
ENDROOT
BRANCH   1   2
ATOM      2  C   UNL     1       6.086   6.030  16.281  0.00  0.00    +0.000 A 
ATOM      3  N   UNL     1       7.382   6.044  16.068  0.00  0.00    +0.000 NA
ATOM      4  N   UNL     1       7.592   5.284  14.934  0.00  0.00    +0.000 NA
ATOM      5  C   UNL     1       6.408   4.858  14.532  0.00  0.00    +0.000 A 
ATOM      6  O   UNL     1       5.401   5.302  15.351  0.00  0.00    +0.000 OA
BRANCH   5   7
ATOM      7  C   UNL     1       6.170   4.044  13.382  0.00  0.00    +0.000 A 
ATOM      8  C   UNL     1       4.963   3.597  12.870  0.00  0.00    +0.000 A 
ATOM      9  C   UNL     1       5.259   2.820  11.721  0.00  0.00    +0.000 A 
ATOM     10  C   UNL     1       6.624   2.832  11.597  0.00  0.00    +0.000 A 
ATOM     11  O   UNL     1       7.186   3.563  12.592  0.00  0.00    +0.000 OA
ENDBRANCH   5   7
ENDBRANCH   1   2
BRANCH   1  13
ATOM     12  C   UNL     1       5.121   4.580  18.455  0.00  0.00    +0.000 C 
ATOM     13  N   UNL     1       4.449   5.862  18.213  0.00  0.00    +0.000 NA
BRANCH  13  14
ATOM     14  C   UNL     1       3.065   5.628  17.733  0.00  0.00    +0.000 C 
BRANCH  14  15
ATOM     15  C   UNL     1       2.245   4.633  18.537  0.00  0.00    +0.000 A 
ATOM     16  C   UNL     1       1.900   3.382  17.990  0.00  0.00    +0.000 A 
ATOM     17  C   UNL     1       1.240   2.417  18.754  0.00  0.00    +0.000 A 
ATOM     18  C   UNL     1       0.896   2.688  20.074  0.00  0.00    +0.000 A 
ATOM     19  C   UNL     1       1.142   3.952  20.604  0.00  0.00    +0.000 A 
ATOM     20  C   UNL     1       1.776   4.930  19.829  0.00  0.00    +0.000 A 
ATOM     21 CL   UNL     1       1.897   6.517  20.507  0.00  0.00    +0.000 Cl
ENDBRANCH  14  15
ENDBRANCH  13  14
ENDBRANCH   1  13
TORSDOF 5
ENDMDL
MODEL 7
REMARK VINA RESULT:      -7.5      1.720      2.239
REMARK  Name = 
REMARK  6 active torsions:
REMARK  status: ('A' for Active; 'I' for Inactive)
REMARK    1  A    between atoms: C_1  and  N_2
REMARK    2  A    between atoms: N_2  and  C_3
REMARK    3  A    between atoms: N_2  and  C_14
REMARK    4  A    between atoms: C_3  and  C_4
REMARK    5  A    between atoms: C_7  and  C_8
REMARK    6  A    between atoms: C_14  and  C_15
REMARK                            x       y       z     vdW  Elec       q    Type
REMARK                         _______ _______ _______ _____ _____    ______ ____
ROOT
ATOM      1  C   UNL     1       6.863   4.572  17.398  0.00  0.00    +0.000 C 
ENDROOT
BRANCH   1   2
ATOM      2  C   UNL     1       6.948   4.649  15.913  0.00  0.00    +0.000 A 
ATOM      3  N   UNL     1       7.592   5.496  15.141  0.00  0.00    +0.000 NA
ATOM      4  N   UNL     1       7.280   5.145  13.843  0.00  0.00    +0.000 NA
ATOM      5  C   UNL     1       6.465   4.108  13.910  0.00  0.00    +0.000 A 
ATOM      6  O   UNL     1       6.211   3.741  15.207  0.00  0.00    +0.000 OA
BRANCH   5   7
ATOM      7  C   UNL     1       5.891   3.435  12.788  0.00  0.00    +0.000 A 
ATOM      8  C   UNL     1       4.656   3.637  12.194  0.00  0.00    +0.000 A 
ATOM      9  C   UNL     1       4.554   2.717  11.118  0.00  0.00    +0.000 A 
ATOM     10  C   UNL     1       5.726   2.006  11.118  0.00  0.00    +0.000 A 
ATOM     11  O   UNL     1       6.539   2.425  12.119  0.00  0.00    +0.000 OA
ENDBRANCH   5   7
ENDBRANCH   1   2
BRANCH   1  13
ATOM     12  C   UNL     1       5.747   5.161  19.464  0.00  0.00    +0.000 C 
ATOM     13  N   UNL     1       6.009   5.574  18.081  0.00  0.00    +0.000 NA
BRANCH  13  14
ATOM     14  C   UNL     1       4.732   5.873  17.388  0.00  0.00    +0.000 C 
BRANCH  14  15
ATOM     15  C   UNL     1       3.558   4.980  17.752  0.00  0.00    +0.000 A 
ATOM     16  C   UNL     1       3.417   3.708  17.167  0.00  0.00    +0.000 A 
ATOM     17  C   UNL     1       2.403   2.836  17.571  0.00  0.00    +0.000 A 
ATOM     18  C   UNL     1       1.499   3.223  18.554  0.00  0.00    +0.000 A 
ATOM     19  C   UNL     1       1.562   4.513  19.077  0.00  0.00    +0.000 A 
ATOM     20  C   UNL     1       2.560   5.399  18.650  0.00  0.00    +0.000 A 
ATOM     21 CL   UNL     1       2.467   7.027  19.227  0.00  0.00    +0.000 Cl
ENDBRANCH  14  15
ENDBRANCH  13  14
ENDBRANCH   1  13
TORSDOF 5
ENDMDL
MODEL 8
REMARK VINA RESULT:      -7.5      1.537      1.897
REMARK  Name = 
REMARK  6 active torsions:
REMARK  status: ('A' for Active; 'I' for Inactive)
REMARK    1  A    between atoms: C_1  and  N_2
REMARK    2  A    between atoms: N_2  and  C_3
REMARK    3  A    between atoms: N_2  and  C_14
REMARK    4  A    between atoms: C_3  and  C_4
REMARK    5  A    between atoms: C_7  and  C_8
REMARK    6  A    between atoms: C_14  and  C_15
REMARK                            x       y       z     vdW  Elec       q    Type
REMARK                         _______ _______ _______ _____ _____    ______ ____
ROOT
ATOM      1  C   UNL     1       5.365   6.404  17.573  0.00  0.00    +0.000 C 
ENDROOT
BRANCH   1   2
ATOM      2  C   UNL     1       6.118   5.883  16.397  0.00  0.00    +0.000 A 
ATOM      3  N   UNL     1       7.354   6.108  16.012  0.00  0.00    +0.000 NA
ATOM      4  N   UNL     1       7.516   5.421  14.825  0.00  0.00    +0.000 NA
ATOM      5  C   UNL     1       6.367   4.825  14.565  0.00  0.00    +0.000 A 
ATOM      6  O   UNL     1       5.429   5.081  15.533  0.00  0.00    +0.000 OA
BRANCH   5   7
ATOM      7  C   UNL     1       6.098   4.014  13.420  0.00  0.00    +0.000 A 
ATOM      8  C   UNL     1       4.873   3.655  12.880  0.00  0.00    +0.000 A 
ATOM      9  C   UNL     1       5.138   2.840  11.750  0.00  0.00    +0.000 A 
ATOM     10  C   UNL     1       6.503   2.744  11.665  0.00  0.00    +0.000 A 
ATOM     11  O   UNL     1       7.094   3.443  12.666  0.00  0.00    +0.000 OA
ENDBRANCH   5   7
ENDBRANCH   1   2
BRANCH   1  13
ATOM     12  C   UNL     1       6.615   5.364  19.367  0.00  0.00    +0.000 C 
ATOM     13  N   UNL     1       5.286   5.531  18.769  0.00  0.00    +0.000 NA
BRANCH  13  14
ATOM     14  C   UNL     1       4.668   4.204  18.524  0.00  0.00    +0.000 C 
BRANCH  14  15
ATOM     15  C   UNL     1       3.506   3.838  19.433  0.00  0.00    +0.000 A 
ATOM     16  C   UNL     1       3.652   2.843  20.417  0.00  0.00    +0.000 A 
ATOM     17  C   UNL     1       2.629   2.571  21.327  0.00  0.00    +0.000 A 
ATOM     18  C   UNL     1       1.432   3.277  21.262  0.00  0.00    +0.000 A 
ATOM     19  C   UNL     1       1.231   4.198  20.237  0.00  0.00    +0.000 A 
ATOM     20  C   UNL     1       2.246   4.449  19.305  0.00  0.00    +0.000 A 
ATOM     21 CL   UNL     1       1.856   5.483  17.975  0.00  0.00    +0.000 Cl
ENDBRANCH  14  15
ENDBRANCH  13  14
ENDBRANCH   1  13
TORSDOF 5
ENDMDL
MODEL 9
REMARK VINA RESULT:      -7.5      1.194      1.522
REMARK  Name = 
REMARK  6 active torsions:
REMARK  status: ('A' for Active; 'I' for Inactive)
REMARK    1  A    between atoms: C_1  and  N_2
REMARK    2  A    between atoms: N_2  and  C_3
REMARK    3  A    between atoms: N_2  and  C_14
REMARK    4  A    between atoms: C_3  and  C_4
REMARK    5  A    between atoms: C_7  and  C_8
REMARK    6  A    between atoms: C_14  and  C_15
REMARK                            x       y       z     vdW  Elec       q    Type
REMARK                         _______ _______ _______ _____ _____    ______ ____
ROOT
ATOM      1  C   UNL     1       5.253   6.776  17.226  0.00  0.00    +0.000 C 
ENDROOT
BRANCH   1   2
ATOM      2  C   UNL     1       6.072   6.051  16.215  0.00  0.00    +0.000 A 
ATOM      3  N   UNL     1       7.374   6.025  16.037  0.00  0.00    +0.000 NA
ATOM      4  N   UNL     1       7.593   5.242  14.920  0.00  0.00    +0.000 NA
ATOM      5  C   UNL     1       6.408   4.845  14.491  0.00  0.00    +0.000 A 
ATOM      6  O   UNL     1       5.392   5.330  15.276  0.00  0.00    +0.000 OA
BRANCH   5   7
ATOM      7  C   UNL     1       6.178   4.021  13.347  0.00  0.00    +0.000 A 
ATOM      8  C   UNL     1       4.982   3.501  12.878  0.00  0.00    +0.000 A 
ATOM      9  C   UNL     1       5.283   2.748  11.715  0.00  0.00    +0.000 A 
ATOM     10  C   UNL     1       6.639   2.845  11.540  0.00  0.00    +0.000 A 
ATOM     11  O   UNL     1       7.192   3.607  12.518  0.00  0.00    +0.000 OA
ENDBRANCH   5   7
ENDBRANCH   1   2
BRANCH   1  13
ATOM     12  C   UNL     1       5.457   4.824  18.644  0.00  0.00    +0.000 C 
ATOM     13  N   UNL     1       4.605   5.962  18.283  0.00  0.00    +0.000 NA
BRANCH  13  14
ATOM     14  C   UNL     1       3.239   5.490  17.948  0.00  0.00    +0.000 C 
BRANCH  14  15
ATOM     15  C   UNL     1       2.592   4.563  18.963  0.00  0.00    +0.000 A 
ATOM     16  C   UNL     1       2.337   5.003  20.275  0.00  0.00    +0.000 A 
ATOM     17  C   UNL     1       1.648   4.200  21.186  0.00  0.00    +0.000 A 
ATOM     18  C   UNL     1       1.215   2.932  20.810  0.00  0.00    +0.000 A 
ATOM     19  C   UNL     1       1.541   2.440  19.548  0.00  0.00    +0.000 A 
ATOM     20  C   UNL     1       2.258   3.234  18.646  0.00  0.00    +0.000 A 
ATOM     21 CL   UNL     1       2.760   2.489  17.167  0.00  0.00    +0.000 Cl
ENDBRANCH  14  15
ENDBRANCH  13  14
ENDBRANCH   1  13
TORSDOF 5
ENDMDL
