MODEL 1
REMARK VINA RESULT:      -8.3      0.000      0.000
REMARK  Name = 
REMARK  12 active torsions:
REMARK  status: ('A' for Active; 'I' for Inactive)
REMARK    1  A    between atoms: C_1  and  C_2
REMARK    2  A    between atoms: C_2  and  C_3
REMARK    3  A    between atoms: C_2  and  C_4
REMARK    4  A    between atoms: C_4  and  N_5
REMARK    5  A    between atoms: C_6  and  C_8
REMARK    6  A    between atoms: C_8  and  C_9
REMARK    7  A    between atoms: C_9  and  N_10
REMARK    8  A    between atoms: N_10  and  C_11
REMARK    9  A    between atoms: N_10  and  C_25
REMARK   10  A    between atoms: C_13  and  C_14
REMARK   11  A    between atoms: C_25  and  C_26
REMARK   12  A    between atoms: C_25  and  C_27
REMARK                            x       y       z     vdW  Elec       q    Type
REMARK                         _______ _______ _______ _____ _____    ______ ____
ROOT
ATOM      1  N   UNL     1       4.691   5.210  17.727  0.00  0.00    +0.000 N 
ENDROOT
BRANCH   1   2
ATOM      2  C   UNL     1       3.684   5.516  18.632  0.00  0.00    +0.000 A 
ATOM      3  N   UNL     1       3.451   4.609  19.601  0.00  0.00    +0.000 NA
ATOM      4  C   UNL     1       2.588   4.900  20.594  0.00  0.00    +0.000 A 
ATOM      5  N   UNL     1       1.998   6.098  20.723  0.00  0.00    +0.000 NA
ATOM      6  C   UNL     1       2.168   6.976  19.737  0.00  0.00    +0.000 A 
ATOM      7  C   UNL     1       1.547   8.212  19.859  0.00  0.00    +0.000 A 
ATOM      8  C   UNL     1       1.646   9.173  18.856  0.00  0.00    +0.000 A 
ATOM      9 CL   UNL     1       0.931  10.721  19.074  0.00  0.00    +0.000 Cl
ATOM     10  C   UNL     1       2.307   8.883  17.676  0.00  0.00    +0.000 A 
ATOM     11  C   UNL     1       2.914   7.641  17.536  0.00  0.00    +0.000 A 
ATOM     12  C   UNL     1       2.942   6.711  18.602  0.00  0.00    +0.000 A 
BRANCH   4  13
ATOM     13  C   UNL     1       2.233   3.820  21.594  0.00  0.00    +0.000 C 
ATOM     14  C   UNL     1       1.245   2.741  21.200  0.00  0.00    +0.000 C 
ATOM     15  C   UNL     1       2.692   2.394  21.375  0.00  0.00    +0.000 C 
ENDBRANCH   4  13
ENDBRANCH   1   2
BRANCH   1  16
ATOM     16  C   UNL     1       6.072   5.684  17.995  0.00  0.00    +0.000 C 
ATOM     17  C   UNL     1       6.364   7.087  17.466  0.00  0.00    +0.000 C 
ATOM     18  C   UNL     1       6.458   5.508  19.464  0.00  0.00    +0.000 C 
ENDBRANCH   1  16
BRANCH   1  19
ATOM     19  C   UNL     1       4.541   4.365  16.522  0.00  0.00    +0.000 C 
BRANCH  19  20
ATOM     20  C   UNL     1       5.772   3.682  15.940  0.00  0.00    +0.000 C 
BRANCH  20  22
ATOM     21  N   UNL     1       6.160   3.260  13.595  0.00  0.00    +0.000 N 
ATOM     22  C   UNL     1       6.150   4.214  14.587  0.00  0.00    +0.000 C 
ATOM     23  O   UNL     1       6.473   5.386  14.423  0.00  0.00    +0.000 OA
ATOM     24  H   UNL     1       5.875   2.312  13.803  0.00  0.00    +0.000 HD
BRANCH  21  25
ATOM     25  C   UNL     1       6.573   3.563  12.244  0.00  0.00    +0.000 C 
BRANCH  25  27
ATOM     26  C   UNL     1       5.931   1.293  11.303  0.00  0.00    +0.000 C 
ATOM     27  C   UNL     1       5.731   2.808  11.204  0.00  0.00    +0.000 C 
ATOM     28  C   UNL     1       4.254   3.155  11.385  0.00  0.00    +0.000 C 
ENDBRANCH  25  27
ENDBRANCH  21  25
ENDBRANCH  20  22
ENDBRANCH  19  20
ENDBRANCH   1  19
TORSDOF 8
ENDMDL
MODEL 2
REMARK VINA RESULT:      -7.9      1.283      1.700
REMARK  Name = 
REMARK  12 active torsions:
REMARK  status: ('A' for Active; 'I' for Inactive)
REMARK    1  A    between atoms: C_1  and  C_2
REMARK    2  A    between atoms: C_2  and  C_3
REMARK    3  A    between atoms: C_2  and  C_4
REMARK    4  A    between atoms: C_4  and  N_5
REMARK    5  A    between atoms: C_6  and  C_8
REMARK    6  A    between atoms: C_8  and  C_9
REMARK    7  A    between atoms: C_9  and  N_10
REMARK    8  A    between atoms: N_10  and  C_11
REMARK    9  A    between atoms: N_10  and  C_25
REMARK   10  A    between atoms: C_13  and  C_14
REMARK   11  A    between atoms: C_25  and  C_26
REMARK   12  A    between atoms: C_25  and  C_27
REMARK                            x       y       z     vdW  Elec       q    Type
REMARK                         _______ _______ _______ _____ _____    ______ ____
ROOT
ATOM      1  N   UNL     1       5.845   6.178  17.575  0.00  0.00    +0.000 N 
ENDROOT
BRANCH   1   2
ATOM      2  C   UNL     1       4.667   5.842  18.227  0.00  0.00    +0.000 A 
ATOM      3  N   UNL     1       4.581   4.584  18.704  0.00  0.00    +0.000 NA
ATOM      4  C   UNL     1       3.529   4.230  19.466  0.00  0.00    +0.000 A 
ATOM      5  N   UNL     1       2.583   5.097  19.857  0.00  0.00    +0.000 NA
ATOM      6  C   UNL     1       2.621   6.323  19.338  0.00  0.00    +0.000 A 
ATOM      7  C   UNL     1       1.635   7.220  19.728  0.00  0.00    +0.000 A 
ATOM      8  C   UNL     1       1.583   8.509  19.204  0.00  0.00    +0.000 A 
ATOM      9 CL   UNL     1       0.398   9.620  19.768  0.00  0.00    +0.000 Cl
ATOM     10  C   UNL     1       2.475   8.899  18.220  0.00  0.00    +0.000 A 
ATOM     11  C   UNL     1       3.452   8.001  17.809  0.00  0.00    +0.000 A 
ATOM     12  C   UNL     1       3.604   6.740  18.433  0.00  0.00    +0.000 A 
BRANCH   4  13
ATOM     13  C   UNL     1       3.378   2.781  19.876  0.00  0.00    +0.000 C 
ATOM     14  C   UNL     1       2.187   1.989  19.376  0.00  0.00    +0.000 C 
ATOM     15  C   UNL     1       3.557   1.675  18.858  0.00  0.00    +0.000 C 
ENDBRANCH   4  13
ENDBRANCH   1   2
BRANCH   1  16
ATOM     16  C   UNL     1       6.982   6.710  18.368  0.00  0.00    +0.000 C 
ATOM     17  C   UNL     1       7.906   5.635  18.936  0.00  0.00    +0.000 C 
ATOM     18  C   UNL     1       7.736   7.807  17.614  0.00  0.00    +0.000 C 
ENDBRANCH   1  16
BRANCH   1  19
ATOM     19  C   UNL     1       6.122   5.981  16.136  0.00  0.00    +0.000 C 
BRANCH  19  20
ATOM     20  C   UNL     1       6.911   4.754  15.696  0.00  0.00    +0.000 C 
BRANCH  20  22
ATOM     21  N   UNL     1       6.349   3.663  13.616  0.00  0.00    +0.000 N 
ATOM     22  C   UNL     1       7.078   4.672  14.205  0.00  0.00    +0.000 C 
ATOM     23  O   UNL     1       7.847   5.412  13.601  0.00  0.00    +0.000 OA
ATOM     24  H   UNL     1       5.729   3.094  14.178  0.00  0.00    +0.000 HD
BRANCH  21  25
ATOM     25  C   UNL     1       6.438   3.376  12.203  0.00  0.00    +0.000 C 
BRANCH  25  27
ATOM     26  C   UNL     1       4.252   2.991  10.970  0.00  0.00    +0.000 C 
ATOM     27  C   UNL     1       5.392   2.342  11.761  0.00  0.00    +0.000 C 
ATOM     28  C   UNL     1       6.062   1.257  10.921  0.00  0.00    +0.000 C 
ENDBRANCH  25  27
ENDBRANCH  21  25
ENDBRANCH  20  22
ENDBRANCH  19  20
ENDBRANCH   1  19
TORSDOF 8
ENDMDL
MODEL 3
REMARK VINA RESULT:      -7.6      2.403      4.095
REMARK  Name = 
REMARK  12 active torsions:
REMARK  status: ('A' for Active; 'I' for Inactive)
REMARK    1  A    between atoms: C_1  and  C_2
REMARK    2  A    between atoms: C_2  and  C_3
REMARK    3  A    between atoms: C_2  and  C_4
REMARK    4  A    between atoms: C_4  and  N_5
REMARK    5  A    between atoms: C_6  and  C_8
REMARK    6  A    between atoms: C_8  and  C_9
REMARK    7  A    between atoms: C_9  and  N_10
REMARK    8  A    between atoms: N_10  and  C_11
REMARK    9  A    between atoms: N_10  and  C_25
REMARK   10  A    between atoms: C_13  and  C_14
REMARK   11  A    between atoms: C_25  and  C_26
REMARK   12  A    between atoms: C_25  and  C_27
REMARK                            x       y       z     vdW  Elec       q    Type
REMARK                         _______ _______ _______ _____ _____    ______ ____
ROOT
ATOM      1  N   UNL     1       5.735   6.532  17.337  0.00  0.00    +0.000 N 
ENDROOT
BRANCH   1   2
ATOM      2  C   UNL     1       4.459   6.440  17.874  0.00  0.00    +0.000 A 
ATOM      3  N   UNL     1       3.797   7.600  18.055  0.00  0.00    +0.000 NA
ATOM      4  C   UNL     1       2.506   7.579  18.440  0.00  0.00    +0.000 A 
ATOM      5  N   UNL     1       1.802   6.446  18.577  0.00  0.00    +0.000 NA
ATOM      6  C   UNL     1       2.462   5.295  18.468  0.00  0.00    +0.000 A 
ATOM      7  C   UNL     1       1.739   4.119  18.623  0.00  0.00    +0.000 A 
ATOM      8  C   UNL     1       2.361   2.875  18.559  0.00  0.00    +0.000 A 
ATOM      9 CL   UNL     1       1.425   1.437  18.676  0.00  0.00    +0.000 Cl
ATOM     10  C   UNL     1       3.735   2.788  18.413  0.00  0.00    +0.000 A 
ATOM     11  C   UNL     1       4.469   3.960  18.277  0.00  0.00    +0.000 A 
ATOM     12  C   UNL     1       3.834   5.222  18.198  0.00  0.00    +0.000 A 
BRANCH   4  13
ATOM     13  C   UNL     1       1.822   8.887  18.772  0.00  0.00    +0.000 C 
ATOM     14  C   UNL     1       2.054  10.091  17.881  0.00  0.00    +0.000 C 
ATOM     15  C   UNL     1       0.715   9.418  17.885  0.00  0.00    +0.000 C 
ENDBRANCH   4  13
ENDBRANCH   1   2
BRANCH   1  16
ATOM     16  C   UNL     1       6.872   6.868  18.231  0.00  0.00    +0.000 C 
ATOM     17  C   UNL     1       7.640   5.654  18.749  0.00  0.00    +0.000 C 
ATOM     18  C   UNL     1       7.782   7.932  17.616  0.00  0.00    +0.000 C 
ENDBRANCH   1  16
BRANCH   1  19
ATOM     19  C   UNL     1       6.105   6.243  15.934  0.00  0.00    +0.000 C 
BRANCH  19  20
ATOM     20  C   UNL     1       6.835   4.944  15.615  0.00  0.00    +0.000 C 
BRANCH  20  22
ATOM     21  N   UNL     1       6.344   3.703  13.603  0.00  0.00    +0.000 N 
ATOM     22  C   UNL     1       7.059   4.748  14.143  0.00  0.00    +0.000 C 
ATOM     23  O   UNL     1       7.860   5.435  13.516  0.00  0.00    +0.000 OA
ATOM     24  H   UNL     1       5.697   3.183  14.181  0.00  0.00    +0.000 HD
BRANCH  21  25
ATOM     25  C   UNL     1       6.486   3.310  12.220  0.00  0.00    +0.000 C 
BRANCH  25  27
ATOM     26  C   UNL     1       4.244   2.969  11.076  0.00  0.00    +0.000 C 
ATOM     27  C   UNL     1       5.413   2.294  11.800  0.00  0.00    +0.000 C 
ATOM     28  C   UNL     1       6.037   1.225  10.905  0.00  0.00    +0.000 C 
ENDBRANCH  25  27
ENDBRANCH  21  25
ENDBRANCH  20  22
ENDBRANCH  19  20
ENDBRANCH   1  19
TORSDOF 8
ENDMDL
MODEL 4
REMARK VINA RESULT:      -7.5      1.991      3.828
REMARK  Name = 
REMARK  12 active torsions:
REMARK  status: ('A' for Active; 'I' for Inactive)
REMARK    1  A    between atoms: C_1  and  C_2
REMARK    2  A    between atoms: C_2  and  C_3
REMARK    3  A    between atoms: C_2  and  C_4
REMARK    4  A    between atoms: C_4  and  N_5
REMARK    5  A    between atoms: C_6  and  C_8
REMARK    6  A    between atoms: C_8  and  C_9
REMARK    7  A    between atoms: C_9  and  N_10
REMARK    8  A    between atoms: N_10  and  C_11
REMARK    9  A    between atoms: N_10  and  C_25
REMARK   10  A    between atoms: C_13  and  C_14
REMARK   11  A    between atoms: C_25  and  C_26
REMARK   12  A    between atoms: C_25  and  C_27
REMARK                            x       y       z     vdW  Elec       q    Type
REMARK                         _______ _______ _______ _____ _____    ______ ____
ROOT
ATOM      1  N   UNL     1       5.887   5.638  17.945  0.00  0.00    +0.000 N 
ENDROOT
BRANCH   1   2
ATOM      2  C   UNL     1       4.620   5.977  18.397  0.00  0.00    +0.000 A 
ATOM      3  N   UNL     1       4.104   7.132  17.930  0.00  0.00    +0.000 NA
ATOM      4  C   UNL     1       2.828   7.456  18.215  0.00  0.00    +0.000 A 
ATOM      5  N   UNL     1       1.996   6.640  18.879  0.00  0.00    +0.000 NA
ATOM      6  C   UNL     1       2.512   5.530  19.402  0.00  0.00    +0.000 A 
ATOM      7  C   UNL     1       1.658   4.689  20.103  0.00  0.00    +0.000 A 
ATOM      8  C   UNL     1       2.126   3.526  20.711  0.00  0.00    +0.000 A 
ATOM      9 CL   UNL     1       1.028   2.468  21.504  0.00  0.00    +0.000 Cl
ATOM     10  C   UNL     1       3.476   3.224  20.691  0.00  0.00    +0.000 A 
ATOM     11  C   UNL     1       4.342   4.071  20.009  0.00  0.00    +0.000 A 
ATOM     12  C   UNL     1       3.860   5.176  19.269  0.00  0.00    +0.000 A 
BRANCH   4  13
ATOM     13  C   UNL     1       2.310   8.817  17.801  0.00  0.00    +0.000 C 
ATOM     14  C   UNL     1       0.830   8.995  17.530  0.00  0.00    +0.000 C 
ATOM     15  C   UNL     1       1.444   9.625  18.744  0.00  0.00    +0.000 C 
ENDBRANCH   4  13
ENDBRANCH   1   2
BRANCH   1  16
ATOM     16  C   UNL     1       7.051   6.449  18.383  0.00  0.00    +0.000 C 
ATOM     17  C   UNL     1       8.089   5.669  19.188  0.00  0.00    +0.000 C 
ATOM     18  C   UNL     1       7.663   7.237  17.224  0.00  0.00    +0.000 C 
ENDBRANCH   1  16
BRANCH   1  19
ATOM     19  C   UNL     1       6.220   4.464  17.109  0.00  0.00    +0.000 C 
BRANCH  19  20
ATOM     20  C   UNL     1       5.313   4.110  15.937  0.00  0.00    +0.000 C 
BRANCH  20  22
ATOM     21  N   UNL     1       5.999   3.405  13.732  0.00  0.00    +0.000 N 
ATOM     22  C   UNL     1       5.913   4.464  14.606  0.00  0.00    +0.000 C 
ATOM     23  O   UNL     1       6.335   5.592  14.370  0.00  0.00    +0.000 OA
ATOM     24  H   UNL     1       5.623   2.502  13.994  0.00  0.00    +0.000 HD
BRANCH  21  25
ATOM     25  C   UNL     1       6.617   3.530  12.433  0.00  0.00    +0.000 C 
BRANCH  25  27
ATOM     26  C   UNL     1       5.976   1.321  11.355  0.00  0.00    +0.000 C 
ATOM     27  C   UNL     1       5.792   2.842  11.335  0.00  0.00    +0.000 C 
ATOM     28  C   UNL     1       4.315   3.193  11.504  0.00  0.00    +0.000 C 
ENDBRANCH  25  27
ENDBRANCH  21  25
ENDBRANCH  20  22
ENDBRANCH  19  20
ENDBRANCH   1  19
TORSDOF 8
ENDMDL
MODEL 5
REMARK VINA RESULT:      -7.4      2.903      6.228
REMARK  Name = 
REMARK  12 active torsions:
REMARK  status: ('A' for Active; 'I' for Inactive)
REMARK    1  A    between atoms: C_1  and  C_2
REMARK    2  A    between atoms: C_2  and  C_3
REMARK    3  A    between atoms: C_2  and  C_4
REMARK    4  A    between atoms: C_4  and  N_5
REMARK    5  A    between atoms: C_6  and  C_8
REMARK    6  A    between atoms: C_8  and  C_9
REMARK    7  A    between atoms: C_9  and  N_10
REMARK    8  A    between atoms: N_10  and  C_11
REMARK    9  A    between atoms: N_10  and  C_25
REMARK   10  A    between atoms: C_13  and  C_14
REMARK   11  A    between atoms: C_25  and  C_26
REMARK   12  A    between atoms: C_25  and  C_27
REMARK                            x       y       z     vdW  Elec       q    Type
REMARK                         _______ _______ _______ _____ _____    ______ ____
ROOT
ATOM      1  N   UNL     1       5.572   4.704  17.669  0.00  0.00    +0.000 N 
ENDROOT
BRANCH   1   2
ATOM      2  C   UNL     1       4.517   5.249  18.387  0.00  0.00    +0.000 A 
ATOM      3  N   UNL     1       4.133   6.494  18.041  0.00  0.00    +0.000 NA
ATOM      4  C   UNL     1       3.030   7.031  18.598  0.00  0.00    +0.000 A 
ATOM      5  N   UNL     1       2.227   6.354  19.432  0.00  0.00    +0.000 NA
ATOM      6  C   UNL     1       2.632   5.150  19.833  0.00  0.00    +0.000 A 
ATOM      7  C   UNL     1       1.811   4.452  20.707  0.00  0.00    +0.000 A 
ATOM      8  C   UNL     1       2.178   3.202  21.202  0.00  0.00    +0.000 A 
ATOM      9 CL   UNL     1       1.103   2.329  22.220  0.00  0.00    +0.000 Cl
ATOM     10  C   UNL     1       3.413   2.664  20.887  0.00  0.00    +0.000 A 
ATOM     11  C   UNL     1       4.251   3.365  20.028  0.00  0.00    +0.000 A 
ATOM     12  C   UNL     1       3.831   4.566  19.408  0.00  0.00    +0.000 A 
BRANCH   4  13
ATOM     13  C   UNL     1       2.694   8.477  18.303  0.00  0.00    +0.000 C 
ATOM     14  C   UNL     1       1.424   8.801  17.542  0.00  0.00    +0.000 C 
ATOM     15  C   UNL     1       1.527   9.147  18.996  0.00  0.00    +0.000 C 
ENDBRANCH   4  13
ENDBRANCH   1   2
BRANCH   1  16
ATOM     16  C   UNL     1       5.285   3.953  16.421  0.00  0.00    +0.000 C 
ATOM     17  C   UNL     1       3.912   3.285  16.396  0.00  0.00    +0.000 C 
ATOM     18  C   UNL     1       5.561   4.796  15.175  0.00  0.00    +0.000 C 
ENDBRANCH   1  16
BRANCH   1  19
ATOM     19  C   UNL     1       7.007   4.866  17.987  0.00  0.00    +0.000 C 
BRANCH  19  20
ATOM     20  C   UNL     1       7.468   6.126  18.709  0.00  0.00    +0.000 C 
BRANCH  20  22
ATOM     21  N   UNL     1       8.062   8.446  18.402  0.00  0.00    +0.000 N 
ATOM     22  C   UNL     1       7.772   7.259  17.770  0.00  0.00    +0.000 C 
ATOM     23  O   UNL     1       7.702   7.123  16.553  0.00  0.00    +0.000 OA
ATOM     24  H   UNL     1       8.108   8.482  19.413  0.00  0.00    +0.000 HD
BRANCH  21  25
ATOM     25  C   UNL     1       8.305   9.667  17.669  0.00  0.00    +0.000 C 
BRANCH  25  27
ATOM     26  C   UNL     1       9.240  12.010  17.958  0.00  0.00    +0.000 C 
ATOM     27  C   UNL     1       9.383  10.533  18.338  0.00  0.00    +0.000 C 
ATOM     28  C   UNL     1       9.306  10.372  19.855  0.00  0.00    +0.000 C 
ENDBRANCH  25  27
ENDBRANCH  21  25
ENDBRANCH  20  22
ENDBRANCH  19  20
ENDBRANCH   1  19
TORSDOF 8
ENDMDL
MODEL 6
REMARK VINA RESULT:      -7.3      1.082      1.484
REMARK  Name = 
REMARK  12 active torsions:
REMARK  status: ('A' for Active; 'I' for Inactive)
REMARK    1  A    between atoms: C_1  and  C_2
REMARK    2  A    between atoms: C_2  and  C_3
REMARK    3  A    between atoms: C_2  and  C_4
REMARK    4  A    between atoms: C_4  and  N_5
REMARK    5  A    between atoms: C_6  and  C_8
REMARK    6  A    between atoms: C_8  and  C_9
REMARK    7  A    between atoms: C_9  and  N_10
REMARK    8  A    between atoms: N_10  and  C_11
REMARK    9  A    between atoms: N_10  and  C_25
REMARK   10  A    between atoms: C_13  and  C_14
REMARK   11  A    between atoms: C_25  and  C_26
REMARK   12  A    between atoms: C_25  and  C_27
REMARK                            x       y       z     vdW  Elec       q    Type
REMARK                         _______ _______ _______ _____ _____    ______ ____
ROOT
ATOM      1  N   UNL     1       5.566   4.665  17.702  0.00  0.00    +0.000 N 
ENDROOT
BRANCH   1   2
ATOM      2  C   UNL     1       4.325   4.824  18.302  0.00  0.00    +0.000 A 
ATOM      3  N   UNL     1       3.848   3.766  18.987  0.00  0.00    +0.000 NA
ATOM      4  C   UNL     1       2.718   3.893  19.710  0.00  0.00    +0.000 A 
ATOM      5  N   UNL     1       2.070   5.059  19.858  0.00  0.00    +0.000 NA
ATOM      6  C   UNL     1       2.493   6.092  19.132  0.00  0.00    +0.000 A 
ATOM      7  C   UNL     1       1.817   7.297  19.271  0.00  0.00    +0.000 A 
ATOM      8  C   UNL     1       2.173   8.416  18.522  0.00  0.00    +0.000 A 
ATOM      9 CL   UNL     1       1.368   9.914  18.775  0.00  0.00    +0.000 Cl
ATOM     10  C   UNL     1       3.167   8.326  17.563  0.00  0.00    +0.000 A 
ATOM     11  C   UNL     1       3.835   7.118  17.403  0.00  0.00    +0.000 A 
ATOM     12  C   UNL     1       3.580   6.017  18.254  0.00  0.00    +0.000 A 
BRANCH   4  13
ATOM     13  C   UNL     1       2.123   2.662  20.359  0.00  0.00    +0.000 C 
ATOM     14  C   UNL     1       2.494   2.327  21.790  0.00  0.00    +0.000 C 
ATOM     15  C   UNL     1       1.107   2.799  21.472  0.00  0.00    +0.000 C 
ENDBRANCH   4  13
ENDBRANCH   1   2
BRANCH   1  16
ATOM     16  C   UNL     1       6.780   4.620  18.555  0.00  0.00    +0.000 C 
ATOM     17  C   UNL     1       8.075   4.364  17.787  0.00  0.00    +0.000 C 
ATOM     18  C   UNL     1       6.867   5.833  19.483  0.00  0.00    +0.000 C 
ENDBRANCH   1  16
BRANCH   1  19
ATOM     19  C   UNL     1       5.806   4.449  16.258  0.00  0.00    +0.000 C 
BRANCH  19  20
ATOM     20  C   UNL     1       6.506   5.537  15.454  0.00  0.00    +0.000 C 
BRANCH  20  22
ATOM     21  N   UNL     1       6.162   4.076  13.564  0.00  0.00    +0.000 N 
ATOM     22  C   UNL     1       6.953   5.066  14.100  0.00  0.00    +0.000 C 
ATOM     23  O   UNL     1       7.971   5.501  13.570  0.00  0.00    +0.000 OA
ATOM     24  H   UNL     1       5.332   3.770  14.056  0.00  0.00    +0.000 HD
BRANCH  21  25
ATOM     25  C   UNL     1       6.475   3.441  12.304  0.00  0.00    +0.000 C 
BRANCH  25  27
ATOM     26  C   UNL     1       4.246   3.090  11.140  0.00  0.00    +0.000 C 
ATOM     27  C   UNL     1       5.401   2.423  11.892  0.00  0.00    +0.000 C 
ATOM     28  C   UNL     1       6.030   1.331  11.028  0.00  0.00    +0.000 C 
ENDBRANCH  25  27
ENDBRANCH  21  25
ENDBRANCH  20  22
ENDBRANCH  19  20
ENDBRANCH   1  19
TORSDOF 8
ENDMDL
MODEL 7
REMARK VINA RESULT:      -7.3      2.333      4.981
REMARK  Name = 
REMARK  12 active torsions:
REMARK  status: ('A' for Active; 'I' for Inactive)
REMARK    1  A    between atoms: C_1  and  C_2
REMARK    2  A    between atoms: C_2  and  C_3
REMARK    3  A    between atoms: C_2  and  C_4
REMARK    4  A    between atoms: C_4  and  N_5
REMARK    5  A    between atoms: C_6  and  C_8
REMARK    6  A    between atoms: C_8  and  C_9
REMARK    7  A    between atoms: C_9  and  N_10
REMARK    8  A    between atoms: N_10  and  C_11
REMARK    9  A    between atoms: N_10  and  C_25
REMARK   10  A    between atoms: C_13  and  C_14
REMARK   11  A    between atoms: C_25  and  C_26
REMARK   12  A    between atoms: C_25  and  C_27
REMARK                            x       y       z     vdW  Elec       q    Type
REMARK                         _______ _______ _______ _____ _____    ______ ____
ROOT
ATOM      1  N   UNL     1       5.395   4.869  17.416  0.00  0.00    +0.000 N 
ENDROOT
BRANCH   1   2
ATOM      2  C   UNL     1       4.241   4.974  18.179  0.00  0.00    +0.000 A 
ATOM      3  N   UNL     1       3.879   3.880  18.877  0.00  0.00    +0.000 NA
ATOM      4  C   UNL     1       2.851   3.952  19.746  0.00  0.00    +0.000 A 
ATOM      5  N   UNL     1       2.207   5.095  20.024  0.00  0.00    +0.000 NA
ATOM      6  C   UNL     1       2.510   6.165  19.292  0.00  0.00    +0.000 A 
ATOM      7  C   UNL     1       1.835   7.347  19.567  0.00  0.00    +0.000 A 
ATOM      8  C   UNL     1       2.068   8.502  18.824  0.00  0.00    +0.000 A 
ATOM      9 CL   UNL     1       1.274   9.969  19.241  0.00  0.00    +0.000 Cl
ATOM     10  C   UNL     1       2.929   8.473  17.740  0.00  0.00    +0.000 A 
ATOM     11  C   UNL     1       3.593   7.289  17.445  0.00  0.00    +0.000 A 
ATOM     12  C   UNL     1       3.474   6.150  18.277  0.00  0.00    +0.000 A 
BRANCH   4  13
ATOM     13  C   UNL     1       2.371   2.683  20.416  0.00  0.00    +0.000 C 
ATOM     14  C   UNL     1       2.478   2.555  21.922  0.00  0.00    +0.000 C 
ATOM     15  C   UNL     1       1.130   2.698  21.283  0.00  0.00    +0.000 C 
ENDBRANCH   4  13
ENDBRANCH   1   2
BRANCH   1  16
ATOM     16  C   UNL     1       5.275   4.676  15.949  0.00  0.00    +0.000 C 
ATOM     17  C   UNL     1       5.330   5.971  15.142  0.00  0.00    +0.000 C 
ATOM     18  C   UNL     1       6.245   3.611  15.435  0.00  0.00    +0.000 C 
ENDBRANCH   1  16
BRANCH   1  19
ATOM     19  C   UNL     1       6.779   5.012  17.918  0.00  0.00    +0.000 C 
BRANCH  19  20
ATOM     20  C   UNL     1       7.178   6.300  18.628  0.00  0.00    +0.000 C 
BRANCH  20  22
ATOM     21  N   UNL     1       8.068   8.520  18.303  0.00  0.00    +0.000 N 
ATOM     22  C   UNL     1       7.753   7.327  17.695  0.00  0.00    +0.000 C 
ATOM     23  O   UNL     1       7.864   7.113  16.492  0.00  0.00    +0.000 OA
ATOM     24  H   UNL     1       7.955   8.623  19.304  0.00  0.00    +0.000 HD
BRANCH  21  25
ATOM     25  C   UNL     1       8.560   9.655  17.557  0.00  0.00    +0.000 C 
BRANCH  25  27
ATOM     26  C   UNL     1       9.396  10.268  19.876  0.00  0.00    +0.000 C 
ATOM     27  C   UNL     1       9.033  10.788  18.481  0.00  0.00    +0.000 C 
ATOM     28  C   UNL     1      10.234  11.495  17.856  0.00  0.00    +0.000 C 
ENDBRANCH  25  27
ENDBRANCH  21  25
ENDBRANCH  20  22
ENDBRANCH  19  20
ENDBRANCH   1  19
TORSDOF 8
ENDMDL
MODEL 8
REMARK VINA RESULT:      -7.3      3.367      6.570
REMARK  Name = 
REMARK  12 active torsions:
REMARK  status: ('A' for Active; 'I' for Inactive)
REMARK    1  A    between atoms: C_1  and  C_2
REMARK    2  A    between atoms: C_2  and  C_3
REMARK    3  A    between atoms: C_2  and  C_4
REMARK    4  A    between atoms: C_4  and  N_5
REMARK    5  A    between atoms: C_6  and  C_8
REMARK    6  A    between atoms: C_8  and  C_9
REMARK    7  A    between atoms: C_9  and  N_10
REMARK    8  A    between atoms: N_10  and  C_11
REMARK    9  A    between atoms: N_10  and  C_25
REMARK   10  A    between atoms: C_13  and  C_14
REMARK   11  A    between atoms: C_25  and  C_26
REMARK   12  A    between atoms: C_25  and  C_27
REMARK                            x       y       z     vdW  Elec       q    Type
REMARK                         _______ _______ _______ _____ _____    ______ ____
ROOT
ATOM      1  N   UNL     1       6.064   5.294  16.941  0.00  0.00    +0.000 N 
ENDROOT
BRANCH   1   2
ATOM      2  C   UNL     1       4.813   5.545  17.485  0.00  0.00    +0.000 A 
ATOM      3  N   UNL     1       4.426   6.835  17.535  0.00  0.00    +0.000 NA
ATOM      4  C   UNL     1       3.172   7.142  17.921  0.00  0.00    +0.000 A 
ATOM      5  N   UNL     1       2.239   6.214  18.183  0.00  0.00    +0.000 NA
ATOM      6  C   UNL     1       2.628   4.940  18.203  0.00  0.00    +0.000 A 
ATOM      7  C   UNL     1       1.669   3.978  18.488  0.00  0.00    +0.000 A 
ATOM      8  C   UNL     1       2.001   2.627  18.563  0.00  0.00    +0.000 A 
ATOM      9 CL   UNL     1       0.776   1.453  18.840  0.00  0.00    +0.000 Cl
ATOM     10  C   UNL     1       3.318   2.224  18.428  0.00  0.00    +0.000 A 
ATOM     11  C   UNL     1       4.288   3.183  18.162  0.00  0.00    +0.000 A 
ATOM     12  C   UNL     1       3.943   4.538  17.943  0.00  0.00    +0.000 A 
BRANCH   4  13
ATOM     13  C   UNL     1       2.800   8.597  18.105  0.00  0.00    +0.000 C 
ATOM     14  C   UNL     1       1.470   9.094  17.573  0.00  0.00    +0.000 C 
ATOM     15  C   UNL     1       1.685   8.988  19.052  0.00  0.00    +0.000 C 
ENDBRANCH   4  13
ENDBRANCH   1   2
BRANCH   1  16
ATOM     16  C   UNL     1       6.196   5.152  15.469  0.00  0.00    +0.000 C 
ATOM     17  C   UNL     1       6.084   3.714  14.967  0.00  0.00    +0.000 C 
ATOM     18  C   UNL     1       5.277   6.118  14.721  0.00  0.00    +0.000 C 
ENDBRANCH   1  16
BRANCH   1  19
ATOM     19  C   UNL     1       7.336   5.230  17.693  0.00  0.00    +0.000 C 
BRANCH  19  20
ATOM     20  C   UNL     1       7.659   6.331  18.695  0.00  0.00    +0.000 C 
BRANCH  20  22
ATOM     21  N   UNL     1       8.598   8.550  18.855  0.00  0.00    +0.000 N 
ATOM     22  C   UNL     1       7.955   7.649  18.038  0.00  0.00    +0.000 C 
ATOM     23  O   UNL     1       7.590   7.894  16.892  0.00  0.00    +0.000 OA
ATOM     24  H   UNL     1       8.875   8.275  19.789  0.00  0.00    +0.000 HD
BRANCH  21  25
ATOM     25  C   UNL     1       8.897   9.897  18.428  0.00  0.00    +0.000 C 
BRANCH  25  27
ATOM     26  C   UNL     1      10.771  11.606  18.560  0.00  0.00    +0.000 C 
ATOM     27  C   UNL     1       9.951  10.563  19.326  0.00  0.00    +0.000 C 
ATOM     28  C   UNL     1       9.269  11.212  20.529  0.00  0.00    +0.000 C 
ENDBRANCH  25  27
ENDBRANCH  21  25
ENDBRANCH  20  22
ENDBRANCH  19  20
ENDBRANCH   1  19
TORSDOF 8
ENDMDL
MODEL 9
REMARK VINA RESULT:      -7.3      1.148      1.240
REMARK  Name = 
REMARK  12 active torsions:
REMARK  status: ('A' for Active; 'I' for Inactive)
REMARK    1  A    between atoms: C_1  and  C_2
REMARK    2  A    between atoms: C_2  and  C_3
REMARK    3  A    between atoms: C_2  and  C_4
REMARK    4  A    between atoms: C_4  and  N_5
REMARK    5  A    between atoms: C_6  and  C_8
REMARK    6  A    between atoms: C_8  and  C_9
REMARK    7  A    between atoms: C_9  and  N_10
REMARK    8  A    between atoms: N_10  and  C_11
REMARK    9  A    between atoms: N_10  and  C_25
REMARK   10  A    between atoms: C_13  and  C_14
REMARK   11  A    between atoms: C_25  and  C_26
REMARK   12  A    between atoms: C_25  and  C_27
REMARK                            x       y       z     vdW  Elec       q    Type
REMARK                         _______ _______ _______ _____ _____    ______ ____
ROOT
ATOM      1  N   UNL     1       5.709   5.780  17.239  0.00  0.00    +0.000 N 
ENDROOT
BRANCH   1   2
ATOM      2  C   UNL     1       4.613   5.633  18.078  0.00  0.00    +0.000 A 
ATOM      3  N   UNL     1       4.524   4.470  18.753  0.00  0.00    +0.000 NA
ATOM      4  C   UNL     1       3.566   4.312  19.687  0.00  0.00    +0.000 A 
ATOM      5  N   UNL     1       2.730   5.295  20.052  0.00  0.00    +0.000 NA
ATOM      6  C   UNL     1       2.765   6.424  19.347  0.00  0.00    +0.000 A 
ATOM      7  C   UNL     1       1.892   7.440  19.712  0.00  0.00    +0.000 A 
ATOM      8  C   UNL     1       1.839   8.638  19.004  0.00  0.00    +0.000 A 
ATOM      9 CL   UNL     1       0.804   9.905  19.530  0.00  0.00    +0.000 Cl
ATOM     10  C   UNL     1       2.610   8.810  17.867  0.00  0.00    +0.000 A 
ATOM     11  C   UNL     1       3.473   7.791  17.482  0.00  0.00    +0.000 A 
ATOM     12  C   UNL     1       3.638   6.629  18.273  0.00  0.00    +0.000 A 
BRANCH   4  13
ATOM     13  C   UNL     1       3.394   2.955  20.334  0.00  0.00    +0.000 C 
ATOM     14  C   UNL     1       2.895   1.793  19.498  0.00  0.00    +0.000 C 
ATOM     15  C   UNL     1       4.317   1.811  19.971  0.00  0.00    +0.000 C 
ENDBRANCH   4  13
ENDBRANCH   1   2
BRANCH   1  16
ATOM     16  C   UNL     1       6.988   6.279  17.804  0.00  0.00    +0.000 C 
ATOM     17  C   UNL     1       7.208   7.780  17.623  0.00  0.00    +0.000 C 
ATOM     18  C   UNL     1       7.191   5.816  19.247  0.00  0.00    +0.000 C 
ENDBRANCH   1  16
BRANCH   1  19
ATOM     19  C   UNL     1       5.759   5.404  15.810  0.00  0.00    +0.000 C 
BRANCH  19  20
ATOM     20  C   UNL     1       6.888   4.505  15.321  0.00  0.00    +0.000 C 
BRANCH  20  22
ATOM     21  N   UNL     1       6.589   3.586  13.108  0.00  0.00    +0.000 N 
ATOM     22  C   UNL     1       7.126   4.619  13.843  0.00  0.00    +0.000 C 
ATOM     23  O   UNL     1       7.795   5.531  13.367  0.00  0.00    +0.000 OA
ATOM     24  H   UNL     1       6.043   2.870  13.569  0.00  0.00    +0.000 HD
BRANCH  21  25
ATOM     25  C   UNL     1       6.780   3.480  11.680  0.00  0.00    +0.000 C 
BRANCH  25  27
ATOM     26  C   UNL     1       5.884   1.132  11.313  0.00  0.00    +0.000 C 
ATOM     27  C   UNL     1       5.691   2.623  11.018  0.00  0.00    +0.000 C 
ATOM     28  C   UNL     1       4.314   3.078  11.497  0.00  0.00    +0.000 C 
ENDBRANCH  25  27
ENDBRANCH  21  25
ENDBRANCH  20  22
ENDBRANCH  19  20
ENDBRANCH   1  19
TORSDOF 8
ENDMDL
