MODEL 1
REMARK VINA RESULT:      -7.3      0.000      0.000
REMARK  Name = 
REMARK  7 active torsions:
REMARK  status: ('A' for Active; 'I' for Inactive)
REMARK    1  A    between atoms: C_1  and  C_2
REMARK    2  A    between atoms: C_4  and  N_5
REMARK    3  A    between atoms: C_12  and  C_13
REMARK    4  A    between atoms: C_13  and  O_15
REMARK    5  A    between atoms: O_15  and  C_16
REMARK    6  A    between atoms: C_16  and  C_17
REMARK    7  A    between atoms: C_17  and  N_18
REMARK                            x       y       z     vdW  Elec       q    Type
REMARK                         _______ _______ _______ _____ _____    ______ ____
ROOT
ATOM      1  C   UNL     1       5.031   6.715  16.418  0.00  0.00    +0.000 C 
ATOM      2  C   UNL     1       4.069   6.671  17.577  0.00  0.00    +0.000 A 
ATOM      3  C   UNL     1       3.168   7.742  17.739  0.00  0.00    +0.000 A 
ATOM      4  C   UNL     1       2.309   7.807  18.849  0.00  0.00    +0.000 A 
ATOM      5  C   UNL     1       2.331   6.786  19.802  0.00  0.00    +0.000 A 
ATOM      6  C   UNL     1       3.190   5.699  19.630  0.00  0.00    +0.000 A 
ATOM      7  C   UNL     1       4.063   5.631  18.528  0.00  0.00    +0.000 A 
ENDROOT
BRANCH   4   8
ATOM      8  N   UNL     1       1.427   8.907  18.981  0.00  0.00    +0.000 N 
ATOM      9  C   UNL     1       0.966   9.514  20.125  0.00  0.00    +0.000 A 
ATOM     10  N   UNL     1       0.121  10.474  19.830  0.00  0.00    +0.000 NA
ATOM     11  C   UNL     1       0.098  10.435  18.472  0.00  0.00    +0.000 A 
ATOM     12  N   UNL     1       0.881   9.522  17.904  0.00  0.00    +0.000 NA
ENDBRANCH   4   8
BRANCH   7  13
ATOM     13  C   UNL     1       5.065   4.525  18.460  0.00  0.00    +0.000 C 
ATOM     14  O   UNL     1       5.955   4.311  19.262  0.00  0.00    +0.000 OA
BRANCH  13  15
ATOM     15  O   UNL     1       4.642   3.659  17.508  0.00  0.00    +0.000 OA
BRANCH  15  16
ATOM     16  C   UNL     1       3.266   3.260  17.610  0.00  0.00    +0.000 C 
BRANCH  16  17
ATOM     17  C   UNL     1       3.189   2.007  18.485  0.00  0.00    +0.000 C 
BRANCH  17  18
ATOM     18  N   UNL     1       2.683   2.290  19.814  0.00  0.00    +0.000 N 
ATOM     19  C   UNL     1       3.386   2.385  20.975  0.00  0.00    +0.000 A 
ATOM     20  N   UNL     1       2.571   2.693  21.959  0.00  0.00    +0.000 NA
ATOM     21  C   UNL     1       1.355   2.749  21.339  0.00  0.00    +0.000 A 
ATOM     22  N   UNL     1       1.371   2.500  20.027  0.00  0.00    +0.000 NA
ENDBRANCH  17  18
ENDBRANCH  16  17
ENDBRANCH  15  16
ENDBRANCH  13  15
ENDBRANCH   7  13
TORSDOF 6
ENDMDL
MODEL 2
REMARK VINA RESULT:      -7.2      3.790      5.817
REMARK  Name = 
REMARK  7 active torsions:
REMARK  status: ('A' for Active; 'I' for Inactive)
REMARK    1  A    between atoms: C_1  and  C_2
REMARK    2  A    between atoms: C_4  and  N_5
REMARK    3  A    between atoms: C_12  and  C_13
REMARK    4  A    between atoms: C_13  and  O_15
REMARK    5  A    between atoms: O_15  and  C_16
REMARK    6  A    between atoms: C_16  and  C_17
REMARK    7  A    between atoms: C_17  and  N_18
REMARK                            x       y       z     vdW  Elec       q    Type
REMARK                         _______ _______ _______ _____ _____    ______ ____
ROOT
ATOM      1  C   UNL     1       3.086   3.402  17.003  0.00  0.00    +0.000 C 
ATOM      2  C   UNL     1       4.491   3.927  16.859  0.00  0.00    +0.000 A 
ATOM      3  C   UNL     1       5.016   4.081  15.561  0.00  0.00    +0.000 A 
ATOM      4  C   UNL     1       6.349   4.478  15.359  0.00  0.00    +0.000 A 
ATOM      5  C   UNL     1       7.166   4.744  16.460  0.00  0.00    +0.000 A 
ATOM      6  C   UNL     1       6.644   4.634  17.750  0.00  0.00    +0.000 A 
ATOM      7  C   UNL     1       5.314   4.225  17.963  0.00  0.00    +0.000 A 
ENDROOT
BRANCH   4   8
ATOM      8  N   UNL     1       6.843   4.609  14.038  0.00  0.00    +0.000 N 
ATOM      9  C   UNL     1       6.521   3.881  12.918  0.00  0.00    +0.000 A 
ATOM     10  N   UNL     1       7.234   4.277  11.889  0.00  0.00    +0.000 NA
ATOM     11  C   UNL     1       7.986   5.276  12.422  0.00  0.00    +0.000 A 
ATOM     12  N   UNL     1       7.779   5.533  13.711  0.00  0.00    +0.000 NA
ENDBRANCH   4   8
BRANCH   7  13
ATOM     13  C   UNL     1       4.842   3.982  19.360  0.00  0.00    +0.000 C 
ATOM     14  O   UNL     1       4.906   2.930  19.967  0.00  0.00    +0.000 OA
BRANCH  13  15
ATOM     15  O   UNL     1       4.582   5.193  19.911  0.00  0.00    +0.000 OA
BRANCH  15  16
ATOM     16  C   UNL     1       3.426   5.869  19.390  0.00  0.00    +0.000 C 
BRANCH  16  17
ATOM     17  C   UNL     1       2.319   5.816  20.444  0.00  0.00    +0.000 C 
BRANCH  17  18
ATOM     18  N   UNL     1       1.912   4.459  20.751  0.00  0.00    +0.000 N 
ATOM     19  C   UNL     1       2.201   3.729  21.863  0.00  0.00    +0.000 A 
ATOM     20  N   UNL     1       1.616   2.555  21.783  0.00  0.00    +0.000 NA
ATOM     21  C   UNL     1       0.993   2.609  20.569  0.00  0.00    +0.000 A 
ATOM     22  N   UNL     1       1.152   3.751  19.895  0.00  0.00    +0.000 NA
ENDBRANCH  17  18
ENDBRANCH  16  17
ENDBRANCH  15  16
ENDBRANCH  13  15
ENDBRANCH   7  13
TORSDOF 6
ENDMDL
MODEL 3
REMARK VINA RESULT:      -7.0      4.585      7.414
REMARK  Name = 
REMARK  7 active torsions:
REMARK  status: ('A' for Active; 'I' for Inactive)
REMARK    1  A    between atoms: C_1  and  C_2
REMARK    2  A    between atoms: C_4  and  N_5
REMARK    3  A    between atoms: C_12  and  C_13
REMARK    4  A    between atoms: C_13  and  O_15
REMARK    5  A    between atoms: O_15  and  C_16
REMARK    6  A    between atoms: C_16  and  C_17
REMARK    7  A    between atoms: C_17  and  N_18
REMARK                            x       y       z     vdW  Elec       q    Type
REMARK                         _______ _______ _______ _____ _____    ______ ____
ROOT
ATOM      1  C   UNL     1       7.458   5.416  19.555  0.00  0.00    +0.000 C 
ATOM      2  C   UNL     1       6.119   5.431  18.864  0.00  0.00    +0.000 A 
ATOM      3  C   UNL     1       5.052   4.732  19.461  0.00  0.00    +0.000 A 
ATOM      4  C   UNL     1       3.804   4.630  18.823  0.00  0.00    +0.000 A 
ATOM      5  C   UNL     1       3.607   5.245  17.585  0.00  0.00    +0.000 A 
ATOM      6  C   UNL     1       4.646   5.974  17.003  0.00  0.00    +0.000 A 
ATOM      7  C   UNL     1       5.903   6.072  17.628  0.00  0.00    +0.000 A 
ENDROOT
BRANCH   4   8
ATOM      8  N   UNL     1       2.760   3.908  19.451  0.00  0.00    +0.000 N 
ATOM      9  C   UNL     1       1.410   3.940  19.197  0.00  0.00    +0.000 A 
ATOM     10  N   UNL     1       0.763   3.160  20.030  0.00  0.00    +0.000 NA
ATOM     11  C   UNL     1       1.768   2.645  20.787  0.00  0.00    +0.000 A 
ATOM     12  N   UNL     1       2.996   3.046  20.471  0.00  0.00    +0.000 NA
ENDBRANCH   4   8
BRANCH   7  13
ATOM     13  C   UNL     1       7.026   6.739  16.903  0.00  0.00    +0.000 C 
ATOM     14  O   UNL     1       7.692   6.255  16.008  0.00  0.00    +0.000 OA
BRANCH  13  15
ATOM     15  O   UNL     1       6.990   8.054  17.232  0.00  0.00    +0.000 OA
BRANCH  15  16
ATOM     16  C   UNL     1       8.151   8.545  17.921  0.00  0.00    +0.000 C 
BRANCH  16  17
ATOM     17  C   UNL     1       8.200  10.066  17.762  0.00  0.00    +0.000 C 
BRANCH  17  18
ATOM     18  N   UNL     1       9.274  10.668  18.529  0.00  0.00    +0.000 N 
ATOM     19  C   UNL     1       9.398  10.742  19.882  0.00  0.00    +0.000 A 
ATOM     20  N   UNL     1      10.532  11.332  20.188  0.00  0.00    +0.000 NA
ATOM     21  C   UNL     1      11.059  11.628  18.963  0.00  0.00    +0.000 A 
ATOM     22  N   UNL     1      10.322  11.250  17.916  0.00  0.00    +0.000 NA
ENDBRANCH  17  18
ENDBRANCH  16  17
ENDBRANCH  15  16
ENDBRANCH  13  15
ENDBRANCH   7  13
TORSDOF 6
ENDMDL
MODEL 4
REMARK VINA RESULT:      -7.0      2.727      4.119
REMARK  Name = 
REMARK  7 active torsions:
REMARK  status: ('A' for Active; 'I' for Inactive)
REMARK    1  A    between atoms: C_1  and  C_2
REMARK    2  A    between atoms: C_4  and  N_5
REMARK    3  A    between atoms: C_12  and  C_13
REMARK    4  A    between atoms: C_13  and  O_15
REMARK    5  A    between atoms: O_15  and  C_16
REMARK    6  A    between atoms: C_16  and  C_17
REMARK    7  A    between atoms: C_17  and  N_18
REMARK                            x       y       z     vdW  Elec       q    Type
REMARK                         _______ _______ _______ _____ _____    ______ ____
ROOT
ATOM      1  C   UNL     1       1.759   4.151  20.873  0.00  0.00    +0.000 C 
ATOM      2  C   UNL     1       1.971   5.438  20.118  0.00  0.00    +0.000 A 
ATOM      3  C   UNL     1       1.598   6.646  20.739  0.00  0.00    +0.000 A 
ATOM      4  C   UNL     1       1.682   7.870  20.055  0.00  0.00    +0.000 A 
ATOM      5  C   UNL     1       2.160   7.899  18.743  0.00  0.00    +0.000 A 
ATOM      6  C   UNL     1       2.571   6.712  18.132  0.00  0.00    +0.000 A 
ATOM      7  C   UNL     1       2.478   5.479  18.804  0.00  0.00    +0.000 A 
ENDROOT
BRANCH   4   8
ATOM      8  N   UNL     1       1.286   9.061  20.711  0.00  0.00    +0.000 N 
ATOM      9  C   UNL     1       1.105   9.291  22.054  0.00  0.00    +0.000 A 
ATOM     10  N   UNL     1       0.684  10.516  22.261  0.00  0.00    +0.000 NA
ATOM     11  C   UNL     1       0.631  11.023  21.001  0.00  0.00    +0.000 A 
ATOM     12  N   UNL     1       1.001  10.196  20.027  0.00  0.00    +0.000 NA
ENDBRANCH   4   8
BRANCH   7  13
ATOM     13  C   UNL     1       2.792   4.221  18.062  0.00  0.00    +0.000 C 
ATOM     14  O   UNL     1       2.056   3.642  17.287  0.00  0.00    +0.000 OA
BRANCH  13  15
ATOM     15  O   UNL     1       4.121   3.995  18.201  0.00  0.00    +0.000 OA
BRANCH  15  16
ATOM     16  C   UNL     1       4.809   3.625  16.995  0.00  0.00    +0.000 C 
BRANCH  16  17
ATOM     17  C   UNL     1       5.488   4.871  16.423  0.00  0.00    +0.000 C 
BRANCH  17  18
ATOM     18  N   UNL     1       6.482   5.421  17.323  0.00  0.00    +0.000 N 
ATOM     19  C   UNL     1       6.879   6.718  17.441  0.00  0.00    +0.000 A 
ATOM     20  N   UNL     1       7.775   6.818  18.396  0.00  0.00    +0.000 NA
ATOM     21  C   UNL     1       7.914   5.527  18.819  0.00  0.00    +0.000 A 
ATOM     22  N   UNL     1       7.149   4.633  18.186  0.00  0.00    +0.000 NA
ENDBRANCH  17  18
ENDBRANCH  16  17
ENDBRANCH  15  16
ENDBRANCH  13  15
ENDBRANCH   7  13
TORSDOF 6
ENDMDL
MODEL 5
REMARK VINA RESULT:      -6.8      3.046      4.565
REMARK  Name = 
REMARK  7 active torsions:
REMARK  status: ('A' for Active; 'I' for Inactive)
REMARK    1  A    between atoms: C_1  and  C_2
REMARK    2  A    between atoms: C_4  and  N_5
REMARK    3  A    between atoms: C_12  and  C_13
REMARK    4  A    between atoms: C_13  and  O_15
REMARK    5  A    between atoms: O_15  and  C_16
REMARK    6  A    between atoms: C_16  and  C_17
REMARK    7  A    between atoms: C_17  and  N_18
REMARK                            x       y       z     vdW  Elec       q    Type
REMARK                         _______ _______ _______ _____ _____    ______ ____
ROOT
ATOM      1  C   UNL     1       2.128   5.043  20.812  0.00  0.00    +0.000 C 
ATOM      2  C   UNL     1       2.000   6.393  20.157  0.00  0.00    +0.000 A 
ATOM      3  C   UNL     1       1.421   7.443  20.896  0.00  0.00    +0.000 A 
ATOM      4  C   UNL     1       1.188   8.700  20.314  0.00  0.00    +0.000 A 
ATOM      5  C   UNL     1       1.553   8.925  18.984  0.00  0.00    +0.000 A 
ATOM      6  C   UNL     1       2.166   7.904  18.255  0.00  0.00    +0.000 A 
ATOM      7  C   UNL     1       2.391   6.638  18.826  0.00  0.00    +0.000 A 
ENDROOT
BRANCH   4   8
ATOM      8  N   UNL     1       0.592   9.725  21.088  0.00  0.00    +0.000 N 
ATOM      9  C   UNL     1       0.570  11.080  20.860  0.00  0.00    +0.000 A 
ATOM     10  N   UNL     1      -0.044  11.703  21.839  0.00  0.00    +0.000 NA
ATOM     11  C   UNL     1      -0.403  10.679  22.657  0.00  0.00    +0.000 A 
ATOM     12  N   UNL     1      -0.062   9.461  22.245  0.00  0.00    +0.000 NA
ENDBRANCH   4   8
BRANCH   7  13
ATOM     13  C   UNL     1       2.916   5.535  17.965  0.00  0.00    +0.000 C 
ATOM     14  O   UNL     1       2.276   4.597  17.529  0.00  0.00    +0.000 OA
BRANCH  13  15
ATOM     15  O   UNL     1       4.149   5.908  17.543  0.00  0.00    +0.000 OA
BRANCH  15  16
ATOM     16  C   UNL     1       5.223   5.609  18.449  0.00  0.00    +0.000 C 
BRANCH  16  17
ATOM     17  C   UNL     1       5.972   4.383  17.923  0.00  0.00    +0.000 C 
BRANCH  17  18
ATOM     18  N   UNL     1       6.391   4.539  16.544  0.00  0.00    +0.000 N 
ATOM     19  C   UNL     1       7.243   5.467  16.027  0.00  0.00    +0.000 A 
ATOM     20  N   UNL     1       7.397   5.254  14.740  0.00  0.00    +0.000 NA
ATOM     21  C   UNL     1       6.582   4.182  14.510  0.00  0.00    +0.000 A 
ATOM     22  N   UNL     1       5.937   3.714  15.583  0.00  0.00    +0.000 NA
ENDBRANCH  17  18
ENDBRANCH  16  17
ENDBRANCH  15  16
ENDBRANCH  13  15
ENDBRANCH   7  13
TORSDOF 6
ENDMDL
MODEL 6
REMARK VINA RESULT:      -6.8      1.617      2.186
REMARK  Name = 
REMARK  7 active torsions:
REMARK  status: ('A' for Active; 'I' for Inactive)
REMARK    1  A    between atoms: C_1  and  C_2
REMARK    2  A    between atoms: C_4  and  N_5
REMARK    3  A    between atoms: C_12  and  C_13
REMARK    4  A    between atoms: C_13  and  O_15
REMARK    5  A    between atoms: O_15  and  C_16
REMARK    6  A    between atoms: C_16  and  C_17
REMARK    7  A    between atoms: C_17  and  N_18
REMARK                            x       y       z     vdW  Elec       q    Type
REMARK                         _______ _______ _______ _____ _____    ______ ____
ROOT
ATOM      1  C   UNL     1       3.056   8.535  17.398  0.00  0.00    +0.000 C 
ATOM      2  C   UNL     1       2.416   7.966  18.638  0.00  0.00    +0.000 A 
ATOM      3  C   UNL     1       1.727   8.844  19.497  0.00  0.00    +0.000 A 
ATOM      4  C   UNL     1       1.188   8.395  20.714  0.00  0.00    +0.000 A 
ATOM      5  C   UNL     1       1.318   7.052  21.075  0.00  0.00    +0.000 A 
ATOM      6  C   UNL     1       1.964   6.165  20.213  0.00  0.00    +0.000 A 
ATOM      7  C   UNL     1       2.518   6.607  18.997  0.00  0.00    +0.000 A 
ENDROOT
BRANCH   4   8
ATOM      8  N   UNL     1       0.512   9.313  21.555  0.00  0.00    +0.000 N 
ATOM      9  C   UNL     1       0.521   9.398  22.927  0.00  0.00    +0.000 A 
ATOM     10  N   UNL     1      -0.276  10.357  23.336  0.00  0.00    +0.000 NA
ATOM     11  C   UNL     1      -0.755  10.856  22.166  0.00  0.00    +0.000 A 
ATOM     12  N   UNL     1      -0.300  10.277  21.058  0.00  0.00    +0.000 NA
ENDBRANCH   4   8
BRANCH   7  13
ATOM     13  C   UNL     1       3.324   5.655  18.175  0.00  0.00    +0.000 C 
ATOM     14  O   UNL     1       4.535   5.653  18.059  0.00  0.00    +0.000 OA
BRANCH  13  15
ATOM     15  O   UNL     1       2.498   4.646  17.806  0.00  0.00    +0.000 OA
BRANCH  15  16
ATOM     16  C   UNL     1       3.141   3.383  17.568  0.00  0.00    +0.000 C 
BRANCH  16  17
ATOM     17  C   UNL     1       2.329   2.288  18.263  0.00  0.00    +0.000 C 
BRANCH  17  18
ATOM     18  N   UNL     1       2.228   2.497  19.694  0.00  0.00    +0.000 N 
ATOM     19  C   UNL     1       3.239   2.606  20.598  0.00  0.00    +0.000 A 
ATOM     20  N   UNL     1       2.739   2.828  21.793  0.00  0.00    +0.000 NA
ATOM     21  C   UNL     1       1.393   2.820  21.564  0.00  0.00    +0.000 A 
ATOM     22  N   UNL     1       1.030   2.612  20.296  0.00  0.00    +0.000 NA
ENDBRANCH  17  18
ENDBRANCH  16  17
ENDBRANCH  15  16
ENDBRANCH  13  15
ENDBRANCH   7  13
TORSDOF 6
ENDMDL
MODEL 7
REMARK VINA RESULT:      -6.8      3.283      5.018
REMARK  Name = 
REMARK  7 active torsions:
REMARK  status: ('A' for Active; 'I' for Inactive)
REMARK    1  A    between atoms: C_1  and  C_2
REMARK    2  A    between atoms: C_4  and  N_5
REMARK    3  A    between atoms: C_12  and  C_13
REMARK    4  A    between atoms: C_13  and  O_15
REMARK    5  A    between atoms: O_15  and  C_16
REMARK    6  A    between atoms: C_16  and  C_17
REMARK    7  A    between atoms: C_17  and  N_18
REMARK                            x       y       z     vdW  Elec       q    Type
REMARK                         _______ _______ _______ _____ _____    ______ ____
ROOT
ATOM      1  C   UNL     1       2.054   8.040  17.817  0.00  0.00    +0.000 C 
ATOM      2  C   UNL     1       3.104   7.019  18.171  0.00  0.00    +0.000 A 
ATOM      3  C   UNL     1       4.053   6.670  17.191  0.00  0.00    +0.000 A 
ATOM      4  C   UNL     1       5.001   5.659  17.424  0.00  0.00    +0.000 A 
ATOM      5  C   UNL     1       5.018   4.998  18.655  0.00  0.00    +0.000 A 
ATOM      6  C   UNL     1       4.109   5.365  19.649  0.00  0.00    +0.000 A 
ATOM      7  C   UNL     1       3.148   6.368  19.419  0.00  0.00    +0.000 A 
ENDROOT
BRANCH   4   8
ATOM      8  N   UNL     1       5.930   5.329  16.408  0.00  0.00    +0.000 N 
ATOM      9  C   UNL     1       7.149   4.705  16.519  0.00  0.00    +0.000 A 
ATOM     10  N   UNL     1       7.736   4.624  15.348  0.00  0.00    +0.000 NA
ATOM     11  C   UNL     1       6.825   5.208  14.525  0.00  0.00    +0.000 A 
ATOM     12  N   UNL     1       5.708   5.635  15.106  0.00  0.00    +0.000 NA
ENDBRANCH   4   8
BRANCH   7  13
ATOM     13  C   UNL     1       2.104   6.626  20.457  0.00  0.00    +0.000 C 
ATOM     14  O   UNL     1       1.457   7.648  20.585  0.00  0.00    +0.000 OA
BRANCH  13  15
ATOM     15  O   UNL     1       1.824   5.439  21.047  0.00  0.00    +0.000 OA
BRANCH  15  16
ATOM     16  C   UNL     1       0.873   4.617  20.351  0.00  0.00    +0.000 C 
BRANCH  16  17
ATOM     17  C   UNL     1       1.246   3.150  20.575  0.00  0.00    +0.000 C 
BRANCH  17  18
ATOM     18  N   UNL     1       2.017   2.601  19.478  0.00  0.00    +0.000 N 
ATOM     19  C   UNL     1       1.773   2.713  18.143  0.00  0.00    +0.000 A 
ATOM     20  N   UNL     1       2.725   2.107  17.470  0.00  0.00    +0.000 NA
ATOM     21  C   UNL     1       3.525   1.609  18.458  0.00  0.00    +0.000 A 
ATOM     22  N   UNL     1       3.129   1.877  19.705  0.00  0.00    +0.000 NA
ENDBRANCH  17  18
ENDBRANCH  16  17
ENDBRANCH  15  16
ENDBRANCH  13  15
ENDBRANCH   7  13
TORSDOF 6
ENDMDL
MODEL 8
REMARK VINA RESULT:      -6.8      0.880      1.238
REMARK  Name = 
REMARK  7 active torsions:
REMARK  status: ('A' for Active; 'I' for Inactive)
REMARK    1  A    between atoms: C_1  and  C_2
REMARK    2  A    between atoms: C_4  and  N_5
REMARK    3  A    between atoms: C_12  and  C_13
REMARK    4  A    between atoms: C_13  and  O_15
REMARK    5  A    between atoms: O_15  and  C_16
REMARK    6  A    between atoms: C_16  and  C_17
REMARK    7  A    between atoms: C_17  and  N_18
REMARK                            x       y       z     vdW  Elec       q    Type
REMARK                         _______ _______ _______ _____ _____    ______ ____
ROOT
ATOM      1  C   UNL     1       4.640   7.145  16.268  0.00  0.00    +0.000 C 
ATOM      2  C   UNL     1       3.750   7.026  17.477  0.00  0.00    +0.000 A 
ATOM      3  C   UNL     1       2.923   8.117  17.808  0.00  0.00    +0.000 A 
ATOM      4  C   UNL     1       2.138   8.107  18.974  0.00  0.00    +0.000 A 
ATOM      5  C   UNL     1       2.161   6.991  19.813  0.00  0.00    +0.000 A 
ATOM      6  C   UNL     1       2.945   5.887  19.474  0.00  0.00    +0.000 A 
ATOM      7  C   UNL     1       3.744   5.893  18.315  0.00  0.00    +0.000 A 
ENDROOT
BRANCH   4   8
ATOM      8  N   UNL     1       1.330   9.230  19.277  0.00  0.00    +0.000 N 
ATOM      9  C   UNL     1       0.964  10.277  18.466  0.00  0.00    +0.000 A 
ATOM     10  N   UNL     1       0.245  11.149  19.133  0.00  0.00    +0.000 NA
ATOM     11  C   UNL     1       0.178  10.587  20.369  0.00  0.00    +0.000 A 
ATOM     12  N   UNL     1       0.799   9.419  20.509  0.00  0.00    +0.000 NA
ENDBRANCH   4   8
BRANCH   7  13
ATOM     13  C   UNL     1       4.676   4.751  18.068  0.00  0.00    +0.000 C 
ATOM     14  O   UNL     1       5.732   4.550  18.637  0.00  0.00    +0.000 OA
BRANCH  13  15
ATOM     15  O   UNL     1       4.013   3.852  17.301  0.00  0.00    +0.000 OA
BRANCH  15  16
ATOM     16  C   UNL     1       4.093   2.488  17.748  0.00  0.00    +0.000 C 
BRANCH  16  17
ATOM     17  C   UNL     1       2.688   2.020  18.130  0.00  0.00    +0.000 C 
BRANCH  17  18
ATOM     18  N   UNL     1       2.317   2.423  19.472  0.00  0.00    +0.000 N 
ATOM     19  C   UNL     1       1.084   2.772  19.931  0.00  0.00    +0.000 A 
ATOM     20  N   UNL     1       1.152   3.036  21.217  0.00  0.00    +0.000 NA
ATOM     21  C   UNL     1       2.477   2.858  21.494  0.00  0.00    +0.000 A 
ATOM     22  N   UNL     1       3.233   2.491  20.455  0.00  0.00    +0.000 NA
ENDBRANCH  17  18
ENDBRANCH  16  17
ENDBRANCH  15  16
ENDBRANCH  13  15
ENDBRANCH   7  13
TORSDOF 6
ENDMDL
MODEL 9
REMARK VINA RESULT:      -6.7      3.163      5.074
REMARK  Name = 
REMARK  7 active torsions:
REMARK  status: ('A' for Active; 'I' for Inactive)
REMARK    1  A    between atoms: C_1  and  C_2
REMARK    2  A    between atoms: C_4  and  N_5
REMARK    3  A    between atoms: C_12  and  C_13
REMARK    4  A    between atoms: C_13  and  O_15
REMARK    5  A    between atoms: O_15  and  C_16
REMARK    6  A    between atoms: C_16  and  C_17
REMARK    7  A    between atoms: C_17  and  N_18
REMARK                            x       y       z     vdW  Elec       q    Type
REMARK                         _______ _______ _______ _____ _____    ______ ____
ROOT
ATOM      1  C   UNL     1       1.952   7.718  17.794  0.00  0.00    +0.000 C 
ATOM      2  C   UNL     1       3.087   6.769  18.081  0.00  0.00    +0.000 A 
ATOM      3  C   UNL     1       3.959   6.433  17.028  0.00  0.00    +0.000 A 
ATOM      4  C   UNL     1       4.980   5.484  17.205  0.00  0.00    +0.000 A 
ATOM      5  C   UNL     1       5.149   4.874  18.450  0.00  0.00    +0.000 A 
ATOM      6  C   UNL     1       4.316   5.230  19.513  0.00  0.00    +0.000 A 
ATOM      7  C   UNL     1       3.283   6.170  19.341  0.00  0.00    +0.000 A 
ENDROOT
BRANCH   4   8
ATOM      8  N   UNL     1       5.829   5.165  16.117  0.00  0.00    +0.000 N 
ATOM      9  C   UNL     1       5.591   4.333  15.049  0.00  0.00    +0.000 A 
ATOM     10  N   UNL     1       6.649   4.260  14.276  0.00  0.00    +0.000 NA
ATOM     11  C   UNL     1       7.528   5.085  14.904  0.00  0.00    +0.000 A 
ATOM     12  N   UNL     1       7.081   5.673  16.011  0.00  0.00    +0.000 NA
ENDBRANCH   4   8
BRANCH   7  13
ATOM     13  C   UNL     1       2.327   6.412  20.464  0.00  0.00    +0.000 C 
ATOM     14  O   UNL     1       1.751   7.457  20.704  0.00  0.00    +0.000 OA
BRANCH  13  15
ATOM     15  O   UNL     1       2.014   5.204  20.992  0.00  0.00    +0.000 OA
BRANCH  15  16
ATOM     16  C   UNL     1       0.873   4.555  20.408  0.00  0.00    +0.000 C 
BRANCH  16  17
ATOM     17  C   UNL     1       1.155   3.054  20.335  0.00  0.00    +0.000 C 
BRANCH  17  18
ATOM     18  N   UNL     1       1.934   2.692  19.166  0.00  0.00    +0.000 N 
ATOM     19  C   UNL     1       2.976   1.821  19.091  0.00  0.00    +0.000 A 
ATOM     20  N   UNL     1       3.391   1.739  17.847  0.00  0.00    +0.000 NA
ATOM     21  C   UNL     1       2.572   2.615  17.195  0.00  0.00    +0.000 A 
ATOM     22  N   UNL     1       1.668   3.231  17.962  0.00  0.00    +0.000 NA
ENDBRANCH  17  18
ENDBRANCH  16  17
ENDBRANCH  15  16
ENDBRANCH  13  15
ENDBRANCH   7  13
TORSDOF 6
ENDMDL
