MODEL 1
REMARK VINA RESULT:      -8.4      0.000      0.000
REMARK  Name = 
REMARK  5 active torsions:
REMARK  status: ('A' for Active; 'I' for Inactive)
REMARK    1  A    between atoms: C_2  and  C_10
REMARK    2  A    between atoms: N_3  and  C_4
REMARK    3  A    between atoms: C_4  and  C_5
REMARK    4  A    between atoms: C_10  and  C_11
REMARK    5  A    between atoms: C_10  and  C_17
REMARK                            x       y       z     vdW  Elec       q    Type
REMARK                         _______ _______ _______ _____ _____    ______ ____
ROOT
ATOM      1  C   UNL     1       2.749   5.883  19.316  0.00  0.00    +0.000 C 
ENDROOT
BRANCH   1   2
ATOM      2  C   UNL     1       2.267   7.334  19.267  0.00  0.00    +0.000 A 
ATOM      3  C   UNL     1       1.730   7.935  20.406  0.00  0.00    +0.000 A 
ATOM      4  C   UNL     1       1.029   9.135  20.315  0.00  0.00    +0.000 A 
ATOM      5  C   UNL     1       0.919   9.798  19.096  0.00  0.00    +0.000 A 
ATOM      6  C   UNL     1       1.568   9.289  17.975  0.00  0.00    +0.000 A 
ATOM      7  C   UNL     1       2.240   8.065  18.059  0.00  0.00    +0.000 A 
ENDBRANCH   1   2
BRANCH   1   8
ATOM      8  C   UNL     1       1.694   4.784  18.834  0.00  0.00    +0.000 C 
ATOM      9  C   UNL     1       1.998   3.914  17.582  0.00  0.00    +0.000 C 
ATOM     10  C   UNL     1       2.752   2.621  17.871  0.00  0.00    +0.000 C 
ATOM     11  C   UNL     1       2.027   1.789  18.920  0.00  0.00    +0.000 C 
ATOM     12  C   UNL     1       1.778   2.591  20.191  0.00  0.00    +0.000 C 
ATOM     13  C   UNL     1       1.068   3.914  19.934  0.00  0.00    +0.000 C 
ENDBRANCH   1   8
BRANCH   1  15
ATOM     14  O   UNL     1       5.156   5.120  19.449  0.00  0.00    +0.000 OA
ATOM     15  C   UNL     1       4.313   5.730  18.783  0.00  0.00    +0.000 C 
ATOM     16  N   UNL     1       4.705   6.327  17.581  0.00  0.00    +0.000 N 
ATOM     17  H   UNL     1       4.041   6.364  16.826  0.00  0.00    +0.000 HD
BRANCH  16  18
ATOM     18  C   UNL     1       6.066   6.374  17.050  0.00  0.00    +0.000 C 
BRANCH  18  19
ATOM     19  C   UNL     1       6.365   5.357  15.951  0.00  0.00    +0.000 A 
ATOM     20  C   UNL     1       5.689   4.158  15.707  0.00  0.00    +0.000 A 
ATOM     21  N   UNL     1       6.184   3.658  14.532  0.00  0.00    +0.000 N 
ATOM     22  C   UNL     1       7.127   4.537  14.082  0.00  0.00    +0.000 A 
ATOM     23  N   UNL     1       7.283   5.542  14.922  0.00  0.00    +0.000 NA
ATOM     24  H   UNL     1       5.873   2.818  14.056  0.00  0.00    +0.000 HD
ENDBRANCH  18  19
ENDBRANCH  16  18
ENDBRANCH   1  15
TORSDOF 5
ENDMDL
MODEL 2
REMARK VINA RESULT:      -8.3      1.075      2.011
REMARK  Name = 
REMARK  5 active torsions:
REMARK  status: ('A' for Active; 'I' for Inactive)
REMARK    1  A    between atoms: C_2  and  C_10
REMARK    2  A    between atoms: N_3  and  C_4
REMARK    3  A    between atoms: C_4  and  C_5
REMARK    4  A    between atoms: C_10  and  C_11
REMARK    5  A    between atoms: C_10  and  C_17
REMARK                            x       y       z     vdW  Elec       q    Type
REMARK                         _______ _______ _______ _____ _____    ______ ____
ROOT
ATOM      1  C   UNL     1       4.030   5.089  19.803  0.00  0.00    +0.000 C 
ENDROOT
BRANCH   1   2
ATOM      2  C   UNL     1       3.072   6.206  19.380  0.00  0.00    +0.000 A 
ATOM      3  C   UNL     1       3.020   6.620  18.049  0.00  0.00    +0.000 A 
ATOM      4  C   UNL     1       2.383   7.809  17.698  0.00  0.00    +0.000 A 
ATOM      5  C   UNL     1       1.718   8.564  18.660  0.00  0.00    +0.000 A 
ATOM      6  C   UNL     1       1.636   8.097  19.967  0.00  0.00    +0.000 A 
ATOM      7  C   UNL     1       2.307   6.922  20.327  0.00  0.00    +0.000 A 
ENDBRANCH   1   2
BRANCH   1   8
ATOM      8  C   UNL     1       3.396   3.626  19.889  0.00  0.00    +0.000 C 
ATOM      9  C   UNL     1       2.177   3.362  20.817  0.00  0.00    +0.000 C 
ATOM     10  C   UNL     1       0.817   3.580  20.162  0.00  0.00    +0.000 C 
ATOM     11  C   UNL     1       0.688   2.759  18.886  0.00  0.00    +0.000 C 
ATOM     12  C   UNL     1       1.831   3.050  17.921  0.00  0.00    +0.000 C 
ATOM     13  C   UNL     1       3.206   2.888  18.556  0.00  0.00    +0.000 C 
ENDBRANCH   1   8
BRANCH   1  15
ATOM     14  O   UNL     1       6.553   5.257  19.756  0.00  0.00    +0.000 OA
ATOM     15  C   UNL     1       5.516   5.241  19.082  0.00  0.00    +0.000 C 
ATOM     16  N   UNL     1       5.610   5.390  17.695  0.00  0.00    +0.000 N 
ATOM     17  H   UNL     1       4.947   4.904  17.115  0.00  0.00    +0.000 HD
BRANCH  16  18
ATOM     18  C   UNL     1       6.836   5.649  16.941  0.00  0.00    +0.000 C 
BRANCH  18  19
ATOM     19  C   UNL     1       6.906   4.972  15.573  0.00  0.00    +0.000 A 
ATOM     20  C   UNL     1       6.210   3.832  15.161  0.00  0.00    +0.000 A 
ATOM     21  N   UNL     1       6.449   3.687  13.820  0.00  0.00    +0.000 N 
ATOM     22  C   UNL     1       7.259   4.718  13.439  0.00  0.00    +0.000 A 
ATOM     23  N   UNL     1       7.578   5.481  14.466  0.00  0.00    +0.000 NA
ATOM     24  H   UNL     1       6.054   2.979  13.211  0.00  0.00    +0.000 HD
ENDBRANCH  18  19
ENDBRANCH  16  18
ENDBRANCH   1  15
TORSDOF 5
ENDMDL
MODEL 3
REMARK VINA RESULT:      -8.2      1.349      2.011
REMARK  Name = 
REMARK  5 active torsions:
REMARK  status: ('A' for Active; 'I' for Inactive)
REMARK    1  A    between atoms: C_2  and  C_10
REMARK    2  A    between atoms: N_3  and  C_4
REMARK    3  A    between atoms: C_4  and  C_5
REMARK    4  A    between atoms: C_10  and  C_11
REMARK    5  A    between atoms: C_10  and  C_17
REMARK                            x       y       z     vdW  Elec       q    Type
REMARK                         _______ _______ _______ _____ _____    ______ ____
ROOT
ATOM      1  C   UNL     1       4.285   4.737  19.625  0.00  0.00    +0.000 C 
ENDROOT
BRANCH   1   2
ATOM      2  C   UNL     1       3.501   6.034  19.406  0.00  0.00    +0.000 A 
ATOM      3  C   UNL     1       2.600   6.483  20.371  0.00  0.00    +0.000 A 
ATOM      4  C   UNL     1       1.677   7.483  20.074  0.00  0.00    +0.000 A 
ATOM      5  C   UNL     1       1.691   8.108  18.831  0.00  0.00    +0.000 A 
ATOM      6  C   UNL     1       2.672   7.776  17.903  0.00  0.00    +0.000 A 
ATOM      7  C   UNL     1       3.576   6.746  18.188  0.00  0.00    +0.000 A 
ENDBRANCH   1   2
BRANCH   1   8
ATOM      8  C   UNL     1       3.464   3.385  19.410  0.00  0.00    +0.000 C 
ATOM      9  C   UNL     1       2.649   2.777  20.586  0.00  0.00    +0.000 C 
ATOM     10  C   UNL     1       1.211   3.273  20.691  0.00  0.00    +0.000 C 
ATOM     11  C   UNL     1       0.466   3.067  19.379  0.00  0.00    +0.000 C 
ATOM     12  C   UNL     1       1.202   3.717  18.214  0.00  0.00    +0.000 C 
ATOM     13  C   UNL     1       2.657   3.279  18.107  0.00  0.00    +0.000 C 
ENDBRANCH   1   8
BRANCH   1  15
ATOM     14  O   UNL     1       6.761   5.253  19.645  0.00  0.00    +0.000 OA
ATOM     15  C   UNL     1       5.812   4.819  18.981  0.00  0.00    +0.000 C 
ATOM     16  N   UNL     1       6.036   4.428  17.658  0.00  0.00    +0.000 N 
ATOM     17  H   UNL     1       5.501   3.660  17.289  0.00  0.00    +0.000 HD
BRANCH  16  18
ATOM     18  C   UNL     1       7.297   4.554  16.928  0.00  0.00    +0.000 C 
BRANCH  18  19
ATOM     19  C   UNL     1       7.169   4.496  15.408  0.00  0.00    +0.000 A 
ATOM     20  C   UNL     1       6.269   3.724  14.667  0.00  0.00    +0.000 A 
ATOM     21  N   UNL     1       6.397   4.114  13.360  0.00  0.00    +0.000 N 
ATOM     22  C   UNL     1       7.342   5.098  13.322  0.00  0.00    +0.000 A 
ATOM     23  N   UNL     1       7.846   5.325  14.519  0.00  0.00    +0.000 NA
ATOM     24  H   UNL     1       5.853   3.774  12.574  0.00  0.00    +0.000 HD
ENDBRANCH  18  19
ENDBRANCH  16  18
ENDBRANCH   1  15
TORSDOF 5
ENDMDL
MODEL 4
REMARK VINA RESULT:      -8.1      0.640      1.296
REMARK  Name = 
REMARK  5 active torsions:
REMARK  status: ('A' for Active; 'I' for Inactive)
REMARK    1  A    between atoms: C_2  and  C_10
REMARK    2  A    between atoms: N_3  and  C_4
REMARK    3  A    between atoms: C_4  and  C_5
REMARK    4  A    between atoms: C_10  and  C_11
REMARK    5  A    between atoms: C_10  and  C_17
REMARK                            x       y       z     vdW  Elec       q    Type
REMARK                         _______ _______ _______ _____ _____    ______ ____
ROOT
ATOM      1  C   UNL     1       3.085   5.730  19.637  0.00  0.00    +0.000 C 
ENDROOT
BRANCH   1   2
ATOM      2  C   UNL     1       2.335   7.028  19.330  0.00  0.00    +0.000 A 
ATOM      3  C   UNL     1       2.379   7.580  18.049  0.00  0.00    +0.000 A 
ATOM      4  C   UNL     1       1.955   8.887  17.822  0.00  0.00    +0.000 A 
ATOM      5  C   UNL     1       1.406   9.641  18.855  0.00  0.00    +0.000 A 
ATOM      6  C   UNL     1       1.221   9.062  20.107  0.00  0.00    +0.000 A 
ATOM      7  C   UNL     1       1.681   7.762  20.345  0.00  0.00    +0.000 A 
ENDBRANCH   1   2
BRANCH   1   8
ATOM      8  C   UNL     1       2.234   4.387  19.501  0.00  0.00    +0.000 C 
ATOM      9  C   UNL     1       1.621   3.992  18.127  0.00  0.00    +0.000 C 
ATOM     10  C   UNL     1       2.529   3.145  17.243  0.00  0.00    +0.000 C 
ATOM     11  C   UNL     1       3.000   1.898  17.980  0.00  0.00    +0.000 C 
ATOM     12  C   UNL     1       3.673   2.255  19.300  0.00  0.00    +0.000 C 
ATOM     13  C   UNL     1       2.812   3.142  20.190  0.00  0.00    +0.000 C 
ENDBRANCH   1   8
BRANCH   1  15
ATOM     14  O   UNL     1       5.594   5.411  19.688  0.00  0.00    +0.000 OA
ATOM     15  C   UNL     1       4.618   5.735  19.001  0.00  0.00    +0.000 C 
ATOM     16  N   UNL     1       4.828   6.144  17.681  0.00  0.00    +0.000 N 
ATOM     17  H   UNL     1       4.125   5.926  16.995  0.00  0.00    +0.000 HD
BRANCH  16  18
ATOM     18  C   UNL     1       6.127   6.309  17.030  0.00  0.00    +0.000 C 
BRANCH  18  19
ATOM     19  C   UNL     1       6.412   5.320  15.902  0.00  0.00    +0.000 A 
ATOM     20  C   UNL     1       5.794   4.084  15.689  0.00  0.00    +0.000 A 
ATOM     21  N   UNL     1       6.239   3.624  14.478  0.00  0.00    +0.000 N 
ATOM     22  C   UNL     1       7.096   4.562  13.978  0.00  0.00    +0.000 A 
ATOM     23  N   UNL     1       7.247   5.568  14.817  0.00  0.00    +0.000 NA
ATOM     24  H   UNL     1       5.948   2.770  14.014  0.00  0.00    +0.000 HD
ENDBRANCH  18  19
ENDBRANCH  16  18
ENDBRANCH   1  15
TORSDOF 5
ENDMDL
MODEL 5
REMARK VINA RESULT:      -8.0      0.940      1.385
REMARK  Name = 
REMARK  5 active torsions:
REMARK  status: ('A' for Active; 'I' for Inactive)
REMARK    1  A    between atoms: C_2  and  C_10
REMARK    2  A    between atoms: N_3  and  C_4
REMARK    3  A    between atoms: C_4  and  C_5
REMARK    4  A    between atoms: C_10  and  C_11
REMARK    5  A    between atoms: C_10  and  C_17
REMARK                            x       y       z     vdW  Elec       q    Type
REMARK                         _______ _______ _______ _____ _____    ______ ____
ROOT
ATOM      1  C   UNL     1       2.928   5.955  18.646  0.00  0.00    +0.000 C 
ENDROOT
BRANCH   1   2
ATOM      2  C   UNL     1       2.165   7.264  18.857  0.00  0.00    +0.000 A 
ATOM      3  C   UNL     1       1.945   8.130  17.786  0.00  0.00    +0.000 A 
ATOM      4  C   UNL     1       1.518   9.438  18.003  0.00  0.00    +0.000 A 
ATOM      5  C   UNL     1       1.226   9.880  19.291  0.00  0.00    +0.000 A 
ATOM      6  C   UNL     1       1.302   8.992  20.358  0.00  0.00    +0.000 A 
ATOM      7  C   UNL     1       1.767   7.689  20.144  0.00  0.00    +0.000 A 
ENDBRANCH   1   2
BRANCH   1   8
ATOM      8  C   UNL     1       2.046   4.700  18.204  0.00  0.00    +0.000 C 
ATOM      9  C   UNL     1       2.632   3.647  17.222  0.00  0.00    +0.000 C 
ATOM     10  C   UNL     1       3.381   2.498  17.889  0.00  0.00    +0.000 C 
ATOM     11  C   UNL     1       2.510   1.810  18.930  0.00  0.00    +0.000 C 
ATOM     12  C   UNL     1       1.978   2.805  19.954  0.00  0.00    +0.000 C 
ATOM     13  C   UNL     1       1.264   3.992  19.320  0.00  0.00    +0.000 C 
ENDBRANCH   1   8
BRANCH   1  15
ATOM     14  O   UNL     1       4.450   6.985  16.908  0.00  0.00    +0.000 OA
ATOM     15  C   UNL     1       4.368   6.197  17.857  0.00  0.00    +0.000 C 
ATOM     16  N   UNL     1       5.505   5.478  18.238  0.00  0.00    +0.000 N 
ATOM     17  H   UNL     1       5.629   5.260  19.212  0.00  0.00    +0.000 HD
BRANCH  16  18
ATOM     18  C   UNL     1       6.802   5.502  17.562  0.00  0.00    +0.000 C 
BRANCH  18  19
ATOM     19  C   UNL     1       6.809   4.896  16.161  0.00  0.00    +0.000 A 
ATOM     20  C   UNL     1       6.158   3.731  15.743  0.00  0.00    +0.000 A 
ATOM     21  N   UNL     1       6.301   3.666  14.382  0.00  0.00    +0.000 N 
ATOM     22  C   UNL     1       7.013   4.764  13.996  0.00  0.00    +0.000 A 
ATOM     23  N   UNL     1       7.361   5.499  15.035  0.00  0.00    +0.000 NA
ATOM     24  H   UNL     1       5.907   2.961  13.769  0.00  0.00    +0.000 HD
ENDBRANCH  18  19
ENDBRANCH  16  18
ENDBRANCH   1  15
TORSDOF 5
ENDMDL
MODEL 6
REMARK VINA RESULT:      -8.0      1.521      2.235
REMARK  Name = 
REMARK  5 active torsions:
REMARK  status: ('A' for Active; 'I' for Inactive)
REMARK    1  A    between atoms: C_2  and  C_10
REMARK    2  A    between atoms: N_3  and  C_4
REMARK    3  A    between atoms: C_4  and  C_5
REMARK    4  A    between atoms: C_10  and  C_11
REMARK    5  A    between atoms: C_10  and  C_17
REMARK                            x       y       z     vdW  Elec       q    Type
REMARK                         _______ _______ _______ _____ _____    ______ ____
ROOT
ATOM      1  C   UNL     1       2.585   5.823  19.504  0.00  0.00    +0.000 C 
ENDROOT
BRANCH   1   2
ATOM      2  C   UNL     1       2.206   7.296  19.333  0.00  0.00    +0.000 A 
ATOM      3  C   UNL     1       1.649   8.007  20.396  0.00  0.00    +0.000 A 
ATOM      4  C   UNL     1       1.038   9.241  20.185  0.00  0.00    +0.000 A 
ATOM      5  C   UNL     1       1.042   9.824  18.921  0.00  0.00    +0.000 A 
ATOM      6  C   UNL     1       1.715   9.199  17.877  0.00  0.00    +0.000 A 
ATOM      7  C   UNL     1       2.297   7.943  18.080  0.00  0.00    +0.000 A 
ENDBRANCH   1   2
BRANCH   1   8
ATOM      8  C   UNL     1       1.443   4.767  19.143  0.00  0.00    +0.000 C 
ATOM      9  C   UNL     1       1.508   3.983  17.801  0.00  0.00    +0.000 C 
ATOM     10  C   UNL     1       2.278   2.669  17.866  0.00  0.00    +0.000 C 
ATOM     11  C   UNL     1       1.733   1.770  18.968  0.00  0.00    +0.000 C 
ATOM     12  C   UNL     1       1.725   2.485  20.314  0.00  0.00    +0.000 C 
ATOM     13  C   UNL     1       1.004   3.826  20.274  0.00  0.00    +0.000 C 
ENDBRANCH   1   8
BRANCH   1  15
ATOM     14  O   UNL     1       4.945   4.932  19.676  0.00  0.00    +0.000 OA
ATOM     15  C   UNL     1       4.121   5.510  18.959  0.00  0.00    +0.000 C 
ATOM     16  N   UNL     1       4.512   5.932  17.685  0.00  0.00    +0.000 N 
ATOM     17  H   UNL     1       3.829   5.921  16.946  0.00  0.00    +0.000 HD
BRANCH  16  18
ATOM     18  C   UNL     1       5.858   5.830  17.123  0.00  0.00    +0.000 C 
BRANCH  18  19
ATOM     19  C   UNL     1       6.876   6.807  17.705  0.00  0.00    +0.000 A 
ATOM     20  C   UNL     1       7.820   6.545  18.702  0.00  0.00    +0.000 A 
ATOM     21  N   UNL     1       8.623   7.652  18.786  0.00  0.00    +0.000 N 
ATOM     22  C   UNL     1       8.175   8.548  17.859  0.00  0.00    +0.000 A 
ATOM     23  N   UNL     1       7.115   8.090  17.222  0.00  0.00    +0.000 NA
ATOM     24  H   UNL     1       9.433   7.765  19.386  0.00  0.00    +0.000 HD
ENDBRANCH  18  19
ENDBRANCH  16  18
ENDBRANCH   1  15
TORSDOF 5
ENDMDL
MODEL 7
REMARK VINA RESULT:      -7.9      1.240      1.695
REMARK  Name = 
REMARK  5 active torsions:
REMARK  status: ('A' for Active; 'I' for Inactive)
REMARK    1  A    between atoms: C_2  and  C_10
REMARK    2  A    between atoms: N_3  and  C_4
REMARK    3  A    between atoms: C_4  and  C_5
REMARK    4  A    between atoms: C_10  and  C_11
REMARK    5  A    between atoms: C_10  and  C_17
REMARK                            x       y       z     vdW  Elec       q    Type
REMARK                         _______ _______ _______ _____ _____    ______ ____
ROOT
ATOM      1  C   UNL     1       3.885   5.294  18.271  0.00  0.00    +0.000 C 
ENDROOT
BRANCH   1   2
ATOM      2  C   UNL     1       3.198   6.623  18.593  0.00  0.00    +0.000 A 
ATOM      3  C   UNL     1       2.568   6.808  19.824  0.00  0.00    +0.000 A 
ATOM      4  C   UNL     1       1.701   7.879  20.027  0.00  0.00    +0.000 A 
ATOM      5  C   UNL     1       1.508   8.829  19.028  0.00  0.00    +0.000 A 
ATOM      6  C   UNL     1       2.234   8.742  17.845  0.00  0.00    +0.000 A 
ATOM      7  C   UNL     1       3.077   7.646  17.627  0.00  0.00    +0.000 A 
ENDBRANCH   1   2
BRANCH   1   8
ATOM      8  C   UNL     1       2.967   4.186  17.579  0.00  0.00    +0.000 C 
ATOM      9  C   UNL     1       3.397   2.693  17.609  0.00  0.00    +0.000 C 
ATOM     10  C   UNL     1       2.901   1.909  18.819  0.00  0.00    +0.000 C 
ATOM     11  C   UNL     1       1.388   2.018  18.957  0.00  0.00    +0.000 C 
ATOM     12  C   UNL     1       0.938   3.473  19.005  0.00  0.00    +0.000 C 
ATOM     13  C   UNL     1       1.457   4.299  17.834  0.00  0.00    +0.000 C 
ENDBRANCH   1   8
BRANCH   1  15
ATOM     14  O   UNL     1       6.280   6.107  18.311  0.00  0.00    +0.000 OA
ATOM     15  C   UNL     1       5.411   5.518  17.658  0.00  0.00    +0.000 C 
ATOM     16  N   UNL     1       5.721   5.071  16.370  0.00  0.00    +0.000 N 
ATOM     17  H   UNL     1       5.293   4.221  16.042  0.00  0.00    +0.000 HD
BRANCH  16  18
ATOM     18  C   UNL     1       6.979   5.301  15.661  0.00  0.00    +0.000 C 
BRANCH  18  19
ATOM     19  C   UNL     1       7.017   4.776  14.228  0.00  0.00    +0.000 A 
ATOM     20  C   UNL     1       6.206   3.781  13.674  0.00  0.00    +0.000 A 
ATOM     21  N   UNL     1       6.472   3.758  12.330  0.00  0.00    +0.000 N 
ATOM     22  C   UNL     1       7.411   4.718  12.087  0.00  0.00    +0.000 A 
ATOM     23  N   UNL     1       7.782   5.319  13.200  0.00  0.00    +0.000 NA
ATOM     24  H   UNL     1       6.018   3.174  11.637  0.00  0.00    +0.000 HD
ENDBRANCH  18  19
ENDBRANCH  16  18
ENDBRANCH   1  15
TORSDOF 5
ENDMDL
MODEL 8
REMARK VINA RESULT:      -7.9      1.146      1.730
REMARK  Name = 
REMARK  5 active torsions:
REMARK  status: ('A' for Active; 'I' for Inactive)
REMARK    1  A    between atoms: C_2  and  C_10
REMARK    2  A    between atoms: N_3  and  C_4
REMARK    3  A    between atoms: C_4  and  C_5
REMARK    4  A    between atoms: C_10  and  C_11
REMARK    5  A    between atoms: C_10  and  C_17
REMARK                            x       y       z     vdW  Elec       q    Type
REMARK                         _______ _______ _______ _____ _____    ______ ____
ROOT
ATOM      1  C   UNL     1       3.471   5.782  18.853  0.00  0.00    +0.000 C 
ENDROOT
BRANCH   1   2
ATOM      2  C   UNL     1       2.523   6.975  18.986  0.00  0.00    +0.000 A 
ATOM      3  C   UNL     1       2.191   7.738  17.867  0.00  0.00    +0.000 A 
ATOM      4  C   UNL     1       1.576   8.980  18.007  0.00  0.00    +0.000 A 
ATOM      5  C   UNL     1       1.208   9.446  19.266  0.00  0.00    +0.000 A 
ATOM      6  C   UNL     1       1.400   8.640  20.383  0.00  0.00    +0.000 A 
ATOM      7  C   UNL     1       2.052   7.409  20.246  0.00  0.00    +0.000 A 
ENDBRANCH   1   2
BRANCH   1   8
ATOM      8  C   UNL     1       2.774   4.353  18.708  0.00  0.00    +0.000 C 
ATOM      9  C   UNL     1       3.488   3.083  19.251  0.00  0.00    +0.000 C 
ATOM     10  C   UNL     1       3.176   2.747  20.705  0.00  0.00    +0.000 C 
ATOM     11  C   UNL     1       1.674   2.636  20.930  0.00  0.00    +0.000 C 
ATOM     12  C   UNL     1       0.950   3.897  20.475  0.00  0.00    +0.000 C 
ATOM     13  C   UNL     1       1.276   4.290  19.040  0.00  0.00    +0.000 C 
ENDBRANCH   1   8
BRANCH   1  15
ATOM     14  O   UNL     1       4.622   6.874  16.884  0.00  0.00    +0.000 OA
ATOM     15  C   UNL     1       4.752   6.116  17.852  0.00  0.00    +0.000 C 
ATOM     16  N   UNL     1       5.991   5.509  18.074  0.00  0.00    +0.000 N 
ATOM     17  H   UNL     1       6.277   5.337  19.023  0.00  0.00    +0.000 HD
BRANCH  16  18
ATOM     18  C   UNL     1       7.167   5.618  17.211  0.00  0.00    +0.000 C 
BRANCH  18  19
ATOM     19  C   UNL     1       7.029   4.948  15.846  0.00  0.00    +0.000 A 
ATOM     20  C   UNL     1       6.270   3.815  15.537  0.00  0.00    +0.000 A 
ATOM     21  N   UNL     1       6.307   3.675  14.175  0.00  0.00    +0.000 N 
ATOM     22  C   UNL     1       7.062   4.701  13.682  0.00  0.00    +0.000 A 
ATOM     23  N   UNL     1       7.536   5.456  14.654  0.00  0.00    +0.000 NA
ATOM     24  H   UNL     1       5.821   2.973  13.628  0.00  0.00    +0.000 HD
ENDBRANCH  18  19
ENDBRANCH  16  18
ENDBRANCH   1  15
TORSDOF 5
ENDMDL
MODEL 9
REMARK VINA RESULT:      -7.8      1.009      1.044
REMARK  Name = 
REMARK  5 active torsions:
REMARK  status: ('A' for Active; 'I' for Inactive)
REMARK    1  A    between atoms: C_2  and  C_10
REMARK    2  A    between atoms: N_3  and  C_4
REMARK    3  A    between atoms: C_4  and  C_5
REMARK    4  A    between atoms: C_10  and  C_11
REMARK    5  A    between atoms: C_10  and  C_17
REMARK                            x       y       z     vdW  Elec       q    Type
REMARK                         _______ _______ _______ _____ _____    ______ ____
ROOT
ATOM      1  C   UNL     1       3.043   6.064  19.231  0.00  0.00    +0.000 C 
ENDROOT
BRANCH   1   2
ATOM      2  C   UNL     1       2.385   7.444  19.179  0.00  0.00    +0.000 A 
ATOM      3  C   UNL     1       1.820   7.998  20.328  0.00  0.00    +0.000 A 
ATOM      4  C   UNL     1       0.973   9.101  20.245  0.00  0.00    +0.000 A 
ATOM      5  C   UNL     1       0.739   9.720  19.021  0.00  0.00    +0.000 A 
ATOM      6  C   UNL     1       1.403   9.272  17.884  0.00  0.00    +0.000 A 
ATOM      7  C   UNL     1       2.224   8.141  17.961  0.00  0.00    +0.000 A 
ENDBRANCH   1   2
BRANCH   1   8
ATOM      8  C   UNL     1       2.067   4.820  19.008  0.00  0.00    +0.000 C 
ATOM      9  C   UNL     1       1.789   4.300  17.570  0.00  0.00    +0.000 C 
ATOM     10  C   UNL     1       2.762   3.234  17.077  0.00  0.00    +0.000 C 
ATOM     11  C   UNL     1       2.829   2.064  18.049  0.00  0.00    +0.000 C 
ATOM     12  C   UNL     1       3.172   2.532  19.458  0.00  0.00    +0.000 C 
ATOM     13  C   UNL     1       2.249   3.632  19.965  0.00  0.00    +0.000 C 
ENDBRANCH   1   8
BRANCH   1  15
ATOM     14  O   UNL     1       4.743   6.832  17.524  0.00  0.00    +0.000 OA
ATOM     15  C   UNL     1       4.504   6.043  18.445  0.00  0.00    +0.000 C 
ATOM     16  N   UNL     1       5.476   5.102  18.796  0.00  0.00    +0.000 N 
ATOM     17  H   UNL     1       5.552   4.830  19.762  0.00  0.00    +0.000 HD
BRANCH  16  18
ATOM     18  C   UNL     1       6.753   4.892  18.117  0.00  0.00    +0.000 C 
BRANCH  18  19
ATOM     19  C   UNL     1       6.649   4.622  16.618  0.00  0.00    +0.000 A 
ATOM     20  C   UNL     1       5.817   3.694  15.985  0.00  0.00    +0.000 A 
ATOM     21  N   UNL     1       5.933   3.915  14.638  0.00  0.00    +0.000 N 
ATOM     22  C   UNL     1       6.805   4.952  14.470  0.00  0.00    +0.000 A 
ATOM     23  N   UNL     1       7.276   5.373  15.628  0.00  0.00    +0.000 NA
ATOM     24  H   UNL     1       5.425   3.434  13.903  0.00  0.00    +0.000 HD
ENDBRANCH  18  19
ENDBRANCH  16  18
ENDBRANCH   1  15
TORSDOF 5
ENDMDL
