MODEL 1
REMARK VINA RESULT:      -6.8      0.000      0.000
REMARK  Name = 
REMARK  0 active torsions:
REMARK  status: ('A' for Active; 'I' for Inactive)
REMARK                            x       y       z     vdW  Elec       q    Type
REMARK                         _______ _______ _______ _____ _____    ______ ____
ROOT
ATOM      1  O   UNL     1       6.447   4.003  13.594  0.00  0.00    +0.000 OA
ATOM      2  C   UNL     1       6.558   4.250  14.782  0.00  0.00    +0.000 C 
ATOM      3  N   UNL     1       6.094   3.450  15.785  0.00  0.00    +0.000 N 
ATOM      4  C   UNL     1       6.184   4.090  17.047  0.00  0.00    +0.000 C 
ATOM      5  C   UNL     1       4.834   4.505  17.500  0.00  0.00    +0.000 A 
ATOM      6  C   UNL     1       3.692   3.891  17.928  0.00  0.00    +0.000 A 
ATOM      7 BR   UNL     1       3.494   2.044  18.137  0.00  0.00    +0.000 Br
ATOM      8  S   UNL     1       2.447   5.014  18.241  0.00  0.00    +0.000 S 
ATOM      9  C   UNL     1       3.449   6.337  17.822  0.00  0.00    +0.000 A 
ATOM     10 BR   UNL     1       2.847   8.105  17.816  0.00  0.00    +0.000 Br
ATOM     11  C   UNL     1       4.700   5.915  17.480  0.00  0.00    +0.000 A 
ATOM     12  C   UNL     1       5.930   6.539  17.061  0.00  0.00    +0.000 C 
ATOM     13  O   UNL     1       6.148   7.738  16.998  0.00  0.00    +0.000 OA
ATOM     14  C   UNL     1       6.923   5.410  16.699  0.00  0.00    +0.000 C 
ATOM     15  O   UNL     1       7.152   5.363  15.291  0.00  0.00    +0.000 OA
ATOM     16  H   UNL     1       5.528   2.642  15.563  0.00  0.00    +0.000 HD
ENDROOT
TORSDOF 0
ENDMDL
MODEL 2
REMARK VINA RESULT:      -6.7      3.882      4.608
REMARK  Name = 
REMARK  0 active torsions:
REMARK  status: ('A' for Active; 'I' for Inactive)
REMARK                            x       y       z     vdW  Elec       q    Type
REMARK                         _______ _______ _______ _____ _____    ______ ____
ROOT
ATOM      1  O   UNL     1       5.181   1.773  20.541  0.00  0.00    +0.000 OA
ATOM      2  C   UNL     1       4.292   2.150  19.798  0.00  0.00    +0.000 C 
ATOM      3  N   UNL     1       4.486   2.589  18.521  0.00  0.00    +0.000 N 
ATOM      4  C   UNL     1       3.302   3.150  17.977  0.00  0.00    +0.000 C 
ATOM      5  C   UNL     1       3.426   4.627  17.918  0.00  0.00    +0.000 A 
ATOM      6  C   UNL     1       4.149   5.540  17.206  0.00  0.00    +0.000 A 
ATOM      7 BR   UNL     1       5.362   5.111  15.849  0.00  0.00    +0.000 Br
ATOM      8  S   UNL     1       3.827   7.138  17.712  0.00  0.00    +0.000 S 
ATOM      9  C   UNL     1       2.693   6.606  18.879  0.00  0.00    +0.000 A 
ATOM     10 BR   UNL     1       1.807   7.772  20.039  0.00  0.00    +0.000 Br
ATOM     11  C   UNL     1       2.560   5.249  18.851  0.00  0.00    +0.000 A 
ATOM     12  C   UNL     1       1.782   4.265  19.560  0.00  0.00    +0.000 C 
ATOM     13  O   UNL     1       0.911   4.489  20.385  0.00  0.00    +0.000 OA
ATOM     14  C   UNL     1       2.258   2.871  19.090  0.00  0.00    +0.000 C 
ATOM     15  O   UNL     1       2.972   2.199  20.128  0.00  0.00    +0.000 OA
ATOM     16  H   UNL     1       5.426   2.718  18.171  0.00  0.00    +0.000 HD
ENDROOT
TORSDOF 0
ENDMDL
MODEL 3
REMARK VINA RESULT:      -6.6      1.631      3.627
REMARK  Name = 
REMARK  0 active torsions:
REMARK  status: ('A' for Active; 'I' for Inactive)
REMARK                            x       y       z     vdW  Elec       q    Type
REMARK                         _______ _______ _______ _____ _____    ______ ____
ROOT
ATOM      1  O   UNL     1       8.111   6.975  18.345  0.00  0.00    +0.000 OA
ATOM      2  C   UNL     1       7.273   6.710  17.502  0.00  0.00    +0.000 C 
ATOM      3  N   UNL     1       6.069   7.340  17.383  0.00  0.00    +0.000 N 
ATOM      4  C   UNL     1       5.227   6.685  16.448  0.00  0.00    +0.000 C 
ATOM      5  C   UNL     1       4.152   5.954  17.164  0.00  0.00    +0.000 A 
ATOM      6  C   UNL     1       3.043   6.274  17.893  0.00  0.00    +0.000 A 
ATOM      7 BR   UNL     1       2.446   8.016  18.212  0.00  0.00    +0.000 Br
ATOM      8  S   UNL     1       2.262   4.883  18.500  0.00  0.00    +0.000 S 
ATOM      9  C   UNL     1       3.403   3.843  17.763  0.00  0.00    +0.000 A 
ATOM     10 BR   UNL     1       3.359   1.986  17.958  0.00  0.00    +0.000 Br
ATOM     11  C   UNL     1       4.331   4.553  17.059  0.00  0.00    +0.000 A 
ATOM     12  C   UNL     1       5.486   4.244  16.254  0.00  0.00    +0.000 C 
ATOM     13  O   UNL     1       5.867   3.131  15.933  0.00  0.00    +0.000 OA
ATOM     14  C   UNL     1       6.158   5.585  15.875  0.00  0.00    +0.000 C 
ATOM     15  O   UNL     1       7.403   5.741  16.555  0.00  0.00    +0.000 OA
ATOM     16  H   UNL     1       5.779   8.007  18.086  0.00  0.00    +0.000 HD
ENDROOT
TORSDOF 0
ENDMDL
MODEL 4
REMARK VINA RESULT:      -6.4      3.635      4.411
REMARK  Name = 
REMARK  0 active torsions:
REMARK  status: ('A' for Active; 'I' for Inactive)
REMARK                            x       y       z     vdW  Elec       q    Type
REMARK                         _______ _______ _______ _____ _____    ______ ____
ROOT
ATOM      1  O   UNL     1       4.007   2.155  21.221  0.00  0.00    +0.000 OA
ATOM      2  C   UNL     1       3.863   2.385  20.034  0.00  0.00    +0.000 C 
ATOM      3  N   UNL     1       4.885   2.594  19.156  0.00  0.00    +0.000 N 
ATOM      4  C   UNL     1       4.410   3.037  17.896  0.00  0.00    +0.000 C 
ATOM      5  C   UNL     1       4.702   4.482  17.727  0.00  0.00    +0.000 A 
ATOM      6  C   UNL     1       5.809   5.262  17.549  0.00  0.00    +0.000 A 
ATOM      7 BR   UNL     1       7.556   4.611  17.404  0.00  0.00    +0.000 Br
ATOM      8  S   UNL     1       5.412   6.920  17.489  0.00  0.00    +0.000 S 
ATOM      9  C   UNL     1       3.743   6.593  17.680  0.00  0.00    +0.000 A 
ATOM     10 BR   UNL     1       2.451   7.936  17.792  0.00  0.00    +0.000 Br
ATOM     11  C   UNL     1       3.513   5.251  17.760  0.00  0.00    +0.000 A 
ATOM     12  C   UNL     1       2.359   4.400  17.910  0.00  0.00    +0.000 C 
ATOM     13  O   UNL     1       1.193   4.758  17.915  0.00  0.00    +0.000 OA
ATOM     14  C   UNL     1       2.871   2.950  18.071  0.00  0.00    +0.000 C 
ATOM     15  O   UNL     1       2.661   2.479  19.402  0.00  0.00    +0.000 OA
ATOM     16  H   UNL     1       5.834   2.668  19.498  0.00  0.00    +0.000 HD
ENDROOT
TORSDOF 0
ENDMDL
MODEL 5
REMARK VINA RESULT:      -6.3      2.601      4.044
REMARK  Name = 
REMARK  0 active torsions:
REMARK  status: ('A' for Active; 'I' for Inactive)
REMARK                            x       y       z     vdW  Elec       q    Type
REMARK                         _______ _______ _______ _____ _____    ______ ____
ROOT
ATOM      1  O   UNL     1       7.888   6.251  18.909  0.00  0.00    +0.000 OA
ATOM      2  C   UNL     1       6.924   5.714  18.393  0.00  0.00    +0.000 C 
ATOM      3  N   UNL     1       5.852   6.381  17.875  0.00  0.00    +0.000 N 
ATOM      4  C   UNL     1       4.801   5.493  17.531  0.00  0.00    +0.000 C 
ATOM      5  C   UNL     1       3.699   5.611  18.517  0.00  0.00    +0.000 A 
ATOM      6  C   UNL     1       2.760   6.542  18.856  0.00  0.00    +0.000 A 
ATOM      7 BR   UNL     1       2.539   8.190  18.001  0.00  0.00    +0.000 Br
ATOM      8  S   UNL     1       1.809   6.030  20.177  0.00  0.00    +0.000 S 
ATOM      9  C   UNL     1       2.644   4.540  20.282  0.00  0.00    +0.000 A 
ATOM     10 BR   UNL     1       2.278   3.261  21.593  0.00  0.00    +0.000 Br
ATOM     11  C   UNL     1       3.601   4.445  19.315  0.00  0.00    +0.000 A 
ATOM     12  C   UNL     1       4.577   3.465  18.910  0.00  0.00    +0.000 C 
ATOM     13  O   UNL     1       4.706   2.341  19.365  0.00  0.00    +0.000 OA
ATOM     14  C   UNL     1       5.439   4.103  17.796  0.00  0.00    +0.000 C 
ATOM     15  O   UNL     1       6.762   4.369  18.262  0.00  0.00    +0.000 OA
ATOM     16  H   UNL     1       5.775   7.381  17.999  0.00  0.00    +0.000 HD
ENDROOT
TORSDOF 0
ENDMDL
MODEL 6
REMARK VINA RESULT:      -6.2      3.927      5.138
REMARK  Name = 
REMARK  0 active torsions:
REMARK  status: ('A' for Active; 'I' for Inactive)
REMARK                            x       y       z     vdW  Elec       q    Type
REMARK                         _______ _______ _______ _____ _____    ______ ____
ROOT
ATOM      1  O   UNL     1       0.452   2.524  18.359  0.00  0.00    +0.000 OA
ATOM      2  C   UNL     1       1.241   3.173  19.023  0.00  0.00    +0.000 C 
ATOM      3  N   UNL     1       1.246   4.535  19.106  0.00  0.00    +0.000 N 
ATOM      4  C   UNL     1       2.397   5.012  19.783  0.00  0.00    +0.000 C 
ATOM      5  C   UNL     1       3.339   5.618  18.810  0.00  0.00    +0.000 A 
ATOM      6  C   UNL     1       3.379   6.732  18.020  0.00  0.00    +0.000 A 
ATOM      7 BR   UNL     1       2.050   8.046  17.969  0.00  0.00    +0.000 Br
ATOM      8  S   UNL     1       4.791   6.780  17.063  0.00  0.00    +0.000 S 
ATOM      9  C   UNL     1       5.366   5.311  17.726  0.00  0.00    +0.000 A 
ATOM     10 BR   UNL     1       6.956   4.501  17.174  0.00  0.00    +0.000 Br
ATOM     11  C   UNL     1       4.504   4.826  18.666  0.00  0.00    +0.000 A 
ATOM     12  C   UNL     1       4.453   3.679  19.537  0.00  0.00    +0.000 C 
ATOM     13  O   UNL     1       5.328   2.842  19.684  0.00  0.00    +0.000 OA
ATOM     14  C   UNL     1       3.079   3.699  20.248  0.00  0.00    +0.000 C 
ATOM     15  O   UNL     1       2.244   2.643  19.775  0.00  0.00    +0.000 OA
ATOM     16  H   UNL     1       0.632   5.077  18.513  0.00  0.00    +0.000 HD
ENDROOT
TORSDOF 0
ENDMDL
MODEL 7
REMARK VINA RESULT:      -6.0      3.997      5.160
REMARK  Name = 
REMARK  0 active torsions:
REMARK  status: ('A' for Active; 'I' for Inactive)
REMARK                            x       y       z     vdW  Elec       q    Type
REMARK                         _______ _______ _______ _____ _____    ______ ____
ROOT
ATOM      1  O   UNL     1       0.188   2.521  19.243  0.00  0.00    +0.000 OA
ATOM      2  C   UNL     1       1.188   3.071  19.669  0.00  0.00    +0.000 C 
ATOM      3  N   UNL     1       1.194   4.266  20.326  0.00  0.00    +0.000 N 
ATOM      4  C   UNL     1       2.513   4.750  20.518  0.00  0.00    +0.000 C 
ATOM      5  C   UNL     1       2.772   5.883  19.595  0.00  0.00    +0.000 A 
ATOM      6  C   UNL     1       2.351   7.175  19.458  0.00  0.00    +0.000 A 
ATOM      7 BR   UNL     1       1.158   8.032  20.614  0.00  0.00    +0.000 Br
ATOM      8  S   UNL     1       3.035   7.921  18.084  0.00  0.00    +0.000 S 
ATOM      9  C   UNL     1       3.920   6.513  17.682  0.00  0.00    +0.000 A 
ATOM     10 BR   UNL     1       4.997   6.391  16.161  0.00  0.00    +0.000 Br
ATOM     11  C   UNL     1       3.706   5.522  18.594  0.00  0.00    +0.000 A 
ATOM     12  C   UNL     1       4.162   4.168  18.785  0.00  0.00    +0.000 C 
ATOM     13  O   UNL     1       5.007   3.589  18.123  0.00  0.00    +0.000 OA
ATOM     14  C   UNL     1       3.379   3.580  19.982  0.00  0.00    +0.000 C 
ATOM     15  O   UNL     1       2.453   2.584  19.546  0.00  0.00    +0.000 OA
ATOM     16  H   UNL     1       0.341   4.806  20.395  0.00  0.00    +0.000 HD
ENDROOT
TORSDOF 0
ENDMDL
MODEL 8
REMARK VINA RESULT:      -5.8      3.579      4.913
REMARK  Name = 
REMARK  0 active torsions:
REMARK  status: ('A' for Active; 'I' for Inactive)
REMARK                            x       y       z     vdW  Elec       q    Type
REMARK                         _______ _______ _______ _____ _____    ______ ____
ROOT
ATOM      1  O   UNL     1       2.268   7.236  19.433  0.00  0.00    +0.000 OA
ATOM      2  C   UNL     1       2.771   6.130  19.349  0.00  0.00    +0.000 C 
ATOM      3  N   UNL     1       4.034   5.820  19.761  0.00  0.00    +0.000 N 
ATOM      4  C   UNL     1       4.413   4.517  19.351  0.00  0.00    +0.000 C 
ATOM      5  C   UNL     1       5.389   4.602  18.237  0.00  0.00    +0.000 A 
ATOM      6  C   UNL     1       6.687   4.995  18.076  0.00  0.00    +0.000 A 
ATOM      7 BR   UNL     1       7.793   5.602  19.456  0.00  0.00    +0.000 Br
ATOM      8  S   UNL     1       7.185   4.884  16.448  0.00  0.00    +0.000 S 
ATOM      9  C   UNL     1       5.660   4.282  15.957  0.00  0.00    +0.000 A 
ATOM     10 BR   UNL     1       5.244   3.900  14.177  0.00  0.00    +0.000 Br
ATOM     11  C   UNL     1       4.817   4.154  17.022  0.00  0.00    +0.000 A 
ATOM     12  C   UNL     1       3.462   3.709  17.228  0.00  0.00    +0.000 C 
ATOM     13  O   UNL     1       2.726   3.217  16.389  0.00  0.00    +0.000 OA
ATOM     14  C   UNL     1       3.107   3.977  18.710  0.00  0.00    +0.000 C 
ATOM     15  O   UNL     1       2.156   5.035  18.824  0.00  0.00    +0.000 OA
ATOM     16  H   UNL     1       4.657   6.556  20.069  0.00  0.00    +0.000 HD
ENDROOT
TORSDOF 0
ENDMDL
MODEL 9
REMARK VINA RESULT:      -5.7      2.730      3.459
REMARK  Name = 
REMARK  0 active torsions:
REMARK  status: ('A' for Active; 'I' for Inactive)
REMARK                            x       y       z     vdW  Elec       q    Type
REMARK                         _______ _______ _______ _____ _____    ______ ____
ROOT
ATOM      1  O   UNL     1       7.492   8.536  17.170  0.00  0.00    +0.000 OA
ATOM      2  C   UNL     1       7.600   7.333  17.329  0.00  0.00    +0.000 C 
ATOM      3  N   UNL     1       7.433   6.404  16.344  0.00  0.00    +0.000 N 
ATOM      4  C   UNL     1       7.417   5.086  16.866  0.00  0.00    +0.000 C 
ATOM      5  C   UNL     1       6.034   4.551  16.845  0.00  0.00    +0.000 A 
ATOM      6  C   UNL     1       5.132   4.154  15.899  0.00  0.00    +0.000 A 
ATOM      7 BR   UNL     1       5.462   4.132  14.059  0.00  0.00    +0.000 Br
ATOM      8  S   UNL     1       3.646   3.689  16.597  0.00  0.00    +0.000 S 
ATOM      9  C   UNL     1       4.219   3.999  18.179  0.00  0.00    +0.000 A 
ATOM     10 BR   UNL     1       3.156   3.803  19.702  0.00  0.00    +0.000 Br
ATOM     11  C   UNL     1       5.516   4.421  18.157  0.00  0.00    +0.000 A 
ATOM     12  C   UNL     1       6.501   4.810  19.135  0.00  0.00    +0.000 C 
ATOM     13  O   UNL     1       6.377   4.756  20.347  0.00  0.00    +0.000 OA
ATOM     14  C   UNL     1       7.743   5.317  18.365  0.00  0.00    +0.000 C 
ATOM     15  O   UNL     1       7.893   6.729  18.513  0.00  0.00    +0.000 OA
ATOM     16  H   UNL     1       7.099   6.692  15.433  0.00  0.00    +0.000 HD
ENDROOT
TORSDOF 0
ENDMDL
