MODEL 1
REMARK VINA RESULT:      -6.8      0.000      0.000
REMARK  Name = 
REMARK  4 active torsions:
REMARK  status: ('A' for Active; 'I' for Inactive)
REMARK    1  A    between atoms: C_1  and  C_2
REMARK    2  A    between atoms: C_4  and  C_5
REMARK    3  A    between atoms: N_7  and  N_8
REMARK    4  A    between atoms: C_9  and  C_10
REMARK                            x       y       z     vdW  Elec       q    Type
REMARK                         _______ _______ _______ _____ _____    ______ ____
ROOT
ATOM      1  C   UNL     1       6.118   4.373  16.698  0.00  0.00    +0.000 C 
ATOM      2  O   UNL     1       6.636   4.852  17.706  0.00  0.00    +0.000 OA
ATOM      3  N   UNL     1       4.982   3.561  16.702  0.00  0.00    +0.000 N 
ATOM      4  H   UNL     1       4.631   3.192  15.824  0.00  0.00    +0.000 HD
ENDROOT
BRANCH   1   8
ATOM      5  C   UNL     1       7.287   4.461  11.730  0.00  0.00    +0.000 C 
ATOM      6  C   UNL     1       7.117   4.593  13.191  0.00  0.00    +0.000 A 
ATOM      7  C   UNL     1       6.325   3.986  14.134  0.00  0.00    +0.000 A 
ATOM      8  C   UNL     1       6.673   4.622  15.361  0.00  0.00    +0.000 A 
ATOM      9  N   UNL     1       7.628   5.548  15.156  0.00  0.00    +0.000 NA
ATOM     10  O   UNL     1       7.899   5.523  13.802  0.00  0.00    +0.000 OA
ENDBRANCH   1   8
BRANCH   3  11
ATOM     11  N   UNL     1       4.392   3.243  17.893  0.00  0.00    +0.000 NA
ATOM     12  C   UNL     1       3.180   3.660  18.099  0.00  0.00    +0.000 C 
BRANCH  12  13
ATOM     13  C   UNL     1       2.517   3.318  19.336  0.00  0.00    +0.000 A 
ATOM     14  C   UNL     1       1.182   3.462  19.667  0.00  0.00    +0.000 A 
ATOM     15  C   UNL     1       0.910   3.065  21.008  0.00  0.00    +0.000 A 
ATOM     16  C   UNL     1       2.044   2.630  21.654  0.00  0.00    +0.000 A 
ATOM     17  S   UNL     1       3.417   2.659  20.630  0.00  0.00    +0.000 S 
ENDBRANCH  12  13
ENDBRANCH   3  11
TORSDOF 3
ENDMDL
MODEL 2
REMARK VINA RESULT:      -6.7      0.915      1.139
REMARK  Name = 
REMARK  4 active torsions:
REMARK  status: ('A' for Active; 'I' for Inactive)
REMARK    1  A    between atoms: C_1  and  C_2
REMARK    2  A    between atoms: C_4  and  C_5
REMARK    3  A    between atoms: N_7  and  N_8
REMARK    4  A    between atoms: C_9  and  C_10
REMARK                            x       y       z     vdW  Elec       q    Type
REMARK                         _______ _______ _______ _____ _____    ______ ____
ROOT
ATOM      1  C   UNL     1       6.063   4.569  16.762  0.00  0.00    +0.000 C 
ATOM      2  O   UNL     1       6.781   4.413  17.750  0.00  0.00    +0.000 OA
ATOM      3  N   UNL     1       4.668   4.620  16.800  0.00  0.00    +0.000 N 
ATOM      4  H   UNL     1       4.151   4.734  15.933  0.00  0.00    +0.000 HD
ENDROOT
BRANCH   1   8
ATOM      5  C   UNL     1       7.262   4.312  11.807  0.00  0.00    +0.000 C 
ATOM      6  C   UNL     1       7.089   4.539  13.257  0.00  0.00    +0.000 A 
ATOM      7  C   UNL     1       6.271   4.019  14.229  0.00  0.00    +0.000 A 
ATOM      8  C   UNL     1       6.634   4.717  15.417  0.00  0.00    +0.000 A 
ATOM      9  N   UNL     1       7.622   5.594  15.164  0.00  0.00    +0.000 NA
ATOM     10  O   UNL     1       7.899   5.477  13.816  0.00  0.00    +0.000 OA
ENDBRANCH   1   8
BRANCH   3  11
ATOM     11  N   UNL     1       4.025   4.473  17.996  0.00  0.00    +0.000 NA
ATOM     12  C   UNL     1       3.479   3.323  18.253  0.00  0.00    +0.000 C 
BRANCH  12  13
ATOM     13  C   UNL     1       2.815   3.125  19.521  0.00  0.00    +0.000 A 
ATOM     14  C   UNL     1       3.353   2.690  20.717  0.00  0.00    +0.000 A 
ATOM     15  C   UNL     1       2.371   2.562  21.740  0.00  0.00    +0.000 A 
ATOM     16  C   UNL     1       1.116   2.907  21.292  0.00  0.00    +0.000 A 
ATOM     17  S   UNL     1       1.137   3.423  19.659  0.00  0.00    +0.000 S 
ENDBRANCH  12  13
ENDBRANCH   3  11
TORSDOF 3
ENDMDL
MODEL 3
REMARK VINA RESULT:      -6.0      3.634      3.784
REMARK  Name = 
REMARK  4 active torsions:
REMARK  status: ('A' for Active; 'I' for Inactive)
REMARK    1  A    between atoms: C_1  and  C_2
REMARK    2  A    between atoms: C_4  and  C_5
REMARK    3  A    between atoms: N_7  and  N_8
REMARK    4  A    between atoms: C_9  and  C_10
REMARK                            x       y       z     vdW  Elec       q    Type
REMARK                         _______ _______ _______ _____ _____    ______ ____
ROOT
ATOM      1  C   UNL     1       5.509   6.297  16.979  0.00  0.00    +0.000 C 
ATOM      2  O   UNL     1       6.159   7.039  17.715  0.00  0.00    +0.000 OA
ATOM      3  N   UNL     1       4.158   5.990  17.160  0.00  0.00    +0.000 N 
ATOM      4  H   UNL     1       3.703   5.352  16.515  0.00  0.00    +0.000 HD
ENDROOT
BRANCH   1   8
ATOM      5  C   UNL     1       6.576   3.696  12.718  0.00  0.00    +0.000 C 
ATOM      6  C   UNL     1       6.494   4.495  13.958  0.00  0.00    +0.000 A 
ATOM      7  C   UNL     1       5.491   4.822  14.836  0.00  0.00    +0.000 A 
ATOM      8  C   UNL     1       6.121   5.650  15.811  0.00  0.00    +0.000 A 
ATOM      9  N   UNL     1       7.429   5.794  15.531  0.00  0.00    +0.000 NA
ATOM     10  O   UNL     1       7.653   5.072  14.375  0.00  0.00    +0.000 OA
ENDBRANCH   1   8
BRANCH   3  11
ATOM     11  N   UNL     1       3.490   6.518  18.228  0.00  0.00    +0.000 NA
ATOM     12  C   UNL     1       2.751   7.566  18.022  0.00  0.00    +0.000 C 
BRANCH  12  13
ATOM     13  C   UNL     1       2.009   8.134  19.124  0.00  0.00    +0.000 A 
ATOM     14  C   UNL     1       1.855   7.639  20.405  0.00  0.00    +0.000 A 
ATOM     15  C   UNL     1       0.999   8.453  21.202  0.00  0.00    +0.000 A 
ATOM     16  C   UNL     1       0.531   9.542  20.503  0.00  0.00    +0.000 A 
ATOM     17  S   UNL     1       1.160   9.602  18.911  0.00  0.00    +0.000 S 
ENDBRANCH  12  13
ENDBRANCH   3  11
TORSDOF 3
ENDMDL
MODEL 4
REMARK VINA RESULT:      -6.0      5.904      8.656
REMARK  Name = 
REMARK  4 active torsions:
REMARK  status: ('A' for Active; 'I' for Inactive)
REMARK    1  A    between atoms: C_1  and  C_2
REMARK    2  A    between atoms: C_4  and  C_5
REMARK    3  A    between atoms: N_7  and  N_8
REMARK    4  A    between atoms: C_9  and  C_10
REMARK                            x       y       z     vdW  Elec       q    Type
REMARK                         _______ _______ _______ _____ _____    ______ ____
ROOT
ATOM      1  C   UNL     1       1.280   8.613  20.444  0.00  0.00    +0.000 C 
ATOM      2  O   UNL     1       1.428   9.031  19.295  0.00  0.00    +0.000 OA
ATOM      3  N   UNL     1       1.713   7.364  20.892  0.00  0.00    +0.000 N 
ATOM      4  H   UNL     1       1.533   7.091  21.854  0.00  0.00    +0.000 HD
ENDROOT
BRANCH   1   8
ATOM      5  C   UNL     1      -1.701  11.757  23.144  0.00  0.00    +0.000 C 
ATOM      6  C   UNL     1      -0.729  10.808  22.563  0.00  0.00    +0.000 A 
ATOM      7  C   UNL     1      -0.467  10.340  21.299  0.00  0.00    +0.000 A 
ATOM      8  C   UNL     1       0.609   9.421  21.470  0.00  0.00    +0.000 A 
ATOM      9  N   UNL     1       0.971   9.357  22.765  0.00  0.00    +0.000 NA
ATOM     10  O   UNL     1       0.133  10.225  23.438  0.00  0.00    +0.000 OA
ENDBRANCH   1   8
BRANCH   3  11
ATOM     11  N   UNL     1       2.332   6.517  20.017  0.00  0.00    +0.000 NA
ATOM     12  C   UNL     1       2.046   5.253  20.092  0.00  0.00    +0.000 C 
BRANCH  12  13
ATOM     13  C   UNL     1       2.662   4.333  19.164  0.00  0.00    +0.000 A 
ATOM     14  C   UNL     1       3.079   4.568  17.867  0.00  0.00    +0.000 A 
ATOM     15  C   UNL     1       3.591   3.395  17.241  0.00  0.00    +0.000 A 
ATOM     16  C   UNL     1       3.551   2.306  18.081  0.00  0.00    +0.000 A 
ATOM     17  S   UNL     1       2.940   2.712  19.629  0.00  0.00    +0.000 S 
ENDBRANCH  12  13
ENDBRANCH   3  11
TORSDOF 3
ENDMDL
MODEL 5
REMARK VINA RESULT:      -5.9      5.975      7.804
REMARK  Name = 
REMARK  4 active torsions:
REMARK  status: ('A' for Active; 'I' for Inactive)
REMARK    1  A    between atoms: C_1  and  C_2
REMARK    2  A    between atoms: C_4  and  C_5
REMARK    3  A    between atoms: N_7  and  N_8
REMARK    4  A    between atoms: C_9  and  C_10
REMARK                            x       y       z     vdW  Elec       q    Type
REMARK                         _______ _______ _______ _____ _____    ______ ____
ROOT
ATOM      1  C   UNL     1       7.564   6.967  17.875  0.00  0.00    +0.000 C 
ATOM      2  O   UNL     1       8.002   6.375  18.861  0.00  0.00    +0.000 OA
ATOM      3  N   UNL     1       7.825   8.306  17.577  0.00  0.00    +0.000 N 
ATOM      4  H   UNL     1       7.407   8.722  16.750  0.00  0.00    +0.000 HD
ENDROOT
BRANCH   1   8
ATOM      5  C   UNL     1       5.530   4.149  14.136  0.00  0.00    +0.000 C 
ATOM      6  C   UNL     1       5.902   5.040  15.254  0.00  0.00    +0.000 A 
ATOM      7  C   UNL     1       7.082   5.395  15.859  0.00  0.00    +0.000 A 
ATOM      8  C   UNL     1       6.699   6.292  16.899  0.00  0.00    +0.000 A 
ATOM      9  N   UNL     1       5.365   6.467  16.901  0.00  0.00    +0.000 NA
ATOM     10  O   UNL     1       4.876   5.683  15.873  0.00  0.00    +0.000 OA
ENDBRANCH   1   8
BRANCH   3  11
ATOM     11  N   UNL     1       8.601   9.042  18.427  0.00  0.00    +0.000 NA
ATOM     12  C   UNL     1       8.973  10.224  18.039  0.00  0.00    +0.000 C 
BRANCH  12  13
ATOM     13  C   UNL     1       9.772  11.038  18.925  0.00  0.00    +0.000 A 
ATOM     14  C   UNL     1      10.939  11.725  18.648  0.00  0.00    +0.000 A 
ATOM     15  C   UNL     1      11.473  12.375  19.797  0.00  0.00    +0.000 A 
ATOM     16  C   UNL     1      10.695  12.165  20.913  0.00  0.00    +0.000 A 
ATOM     17  S   UNL     1       9.307  11.226  20.560  0.00  0.00    +0.000 S 
ENDBRANCH  12  13
ENDBRANCH   3  11
TORSDOF 3
ENDMDL
MODEL 6
REMARK VINA RESULT:      -5.9      1.196      1.232
REMARK  Name = 
REMARK  4 active torsions:
REMARK  status: ('A' for Active; 'I' for Inactive)
REMARK    1  A    between atoms: C_1  and  C_2
REMARK    2  A    between atoms: C_4  and  C_5
REMARK    3  A    between atoms: N_7  and  N_8
REMARK    4  A    between atoms: C_9  and  C_10
REMARK                            x       y       z     vdW  Elec       q    Type
REMARK                         _______ _______ _______ _____ _____    ______ ____
ROOT
ATOM      1  C   UNL     1       5.599   5.149  15.589  0.00  0.00    +0.000 C 
ATOM      2  O   UNL     1       5.685   6.292  16.036  0.00  0.00    +0.000 OA
ATOM      3  N   UNL     1       4.871   4.119  16.189  0.00  0.00    +0.000 N 
ATOM      4  H   UNL     1       4.869   3.198  15.763  0.00  0.00    +0.000 HD
ENDROOT
BRANCH   1   8
ATOM      5  C   UNL     1       7.158   2.998  11.231  0.00  0.00    +0.000 C 
ATOM      6  C   UNL     1       6.888   3.762  12.465  0.00  0.00    +0.000 A 
ATOM      7  C   UNL     1       5.967   3.673  13.480  0.00  0.00    +0.000 A 
ATOM      8  C   UNL     1       6.280   4.759  14.348  0.00  0.00    +0.000 A 
ATOM      9  N   UNL     1       7.337   5.447  13.878  0.00  0.00    +0.000 NA
ATOM     10  O   UNL     1       7.709   4.820  12.705  0.00  0.00    +0.000 OA
ENDBRANCH   1   8
BRANCH   3  11
ATOM     11  N   UNL     1       4.213   4.361  17.362  0.00  0.00    +0.000 NA
ATOM     12  C   UNL     1       3.413   3.441  17.809  0.00  0.00    +0.000 C 
BRANCH  12  13
ATOM     13  C   UNL     1       2.723   3.653  19.060  0.00  0.00    +0.000 A 
ATOM     14  C   UNL     1       1.683   4.522  19.335  0.00  0.00    +0.000 A 
ATOM     15  C   UNL     1       1.299   4.492  20.706  0.00  0.00    +0.000 A 
ATOM     16  C   UNL     1       2.056   3.601  21.432  0.00  0.00    +0.000 A 
ATOM     17  S   UNL     1       3.191   2.774  20.450  0.00  0.00    +0.000 S 
ENDBRANCH  12  13
ENDBRANCH   3  11
TORSDOF 3
ENDMDL
MODEL 7
REMARK VINA RESULT:      -5.8      5.915      8.452
REMARK  Name = 
REMARK  4 active torsions:
REMARK  status: ('A' for Active; 'I' for Inactive)
REMARK    1  A    between atoms: C_1  and  C_2
REMARK    2  A    between atoms: C_4  and  C_5
REMARK    3  A    between atoms: N_7  and  N_8
REMARK    4  A    between atoms: C_9  and  C_10
REMARK                            x       y       z     vdW  Elec       q    Type
REMARK                         _______ _______ _______ _____ _____    ______ ____
ROOT
ATOM      1  C   UNL     1       7.390   6.909  17.422  0.00  0.00    +0.000 C 
ATOM      2  O   UNL     1       7.871   6.787  16.295  0.00  0.00    +0.000 OA
ATOM      3  N   UNL     1       7.529   8.045  18.222  0.00  0.00    +0.000 N 
ATOM      4  H   UNL     1       7.114   8.054  19.148  0.00  0.00    +0.000 HD
ENDROOT
BRANCH   1   8
ATOM      5  C   UNL     1       3.944   3.375  18.721  0.00  0.00    +0.000 C 
ATOM      6  C   UNL     1       5.058   4.326  18.532  0.00  0.00    +0.000 A 
ATOM      7  C   UNL     1       5.331   5.336  17.642  0.00  0.00    +0.000 A 
ATOM      8  C   UNL     1       6.607   5.831  18.039  0.00  0.00    +0.000 A 
ATOM      9  N   UNL     1       7.059   5.158  19.114  0.00  0.00    +0.000 NA
ATOM     10  O   UNL     1       6.088   4.223  19.414  0.00  0.00    +0.000 OA
ENDBRANCH   1   8
BRANCH   3  11
ATOM     11  N   UNL     1       8.257   9.104  17.758  0.00  0.00    +0.000 NA
ATOM     12  C   UNL     1       8.745   9.932  18.631  0.00  0.00    +0.000 C 
BRANCH  12  13
ATOM     13  C   UNL     1       9.543  11.048  18.176  0.00  0.00    +0.000 A 
ATOM     14  C   UNL     1      10.917  11.132  18.053  0.00  0.00    +0.000 A 
ATOM     15  C   UNL     1      11.346  12.420  17.623  0.00  0.00    +0.000 A 
ATOM     16  C   UNL     1      10.285  13.276  17.431  0.00  0.00    +0.000 A 
ATOM     17  S   UNL     1       8.781  12.510  17.725  0.00  0.00    +0.000 S 
ENDBRANCH  12  13
ENDBRANCH   3  11
TORSDOF 3
ENDMDL
MODEL 8
REMARK VINA RESULT:      -5.8      6.156      8.535
REMARK  Name = 
REMARK  4 active torsions:
REMARK  status: ('A' for Active; 'I' for Inactive)
REMARK    1  A    between atoms: C_1  and  C_2
REMARK    2  A    between atoms: C_4  and  C_5
REMARK    3  A    between atoms: N_7  and  N_8
REMARK    4  A    between atoms: C_9  and  C_10
REMARK                            x       y       z     vdW  Elec       q    Type
REMARK                         _______ _______ _______ _____ _____    ______ ____
ROOT
ATOM      1  C   UNL     1       7.628   7.076  17.787  0.00  0.00    +0.000 C 
ATOM      2  O   UNL     1       7.854   7.230  16.587  0.00  0.00    +0.000 OA
ATOM      3  N   UNL     1       8.120   7.908  18.796  0.00  0.00    +0.000 N 
ATOM      4  H   UNL     1       7.900   7.697  19.765  0.00  0.00    +0.000 HD
ENDROOT
BRANCH   1   8
ATOM      5  C   UNL     1       4.159   3.406  18.525  0.00  0.00    +0.000 C 
ATOM      6  C   UNL     1       5.250   4.400  18.515  0.00  0.00    +0.000 A 
ATOM      7  C   UNL     1       5.623   5.423  17.678  0.00  0.00    +0.000 A 
ATOM      8  C   UNL     1       6.799   5.967  18.274  0.00  0.00    +0.000 A 
ATOM      9  N   UNL     1       7.098   5.308  19.409  0.00  0.00    +0.000 NA
ATOM     10  O   UNL     1       6.129   4.334  19.552  0.00  0.00    +0.000 OA
ENDBRANCH   1   8
BRANCH   3  11
ATOM     11  N   UNL     1       8.922   8.962  18.463  0.00  0.00    +0.000 NA
ATOM     12  C   UNL     1       9.097   9.895  19.349  0.00  0.00    +0.000 C 
BRANCH  12  13
ATOM     13  C   UNL     1       9.962  11.009  19.038  0.00  0.00    +0.000 A 
ATOM     14  C   UNL     1      10.384  11.454  17.799  0.00  0.00    +0.000 A 
ATOM     15  C   UNL     1      11.283  12.555  17.894  0.00  0.00    +0.000 A 
ATOM     16  C   UNL     1      11.517  12.914  19.202  0.00  0.00    +0.000 A 
ATOM     17  S   UNL     1      10.618  11.956  20.302  0.00  0.00    +0.000 S 
ENDBRANCH  12  13
ENDBRANCH   3  11
TORSDOF 3
ENDMDL
MODEL 9
REMARK VINA RESULT:      -5.8      5.778      7.934
REMARK  Name = 
REMARK  4 active torsions:
REMARK  status: ('A' for Active; 'I' for Inactive)
REMARK    1  A    between atoms: C_1  and  C_2
REMARK    2  A    between atoms: C_4  and  C_5
REMARK    3  A    between atoms: N_7  and  N_8
REMARK    4  A    between atoms: C_9  and  C_10
REMARK                            x       y       z     vdW  Elec       q    Type
REMARK                         _______ _______ _______ _____ _____    ______ ____
ROOT
ATOM      1  C   UNL     1       7.423   6.796  18.016  0.00  0.00    +0.000 C 
ATOM      2  O   UNL     1       8.106   6.306  18.914  0.00  0.00    +0.000 OA
ATOM      3  N   UNL     1       7.640   8.057  17.456  0.00  0.00    +0.000 N 
ATOM      4  H   UNL     1       7.016   8.393  16.730  0.00  0.00    +0.000 HD
ENDROOT
BRANCH   1   8
ATOM      5  C   UNL     1       3.282   3.957  17.091  0.00  0.00    +0.000 C 
ATOM      6  C   UNL     1       4.482   4.817  17.130  0.00  0.00    +0.000 A 
ATOM      7  C   UNL     1       5.355   5.221  18.111  0.00  0.00    +0.000 A 
ATOM      8  C   UNL     1       6.281   6.072  17.441  0.00  0.00    +0.000 A 
ATOM      9  N   UNL     1       5.979   6.159  16.132  0.00  0.00    +0.000 NA
ATOM     10  O   UNL     1       4.857   5.375  15.948  0.00  0.00    +0.000 OA
ENDBRANCH   1   8
BRANCH   3  11
ATOM     11  N   UNL     1       8.662   8.831  17.928  0.00  0.00    +0.000 NA
ATOM     12  C   UNL     1       8.386  10.048  18.287  0.00  0.00    +0.000 C 
BRANCH  12  13
ATOM     13  C   UNL     1       9.439  10.884  18.816  0.00  0.00    +0.000 A 
ATOM     14  C   UNL     1      10.496  11.468  18.143  0.00  0.00    +0.000 A 
ATOM     15  C   UNL     1      11.368  12.180  19.016  0.00  0.00    +0.000 A 
ATOM     16  C   UNL     1      10.946  12.118  20.325  0.00  0.00    +0.000 A 
ATOM     17  S   UNL     1       9.482  11.242  20.487  0.00  0.00    +0.000 S 
ENDBRANCH  12  13
ENDBRANCH   3  11
TORSDOF 3
ENDMDL
