MODEL 1
REMARK VINA RESULT:      -6.8      0.000      0.000
REMARK  Name = 
REMARK  5 active torsions:
REMARK  status: ('A' for Active; 'I' for Inactive)
REMARK    1  A    between atoms: C_2  and  C_11
REMARK    2  A    between atoms: N_3  and  C_4
REMARK    3  A    between atoms: C_4  and  C_5
REMARK    4  A    between atoms: C_5  and  C_6
REMARK    5  A    between atoms: C_15  and  O_16
REMARK                            x       y       z     vdW  Elec       q    Type
REMARK                         _______ _______ _______ _____ _____    ______ ____
ROOT
ATOM      1  O   UNL     1       3.842   5.850  17.939  0.00  0.00    +0.000 OA
ATOM      2  C   UNL     1       3.861   4.680  17.553  0.00  0.00    +0.000 C 
ATOM      3  N   UNL     1       4.529   4.307  16.413  0.00  0.00    +0.000 N 
ATOM      4  H   UNL     1       4.573   3.332  16.141  0.00  0.00    +0.000 HD
ENDROOT
BRANCH   2   5
ATOM      5  C   UNL     1       3.139   3.557  18.289  0.00  0.00    +0.000 C 
ATOM      6  C   UNL     1       1.636   3.611  17.956  0.00  0.00    +0.000 C 
ATOM      7  C   UNL     1       0.804   2.653  18.797  0.00  0.00    +0.000 C 
ATOM      8  C   UNL     1       1.061   2.853  20.286  0.00  0.00    +0.000 C 
ATOM      9  C   UNL     1       2.544   2.710  20.606  0.00  0.00    +0.000 C 
ATOM     10  C   UNL     1       3.385   3.687  19.793  0.00  0.00    +0.000 C 
BRANCH   9  11
ATOM     11  O   UNL     1       2.766   2.943  21.992  0.00  0.00    +0.000 OA
ATOM     12  H   UNL     1       3.271   2.191  22.348  0.00  0.00    +0.000 HD
ENDBRANCH   9  11
ENDBRANCH   2   5
BRANCH   3  13
ATOM     13  C   UNL     1       5.292   5.289  15.664  0.00  0.00    +0.000 C 
BRANCH  13  14
ATOM     14  C   UNL     1       6.805   5.127  15.806  0.00  0.00    +0.000 C 
BRANCH  14  15
ATOM     15  C   UNL     1       7.311   5.485  17.165  0.00  0.00    +0.000 A 
ATOM     16  C   UNL     1       7.729   4.618  18.202  0.00  0.00    +0.000 A 
ATOM     17  N   UNL     1       8.143   5.276  19.286  0.00  0.00    +0.000 NA
ATOM     18  N   UNL     1       7.985   6.567  18.956  0.00  0.00    +0.000 N 
ATOM     19  C   UNL     1       7.490   6.744  17.697  0.00  0.00    +0.000 A 
ATOM     20  H   UNL     1       8.241   7.274  19.638  0.00  0.00    +0.000 HD
ENDBRANCH  14  15
ENDBRANCH  13  14
ENDBRANCH   3  13
TORSDOF 5
ENDMDL
MODEL 2
REMARK VINA RESULT:      -6.8      2.599      5.988
REMARK  Name = 
REMARK  5 active torsions:
REMARK  status: ('A' for Active; 'I' for Inactive)
REMARK    1  A    between atoms: C_2  and  C_11
REMARK    2  A    between atoms: N_3  and  C_4
REMARK    3  A    between atoms: C_4  and  C_5
REMARK    4  A    between atoms: C_5  and  C_6
REMARK    5  A    between atoms: C_15  and  O_16
REMARK                            x       y       z     vdW  Elec       q    Type
REMARK                         _______ _______ _______ _____ _____    ______ ____
ROOT
ATOM      1  O   UNL     1       2.834   5.256  17.731  0.00  0.00    +0.000 OA
ATOM      2  C   UNL     1       3.710   5.645  18.507  0.00  0.00    +0.000 C 
ATOM      3  N   UNL     1       3.431   5.940  19.819  0.00  0.00    +0.000 N 
ATOM      4  H   UNL     1       4.174   6.210  20.452  0.00  0.00    +0.000 HD
ENDROOT
BRANCH   2   5
ATOM      5  C   UNL     1       5.159   5.846  18.081  0.00  0.00    +0.000 C 
ATOM      6  C   UNL     1       5.479   4.914  16.898  0.00  0.00    +0.000 C 
ATOM      7  C   UNL     1       6.957   4.901  16.532  0.00  0.00    +0.000 C 
ATOM      8  C   UNL     1       7.827   4.594  17.745  0.00  0.00    +0.000 C 
ATOM      9  C   UNL     1       7.556   5.581  18.873  0.00  0.00    +0.000 C 
ATOM     10  C   UNL     1       6.084   5.580  19.270  0.00  0.00    +0.000 C 
BRANCH   9  11
ATOM     11  O   UNL     1       8.347   5.251  20.008  0.00  0.00    +0.000 OA
ATOM     12  H   UNL     1       8.028   5.776  20.763  0.00  0.00    +0.000 HD
ENDBRANCH   9  11
ENDBRANCH   2   5
BRANCH   3  13
ATOM     13  C   UNL     1       2.092   5.736  20.341  0.00  0.00    +0.000 C 
BRANCH  13  14
ATOM     14  C   UNL     1       1.894   4.372  21.003  0.00  0.00    +0.000 C 
BRANCH  14  15
ATOM     15  C   UNL     1       1.583   3.283  20.029  0.00  0.00    +0.000 A 
ATOM     16  C   UNL     1       0.390   3.075  19.297  0.00  0.00    +0.000 A 
ATOM     17  N   UNL     1       0.458   2.010  18.497  0.00  0.00    +0.000 NA
ATOM     18  N   UNL     1       1.688   1.523  18.717  0.00  0.00    +0.000 N 
ATOM     19  C   UNL     1       2.401   2.249  19.625  0.00  0.00    +0.000 A 
ATOM     20  H   UNL     1       1.977   0.694  18.207  0.00  0.00    +0.000 HD
ENDBRANCH  14  15
ENDBRANCH  13  14
ENDBRANCH   3  13
TORSDOF 5
ENDMDL
MODEL 3
REMARK VINA RESULT:      -6.7      2.499      5.556
REMARK  Name = 
REMARK  5 active torsions:
REMARK  status: ('A' for Active; 'I' for Inactive)
REMARK    1  A    between atoms: C_2  and  C_11
REMARK    2  A    between atoms: N_3  and  C_4
REMARK    3  A    between atoms: C_4  and  C_5
REMARK    4  A    between atoms: C_5  and  C_6
REMARK    5  A    between atoms: C_15  and  O_16
REMARK                            x       y       z     vdW  Elec       q    Type
REMARK                         _______ _______ _______ _____ _____    ______ ____
ROOT
ATOM      1  O   UNL     1       2.325   6.107  18.087  0.00  0.00    +0.000 OA
ATOM      2  C   UNL     1       3.368   5.856  18.693  0.00  0.00    +0.000 C 
ATOM      3  N   UNL     1       3.359   5.441  20.002  0.00  0.00    +0.000 N 
ATOM      4  H   UNL     1       4.223   5.192  20.467  0.00  0.00    +0.000 HD
ENDROOT
BRANCH   2   5
ATOM      5  C   UNL     1       4.747   5.998  18.059  0.00  0.00    +0.000 C 
ATOM      6  C   UNL     1       4.817   5.128  16.790  0.00  0.00    +0.000 C 
ATOM      7  C   UNL     1       6.218   5.049  16.198  0.00  0.00    +0.000 C 
ATOM      8  C   UNL     1       7.240   4.613  17.241  0.00  0.00    +0.000 C 
ATOM      9  C   UNL     1       7.212   5.538  18.451  0.00  0.00    +0.000 C 
ATOM     10  C   UNL     1       5.821   5.600  19.072  0.00  0.00    +0.000 C 
BRANCH   9  11
ATOM     11  O   UNL     1       8.142   5.088  19.428  0.00  0.00    +0.000 OA
ATOM     12  H   UNL     1       8.854   4.609  18.970  0.00  0.00    +0.000 HD
ENDBRANCH   9  11
ENDBRANCH   2   5
BRANCH   3  13
ATOM     13  C   UNL     1       2.097   5.226  20.687  0.00  0.00    +0.000 C 
BRANCH  13  14
ATOM     14  C   UNL     1       1.767   3.750  20.912  0.00  0.00    +0.000 C 
BRANCH  14  15
ATOM     15  C   UNL     1       2.192   2.872  19.783  0.00  0.00    +0.000 A 
ATOM     16  C   UNL     1       3.425   2.196  19.612  0.00  0.00    +0.000 A 
ATOM     17  N   UNL     1       3.464   1.477  18.489  0.00  0.00    +0.000 NA
ATOM     18  N   UNL     1       2.265   1.693  17.928  0.00  0.00    +0.000 N 
ATOM     19  C   UNL     1       1.467   2.520  18.663  0.00  0.00    +0.000 A 
ATOM     20  H   UNL     1       2.056   1.238  17.045  0.00  0.00    +0.000 HD
ENDBRANCH  14  15
ENDBRANCH  13  14
ENDBRANCH   3  13
TORSDOF 5
ENDMDL
MODEL 4
REMARK VINA RESULT:      -6.7      2.609      5.515
REMARK  Name = 
REMARK  5 active torsions:
REMARK  status: ('A' for Active; 'I' for Inactive)
REMARK    1  A    between atoms: C_2  and  C_11
REMARK    2  A    between atoms: N_3  and  C_4
REMARK    3  A    between atoms: C_4  and  C_5
REMARK    4  A    between atoms: C_5  and  C_6
REMARK    5  A    between atoms: C_15  and  O_16
REMARK                            x       y       z     vdW  Elec       q    Type
REMARK                         _______ _______ _______ _____ _____    ______ ____
ROOT
ATOM      1  O   UNL     1       2.904   6.856  17.937  0.00  0.00    +0.000 OA
ATOM      2  C   UNL     1       3.634   5.880  17.758  0.00  0.00    +0.000 C 
ATOM      3  N   UNL     1       3.126   4.608  17.658  0.00  0.00    +0.000 N 
ATOM      4  H   UNL     1       3.738   3.826  17.461  0.00  0.00    +0.000 HD
ENDROOT
BRANCH   2   5
ATOM      5  C   UNL     1       5.150   5.992  17.649  0.00  0.00    +0.000 C 
ATOM      6  C   UNL     1       5.664   4.979  16.610  0.00  0.00    +0.000 C 
ATOM      7  C   UNL     1       7.183   4.878  16.575  0.00  0.00    +0.000 C 
ATOM      8  C   UNL     1       7.755   4.606  17.962  0.00  0.00    +0.000 C 
ATOM      9  C   UNL     1       7.302   5.669  18.955  0.00  0.00    +0.000 C 
ATOM     10  C   UNL     1       5.782   5.756  19.022  0.00  0.00    +0.000 C 
BRANCH   9  11
ATOM     11  O   UNL     1       7.812   5.372  20.250  0.00  0.00    +0.000 OA
ATOM     12  H   UNL     1       8.620   5.896  20.384  0.00  0.00    +0.000 HD
ENDBRANCH   9  11
ENDBRANCH   2   5
BRANCH   3  13
ATOM     13  C   UNL     1       1.690   4.394  17.698  0.00  0.00    +0.000 C 
BRANCH  13  14
ATOM     14  C   UNL     1       1.286   3.083  18.372  0.00  0.00    +0.000 C 
BRANCH  14  15
ATOM     15  C   UNL     1       1.830   2.938  19.755  0.00  0.00    +0.000 A 
ATOM     16  C   UNL     1       1.243   3.347  20.976  0.00  0.00    +0.000 A 
ATOM     17  N   UNL     1       1.997   3.045  22.034  0.00  0.00    +0.000 NA
ATOM     18  N   UNL     1       3.074   2.450  21.500  0.00  0.00    +0.000 N 
ATOM     19  C   UNL     1       3.022   2.361  20.140  0.00  0.00    +0.000 A 
ATOM     20  H   UNL     1       3.805   2.123  22.125  0.00  0.00    +0.000 HD
ENDBRANCH  14  15
ENDBRANCH  13  14
ENDBRANCH   3  13
TORSDOF 5
ENDMDL
MODEL 5
REMARK VINA RESULT:      -6.6      1.524      2.546
REMARK  Name = 
REMARK  5 active torsions:
REMARK  status: ('A' for Active; 'I' for Inactive)
REMARK    1  A    between atoms: C_2  and  C_11
REMARK    2  A    between atoms: N_3  and  C_4
REMARK    3  A    between atoms: C_4  and  C_5
REMARK    4  A    between atoms: C_5  and  C_6
REMARK    5  A    between atoms: C_15  and  O_16
REMARK                            x       y       z     vdW  Elec       q    Type
REMARK                         _______ _______ _______ _____ _____    ______ ____
ROOT
ATOM      1  O   UNL     1       4.109   5.996  19.338  0.00  0.00    +0.000 OA
ATOM      2  C   UNL     1       4.443   4.810  19.355  0.00  0.00    +0.000 C 
ATOM      3  N   UNL     1       5.763   4.432  19.322  0.00  0.00    +0.000 N 
ATOM      4  H   UNL     1       6.018   3.454  19.387  0.00  0.00    +0.000 HD
ENDROOT
BRANCH   2   5
ATOM      5  C   UNL     1       3.434   3.669  19.397  0.00  0.00    +0.000 C 
ATOM      6  C   UNL     1       2.301   3.950  18.393  0.00  0.00    +0.000 C 
ATOM      7  C   UNL     1       1.146   2.965  18.506  0.00  0.00    +0.000 C 
ATOM      8  C   UNL     1       0.626   2.878  19.936  0.00  0.00    +0.000 C 
ATOM      9  C   UNL     1       1.747   2.514  20.901  0.00  0.00    +0.000 C 
ATOM     10  C   UNL     1       2.896   3.512  20.820  0.00  0.00    +0.000 C 
BRANCH   9  11
ATOM     11  O   UNL     1       1.249   2.480  22.233  0.00  0.00    +0.000 OA
ATOM     12  H   UNL     1       1.634   3.230  22.719  0.00  0.00    +0.000 HD
ENDBRANCH   9  11
ENDBRANCH   2   5
BRANCH   3  13
ATOM     13  C   UNL     1       6.808   5.441  19.330  0.00  0.00    +0.000 C 
BRANCH  13  14
ATOM     14  C   UNL     1       7.668   5.441  18.066  0.00  0.00    +0.000 C 
BRANCH  14  15
ATOM     15  C   UNL     1       6.880   5.661  16.817  0.00  0.00    +0.000 A 
ATOM     16  C   UNL     1       5.926   6.672  16.547  0.00  0.00    +0.000 A 
ATOM     17  N   UNL     1       5.422   6.587  15.315  0.00  0.00    +0.000 NA
ATOM     18  N   UNL     1       6.039   5.517  14.791  0.00  0.00    +0.000 N 
ATOM     19  C   UNL     1       6.921   4.929  15.649  0.00  0.00    +0.000 A 
ATOM     20  H   UNL     1       5.813   5.249  13.838  0.00  0.00    +0.000 HD
ENDBRANCH  14  15
ENDBRANCH  13  14
ENDBRANCH   3  13
TORSDOF 5
ENDMDL
MODEL 6
REMARK VINA RESULT:      -6.6      2.668      5.745
REMARK  Name = 
REMARK  5 active torsions:
REMARK  status: ('A' for Active; 'I' for Inactive)
REMARK    1  A    between atoms: C_2  and  C_11
REMARK    2  A    between atoms: N_3  and  C_4
REMARK    3  A    between atoms: C_4  and  C_5
REMARK    4  A    between atoms: C_5  and  C_6
REMARK    5  A    between atoms: C_15  and  O_16
REMARK                            x       y       z     vdW  Elec       q    Type
REMARK                         _______ _______ _______ _____ _____    ______ ____
ROOT
ATOM      1  O   UNL     1       3.086   5.003  17.366  0.00  0.00    +0.000 OA
ATOM      2  C   UNL     1       4.197   4.699  17.805  0.00  0.00    +0.000 C 
ATOM      3  N   UNL     1       4.595   3.389  17.917  0.00  0.00    +0.000 N 
ATOM      4  H   UNL     1       5.531   3.164  18.232  0.00  0.00    +0.000 HD
ENDROOT
BRANCH   2   5
ATOM      5  C   UNL     1       5.211   5.736  18.273  0.00  0.00    +0.000 C 
ATOM      6  C   UNL     1       5.946   6.320  17.052  0.00  0.00    +0.000 C 
ATOM      7  C   UNL     1       7.114   7.219  17.432  0.00  0.00    +0.000 C 
ATOM      8  C   UNL     1       8.072   6.513  18.385  0.00  0.00    +0.000 C 
ATOM      9  C   UNL     1       7.340   6.019  19.626  0.00  0.00    +0.000 C 
ATOM     10  C   UNL     1       6.187   5.092  19.259  0.00  0.00    +0.000 C 
BRANCH   9  11
ATOM     11  O   UNL     1       8.243   5.327  20.480  0.00  0.00    +0.000 OA
ATOM     12  H   UNL     1       8.201   4.380  20.262  0.00  0.00    +0.000 HD
ENDBRANCH   9  11
ENDBRANCH   2   5
BRANCH   3  13
ATOM     13  C   UNL     1       3.725   2.324  17.453  0.00  0.00    +0.000 C 
BRANCH  13  14
ATOM     14  C   UNL     1       3.123   1.490  18.584  0.00  0.00    +0.000 C 
BRANCH  14  15
ATOM     15  C   UNL     1       2.226   2.277  19.482  0.00  0.00    +0.000 A 
ATOM     16  C   UNL     1       2.482   2.734  20.797  0.00  0.00    +0.000 A 
ATOM     17  N   UNL     1       1.463   3.429  21.307  0.00  0.00    +0.000 NA
ATOM     18  N   UNL     1       0.546   3.414  20.328  0.00  0.00    +0.000 N 
ATOM     19  C   UNL     1       0.954   2.738  19.216  0.00  0.00    +0.000 A 
ATOM     20  H   UNL     1      -0.336   3.892  20.487  0.00  0.00    +0.000 HD
ENDBRANCH  14  15
ENDBRANCH  13  14
ENDBRANCH   3  13
TORSDOF 5
ENDMDL
MODEL 7
REMARK VINA RESULT:      -6.6      1.536      2.030
REMARK  Name = 
REMARK  5 active torsions:
REMARK  status: ('A' for Active; 'I' for Inactive)
REMARK    1  A    between atoms: C_2  and  C_11
REMARK    2  A    between atoms: N_3  and  C_4
REMARK    3  A    between atoms: C_4  and  C_5
REMARK    4  A    between atoms: C_5  and  C_6
REMARK    5  A    between atoms: C_15  and  O_16
REMARK                            x       y       z     vdW  Elec       q    Type
REMARK                         _______ _______ _______ _____ _____    ______ ____
ROOT
ATOM      1  O   UNL     1       4.118   2.556  17.385  0.00  0.00    +0.000 OA
ATOM      2  C   UNL     1       3.824   3.748  17.279  0.00  0.00    +0.000 C 
ATOM      3  N   UNL     1       4.492   4.583  16.417  0.00  0.00    +0.000 N 
ATOM      4  H   UNL     1       4.201   5.547  16.309  0.00  0.00    +0.000 HD
ENDROOT
BRANCH   2   5
ATOM      5  C   UNL     1       2.715   4.400  18.097  0.00  0.00    +0.000 C 
ATOM      6  C   UNL     1       3.280   5.622  18.843  0.00  0.00    +0.000 C 
ATOM      7  C   UNL     1       2.296   6.220  19.839  0.00  0.00    +0.000 C 
ATOM      8  C   UNL     1       1.768   5.164  20.803  0.00  0.00    +0.000 C 
ATOM      9  C   UNL     1       1.136   4.004  20.044  0.00  0.00    +0.000 C 
ATOM     10  C   UNL     1       2.123   3.376  19.066  0.00  0.00    +0.000 C 
BRANCH   9  11
ATOM     11  O   UNL     1       0.689   3.011  20.961  0.00  0.00    +0.000 OA
ATOM     12  H   UNL     1       1.362   2.918  21.657  0.00  0.00    +0.000 HD
ENDBRANCH   9  11
ENDBRANCH   2   5
BRANCH   3  13
ATOM     13  C   UNL     1       5.534   4.054  15.555  0.00  0.00    +0.000 C 
BRANCH  13  14
ATOM     14  C   UNL     1       6.790   4.923  15.509  0.00  0.00    +0.000 C 
BRANCH  14  15
ATOM     15  C   UNL     1       7.263   5.347  16.861  0.00  0.00    +0.000 A 
ATOM     16  C   UNL     1       7.378   6.659  17.379  0.00  0.00    +0.000 A 
ATOM     17  N   UNL     1       7.819   6.677  18.638  0.00  0.00    +0.000 NA
ATOM     18  N   UNL     1       8.000   5.380  18.931  0.00  0.00    +0.000 N 
ATOM     19  C   UNL     1       7.682   4.545  17.902  0.00  0.00    +0.000 A 
ATOM     20  H   UNL     1       8.338   5.139  19.858  0.00  0.00    +0.000 HD
ENDBRANCH  14  15
ENDBRANCH  13  14
ENDBRANCH   3  13
TORSDOF 5
ENDMDL
MODEL 8
REMARK VINA RESULT:      -6.6      1.139      1.341
REMARK  Name = 
REMARK  5 active torsions:
REMARK  status: ('A' for Active; 'I' for Inactive)
REMARK    1  A    between atoms: C_2  and  C_11
REMARK    2  A    between atoms: N_3  and  C_4
REMARK    3  A    between atoms: C_4  and  C_5
REMARK    4  A    between atoms: C_5  and  C_6
REMARK    5  A    between atoms: C_15  and  O_16
REMARK                            x       y       z     vdW  Elec       q    Type
REMARK                         _______ _______ _______ _____ _____    ______ ____
ROOT
ATOM      1  O   UNL     1       2.305   6.437  17.933  0.00  0.00    +0.000 OA
ATOM      2  C   UNL     1       3.094   5.490  17.947  0.00  0.00    +0.000 C 
ATOM      3  N   UNL     1       4.326   5.569  17.346  0.00  0.00    +0.000 N 
ATOM      4  H   UNL     1       4.978   4.797  17.412  0.00  0.00    +0.000 HD
ENDROOT
BRANCH   2   5
ATOM      5  C   UNL     1       2.771   4.156  18.611  0.00  0.00    +0.000 C 
ATOM      6  C   UNL     1       1.354   3.712  18.203  0.00  0.00    +0.000 C 
ATOM      7  C   UNL     1       0.867   2.492  18.972  0.00  0.00    +0.000 C 
ATOM      8  C   UNL     1       0.984   2.699  20.478  0.00  0.00    +0.000 C 
ATOM      9  C   UNL     1       2.413   3.054  20.868  0.00  0.00    +0.000 C 
ATOM     10  C   UNL     1       2.900   4.294  20.128  0.00  0.00    +0.000 C 
BRANCH   9  11
ATOM     11  O   UNL     1       2.489   3.284  22.270  0.00  0.00    +0.000 OA
ATOM     12  H   UNL     1       2.860   2.487  22.688  0.00  0.00    +0.000 HD
ENDBRANCH   9  11
ENDBRANCH   2   5
BRANCH   3  13
ATOM     13  C   UNL     1       4.755   6.810  16.727  0.00  0.00    +0.000 C 
BRANCH  13  14
ATOM     14  C   UNL     1       6.173   7.229  17.114  0.00  0.00    +0.000 C 
BRANCH  14  15
ATOM     15  C   UNL     1       7.001   6.098  17.629  0.00  0.00    +0.000 A 
ATOM     16  C   UNL     1       7.422   4.934  16.942  0.00  0.00    +0.000 A 
ATOM     17  N   UNL     1       8.172   4.133  17.701  0.00  0.00    +0.000 NA
ATOM     18  N   UNL     1       8.229   4.771  18.880  0.00  0.00    +0.000 N 
ATOM     19  C   UNL     1       7.545   5.951  18.888  0.00  0.00    +0.000 A 
ATOM     20  H   UNL     1       8.759   4.345  19.634  0.00  0.00    +0.000 HD
ENDBRANCH  14  15
ENDBRANCH  13  14
ENDBRANCH   3  13
TORSDOF 5
ENDMDL
MODEL 9
REMARK VINA RESULT:      -6.5      1.438      2.753
REMARK  Name = 
REMARK  5 active torsions:
REMARK  status: ('A' for Active; 'I' for Inactive)
REMARK    1  A    between atoms: C_2  and  C_11
REMARK    2  A    between atoms: N_3  and  C_4
REMARK    3  A    between atoms: C_4  and  C_5
REMARK    4  A    between atoms: C_5  and  C_6
REMARK    5  A    between atoms: C_15  and  O_16
REMARK                            x       y       z     vdW  Elec       q    Type
REMARK                         _______ _______ _______ _____ _____    ______ ____
ROOT
ATOM      1  O   UNL     1       4.434   5.865  19.545  0.00  0.00    +0.000 OA
ATOM      2  C   UNL     1       4.861   4.740  19.279  0.00  0.00    +0.000 C 
ATOM      3  N   UNL     1       6.178   4.527  18.955  0.00  0.00    +0.000 N 
ATOM      4  H   UNL     1       6.519   3.587  18.789  0.00  0.00    +0.000 HD
ENDROOT
BRANCH   2   5
ATOM      5  C   UNL     1       3.973   3.501  19.271  0.00  0.00    +0.000 C 
ATOM      6  C   UNL     1       3.469   3.243  17.839  0.00  0.00    +0.000 C 
ATOM      7  C   UNL     1       2.417   2.145  17.766  0.00  0.00    +0.000 C 
ATOM      8  C   UNL     1       1.268   2.409  18.733  0.00  0.00    +0.000 C 
ATOM      9  C   UNL     1       1.782   2.576  20.157  0.00  0.00    +0.000 C 
ATOM     10  C   UNL     1       2.813   3.695  20.248  0.00  0.00    +0.000 C 
BRANCH   9  11
ATOM     11  O   UNL     1       0.699   2.863  21.033  0.00  0.00    +0.000 OA
ATOM     12  H   UNL     1       0.321   3.722  20.775  0.00  0.00    +0.000 HD
ENDBRANCH   9  11
ENDBRANCH   2   5
BRANCH   3  13
ATOM     13  C   UNL     1       7.121   5.630  18.981  0.00  0.00    +0.000 C 
BRANCH  13  14
ATOM     14  C   UNL     1       7.242   6.363  17.645  0.00  0.00    +0.000 C 
BRANCH  14  15
ATOM     15  C   UNL     1       6.712   5.578  16.492  0.00  0.00    +0.000 A 
ATOM     16  C   UNL     1       5.520   5.792  15.758  0.00  0.00    +0.000 A 
ATOM     17  N   UNL     1       5.359   4.909  14.771  0.00  0.00    +0.000 NA
ATOM     18  N   UNL     1       6.438   4.117  14.871  0.00  0.00    +0.000 N 
ATOM     19  C   UNL     1       7.278   4.476  15.885  0.00  0.00    +0.000 A 
ATOM     20  H   UNL     1       6.539   3.354  14.210  0.00  0.00    +0.000 HD
ENDBRANCH  14  15
ENDBRANCH  13  14
ENDBRANCH   3  13
TORSDOF 5
ENDMDL
