MODEL 1
REMARK VINA RESULT:      -9.8      0.000      0.000
REMARK  Name = 
REMARK  7 active torsions:
REMARK  status: ('A' for Active; 'I' for Inactive)
REMARK    1  A    between atoms: N_11  and  C_12
REMARK    2  A    between atoms: N_15  and  C_16
REMARK    3  A    between atoms: C_16  and  C_17
REMARK    4  A    between atoms: C_17  and  C_18
REMARK    5  A    between atoms: C_18  and  C_19
REMARK    6  A    between atoms: C_19  and  C_20
REMARK    7  A    between atoms: C_19  and  C_27
REMARK                            x       y       z     vdW  Elec       q    Type
REMARK                         _______ _______ _______ _____ _____    ______ ____
ROOT
ATOM      1  C   UNL     1       2.899   2.176  17.478  0.00  0.00    +0.000 C 
ENDROOT
BRANCH   1   5
ATOM      2  C   UNL     1       1.847   4.319  20.961  0.00  0.00    +0.000 C 
ATOM      3  C   UNL     1       2.870   3.198  21.131  0.00  0.00    +0.000 C 
ATOM      4  C   UNL     1       3.291   2.513  19.831  0.00  0.00    +0.000 C 
ATOM      5  N   UNL     1       2.255   2.281  18.811  0.00  0.00    +0.000 NA
ATOM      6  C   UNL     1       1.196   3.296  18.749  0.00  0.00    +0.000 C 
ATOM      7  C   UNL     1       0.698   3.767  20.111  0.00  0.00    +0.000 C 
BRANCH   2  18
ATOM      8  O   UNL     1       4.451   5.171  19.754  0.00  0.00    +0.000 OA
ATOM      9  C   UNL     1       3.422   5.835  19.678  0.00  0.00    +0.000 C 
ATOM     10  O   UNL     1       3.342   6.829  18.700  0.00  0.00    +0.000 OA
ATOM     11  C   UNL     1       2.388   7.842  18.798  0.00  0.00    +0.000 A 
ATOM     12  C   UNL     1       2.397   8.819  17.808  0.00  0.00    +0.000 A 
ATOM     13  C   UNL     1       1.616   9.958  17.980  0.00  0.00    +0.000 A 
ATOM     14  C   UNL     1       0.838  10.098  19.130  0.00  0.00    +0.000 A 
ATOM     15  C   UNL     1       0.800   9.078  20.086  0.00  0.00    +0.000 A 
ATOM     16  C   UNL     1       1.566   7.923  19.912  0.00  0.00    +0.000 A 
ATOM     17  C   UNL     1       1.571   6.817  20.907  0.00  0.00    +0.000 C 
ATOM     18  N   UNL     1       2.290   5.636  20.446  0.00  0.00    +0.000 N 
ENDBRANCH   2  18
ENDBRANCH   1   5
BRANCH   1  19
ATOM     19  C   UNL     1       3.419   3.516  16.933  0.00  0.00    +0.000 C 
BRANCH  19  20
ATOM     20  C   UNL     1       4.945   3.576  16.783  0.00  0.00    +0.000 C 
BRANCH  20  21
ATOM     21  C   UNL     1       5.450   4.824  16.026  0.00  0.00    +0.000 C 
BRANCH  21  22
ATOM     22  C   UNL     1       6.418   5.658  16.881  0.00  0.00    +0.000 A 
ATOM     23  C   UNL     1       7.149   5.089  17.940  0.00  0.00    +0.000 A 
ATOM     24  C   UNL     1       7.982   5.870  18.746  0.00  0.00    +0.000 A 
ATOM     25  C   UNL     1       8.069   7.229  18.519  0.00  0.00    +0.000 A 
ATOM     26  F   UNL     1       8.844   7.987  19.312  0.00  0.00    +0.000 F 
ATOM     27  C   UNL     1       7.353   7.830  17.494  0.00  0.00    +0.000 A 
ATOM     28  C   UNL     1       6.539   7.046  16.665  0.00  0.00    +0.000 A 
ENDBRANCH  21  22
BRANCH  21  29
ATOM     29  C   UNL     1       6.011   4.459  14.648  0.00  0.00    +0.000 A 
ATOM     30  C   UNL     1       5.266   3.628  13.789  0.00  0.00    +0.000 A 
ATOM     31  C   UNL     1       5.687   3.399  12.478  0.00  0.00    +0.000 A 
ATOM     32  C   UNL     1       6.865   3.978  12.024  0.00  0.00    +0.000 A 
ATOM     33  F   UNL     1       7.235   3.815  10.748  0.00  0.00    +0.000 F 
ATOM     34  C   UNL     1       7.664   4.724  12.878  0.00  0.00    +0.000 A 
ATOM     35  C   UNL     1       7.246   4.948  14.190  0.00  0.00    +0.000 A 
ENDBRANCH  21  29
ENDBRANCH  20  21
ENDBRANCH  19  20
ENDBRANCH   1  19
TORSDOF 7
ENDMDL
MODEL 2
REMARK VINA RESULT:      -9.7      0.418      3.919
REMARK  Name = 
REMARK  7 active torsions:
REMARK  status: ('A' for Active; 'I' for Inactive)
REMARK    1  A    between atoms: N_11  and  C_12
REMARK    2  A    between atoms: N_15  and  C_16
REMARK    3  A    between atoms: C_16  and  C_17
REMARK    4  A    between atoms: C_17  and  C_18
REMARK    5  A    between atoms: C_18  and  C_19
REMARK    6  A    between atoms: C_19  and  C_20
REMARK    7  A    between atoms: C_19  and  C_27
REMARK                            x       y       z     vdW  Elec       q    Type
REMARK                         _______ _______ _______ _____ _____    ______ ____
ROOT
ATOM      1  C   UNL     1       2.881   2.223  17.421  0.00  0.00    +0.000 C 
ENDROOT
BRANCH   1   5
ATOM      2  C   UNL     1       1.866   4.338  20.933  0.00  0.00    +0.000 C 
ATOM      3  C   UNL     1       2.894   3.219  21.081  0.00  0.00    +0.000 C 
ATOM      4  C   UNL     1       3.302   2.544  19.771  0.00  0.00    +0.000 C 
ATOM      5  N   UNL     1       2.254   2.317  18.763  0.00  0.00    +0.000 NA
ATOM      6  C   UNL     1       1.191   3.329  18.722  0.00  0.00    +0.000 C 
ATOM      7  C   UNL     1       0.708   3.788  20.093  0.00  0.00    +0.000 C 
BRANCH   2  18
ATOM      8  O   UNL     1       4.440   5.198  19.667  0.00  0.00    +0.000 OA
ATOM      9  C   UNL     1       3.411   5.865  19.627  0.00  0.00    +0.000 C 
ATOM     10  O   UNL     1       3.308   6.871  18.663  0.00  0.00    +0.000 OA
ATOM     11  C   UNL     1       2.359   7.885  18.798  0.00  0.00    +0.000 A 
ATOM     12  C   UNL     1       2.344   8.874  17.819  0.00  0.00    +0.000 A 
ATOM     13  C   UNL     1       1.572  10.012  18.025  0.00  0.00    +0.000 A 
ATOM     14  C   UNL     1       0.824  10.140  19.196  0.00  0.00    +0.000 A 
ATOM     15  C   UNL     1       0.808   9.109  20.141  0.00  0.00    +0.000 A 
ATOM     16  C   UNL     1       1.567   7.955  19.934  0.00  0.00    +0.000 A 
ATOM     17  C   UNL     1       1.595   6.836  20.915  0.00  0.00    +0.000 C 
ATOM     18  N   UNL     1       2.299   5.660  20.421  0.00  0.00    +0.000 N 
ENDBRANCH   2  18
ENDBRANCH   1   5
BRANCH   1  19
ATOM     19  C   UNL     1       4.370   2.601  17.405  0.00  0.00    +0.000 C 
BRANCH  19  20
ATOM     20  C   UNL     1       4.680   3.877  16.611  0.00  0.00    +0.000 C 
BRANCH  20  21
ATOM     21  C   UNL     1       6.184   4.094  16.337  0.00  0.00    +0.000 C 
BRANCH  21  22
ATOM     22  C   UNL     1       6.487   4.158  14.831  0.00  0.00    +0.000 A 
ATOM     23  C   UNL     1       7.524   4.959  14.317  0.00  0.00    +0.000 A 
ATOM     24  C   UNL     1       7.752   5.053  12.942  0.00  0.00    +0.000 A 
ATOM     25  C   UNL     1       6.928   4.373  12.067  0.00  0.00    +0.000 A 
ATOM     26  F   UNL     1       7.125   4.487  10.744  0.00  0.00    +0.000 F 
ATOM     27  C   UNL     1       5.886   3.584  12.534  0.00  0.00    +0.000 A 
ATOM     28  C   UNL     1       5.673   3.464  13.913  0.00  0.00    +0.000 A 
ENDBRANCH  21  22
BRANCH  21  29
ATOM     29  C   UNL     1       6.735   5.288  17.122  0.00  0.00    +0.000 A 
ATOM     30  C   UNL     1       7.562   5.066  18.240  0.00  0.00    +0.000 A 
ATOM     31  C   UNL     1       8.191   6.134  18.884  0.00  0.00    +0.000 A 
ATOM     32  C   UNL     1       7.979   7.429  18.431  0.00  0.00    +0.000 A 
ATOM     33  F   UNL     1       8.633   8.447  19.003  0.00  0.00    +0.000 F 
ATOM     34  C   UNL     1       7.096   7.682  17.391  0.00  0.00    +0.000 A 
ATOM     35  C   UNL     1       6.464   6.616  16.752  0.00  0.00    +0.000 A 
ENDBRANCH  21  29
ENDBRANCH  20  21
ENDBRANCH  19  20
ENDBRANCH   1  19
TORSDOF 7
ENDMDL
MODEL 3
REMARK VINA RESULT:      -9.4      4.357      7.372
REMARK  Name = 
REMARK  7 active torsions:
REMARK  status: ('A' for Active; 'I' for Inactive)
REMARK    1  A    between atoms: N_11  and  C_12
REMARK    2  A    between atoms: N_15  and  C_16
REMARK    3  A    between atoms: C_16  and  C_17
REMARK    4  A    between atoms: C_17  and  C_18
REMARK    5  A    between atoms: C_18  and  C_19
REMARK    6  A    between atoms: C_19  and  C_20
REMARK    7  A    between atoms: C_19  and  C_27
REMARK                            x       y       z     vdW  Elec       q    Type
REMARK                         _______ _______ _______ _____ _____    ______ ____
ROOT
ATOM      1  C   UNL     1       1.775   9.742  18.210  0.00  0.00    +0.000 C 
ENDROOT
BRANCH   1   5
ATOM      2  C   UNL     1      -0.879  12.158  20.436  0.00  0.00    +0.000 C 
ATOM      3  C   UNL     1      -0.254  10.973  21.168  0.00  0.00    +0.000 C 
ATOM      4  C   UNL     1       0.771  10.182  20.354  0.00  0.00    +0.000 C 
ATOM      5  N   UNL     1       0.495   9.973  18.924  0.00  0.00    +0.000 NA
ATOM      6  C   UNL     1      -0.231  11.061  18.258  0.00  0.00    +0.000 C 
ATOM      7  C   UNL     1      -1.375  11.647  19.079  0.00  0.00    +0.000 C 
BRANCH   2  18
ATOM      8  O   UNL     1       1.823  12.924  21.476  0.00  0.00    +0.000 OA
ATOM      9  C   UNL     1       1.245  13.534  20.581  0.00  0.00    +0.000 C 
ATOM     10  O   UNL     1       1.995  14.378  19.760  0.00  0.00    +0.000 OA
ATOM     11  C   UNL     1       1.367  15.361  18.993  0.00  0.00    +0.000 A 
ATOM     12  C   UNL     1       2.185  16.189  18.231  0.00  0.00    +0.000 A 
ATOM     13  C   UNL     1       1.629  17.313  17.628  0.00  0.00    +0.000 A 
ATOM     14  C   UNL     1       0.269  17.585  17.789  0.00  0.00    +0.000 A 
ATOM     15  C   UNL     1      -0.546  16.707  18.512  0.00  0.00    +0.000 A 
ATOM     16  C   UNL     1       0.001  15.567  19.105  0.00  0.00    +0.000 A 
ATOM     17  C   UNL     1      -0.821  14.612  19.896  0.00  0.00    +0.000 C 
ATOM     18  N   UNL     1      -0.095  13.405  20.268  0.00  0.00    +0.000 N 
ENDBRANCH   2  18
ENDBRANCH   1   5
BRANCH   1  19
ATOM     19  C   UNL     1       1.909   8.330  17.618  0.00  0.00    +0.000 C 
BRANCH  19  20
ATOM     20  C   UNL     1       2.642   7.339  18.533  0.00  0.00    +0.000 C 
BRANCH  20  21
ATOM     21  C   UNL     1       2.689   5.897  17.982  0.00  0.00    +0.000 C 
BRANCH  21  22
ATOM     22  C   UNL     1       4.043   5.578  17.328  0.00  0.00    +0.000 A 
ATOM     23  C   UNL     1       5.069   6.538  17.245  0.00  0.00    +0.000 A 
ATOM     24  C   UNL     1       6.274   6.255  16.597  0.00  0.00    +0.000 A 
ATOM     25  C   UNL     1       6.453   5.021  16.003  0.00  0.00    +0.000 A 
ATOM     26  F   UNL     1       7.598   4.757  15.352  0.00  0.00    +0.000 F 
ATOM     27  C   UNL     1       5.461   4.053  16.051  0.00  0.00    +0.000 A 
ATOM     28  C   UNL     1       4.262   4.324  16.725  0.00  0.00    +0.000 A 
ENDBRANCH  21  22
BRANCH  21  29
ATOM     29  C   UNL     1       2.266   4.874  19.041  0.00  0.00    +0.000 A 
ATOM     30  C   UNL     1       2.786   4.965  20.346  0.00  0.00    +0.000 A 
ATOM     31  C   UNL     1       2.308   4.136  21.363  0.00  0.00    +0.000 A 
ATOM     32  C   UNL     1       1.327   3.197  21.078  0.00  0.00    +0.000 A 
ATOM     33  F   UNL     1       0.819   2.447  22.065  0.00  0.00    +0.000 F 
ATOM     34  C   UNL     1       0.865   3.024  19.782  0.00  0.00    +0.000 A 
ATOM     35  C   UNL     1       1.346   3.848  18.765  0.00  0.00    +0.000 A 
ENDBRANCH  21  29
ENDBRANCH  20  21
ENDBRANCH  19  20
ENDBRANCH   1  19
TORSDOF 7
ENDMDL
MODEL 4
REMARK VINA RESULT:      -9.3      4.042      7.087
REMARK  Name = 
REMARK  7 active torsions:
REMARK  status: ('A' for Active; 'I' for Inactive)
REMARK    1  A    between atoms: N_11  and  C_12
REMARK    2  A    between atoms: N_15  and  C_16
REMARK    3  A    between atoms: C_16  and  C_17
REMARK    4  A    between atoms: C_17  and  C_18
REMARK    5  A    between atoms: C_18  and  C_19
REMARK    6  A    between atoms: C_19  and  C_20
REMARK    7  A    between atoms: C_19  and  C_27
REMARK                            x       y       z     vdW  Elec       q    Type
REMARK                         _______ _______ _______ _____ _____    ______ ____
ROOT
ATOM      1  C   UNL     1       1.380   8.171  20.350  0.00  0.00    +0.000 C 
ENDROOT
BRANCH   1   5
ATOM      2  C   UNL     1      -0.525  11.935  20.527  0.00  0.00    +0.000 C 
ATOM      3  C   UNL     1       0.874  11.904  19.917  0.00  0.00    +0.000 C 
ATOM      4  C   UNL     1       1.487  10.510  19.786  0.00  0.00    +0.000 C 
ATOM      5  N   UNL     1       1.246   9.551  20.877  0.00  0.00    +0.000 NA
ATOM      6  C   UNL     1      -0.051   9.680  21.553  0.00  0.00    +0.000 C 
ATOM      7  C   UNL     1      -0.479  11.119  21.822  0.00  0.00    +0.000 C 
BRANCH   2  18
ATOM      8  O   UNL     1      -3.455  12.430  20.902  0.00  0.00    +0.000 OA
ATOM      9  C   UNL     1      -2.964  12.046  19.845  0.00  0.00    +0.000 C 
ATOM     10  O   UNL     1      -3.711  12.192  18.674  0.00  0.00    +0.000 OA
ATOM     11  C   UNL     1      -3.387  11.457  17.532  0.00  0.00    +0.000 A 
ATOM     12  C   UNL     1      -4.202  11.625  16.417  0.00  0.00    +0.000 A 
ATOM     13  C   UNL     1      -4.053  10.760  15.339  0.00  0.00    +0.000 A 
ATOM     14  C   UNL     1      -3.093   9.749  15.388  0.00  0.00    +0.000 A 
ATOM     15  C   UNL     1      -2.245   9.633  16.495  0.00  0.00    +0.000 A 
ATOM     16  C   UNL     1      -2.376  10.509  17.575  0.00  0.00    +0.000 A 
ATOM     17  C   UNL     1      -1.509  10.418  18.781  0.00  0.00    +0.000 C 
ATOM     18  N   UNL     1      -1.689  11.534  19.700  0.00  0.00    +0.000 N 
ENDBRANCH   2  18
ENDBRANCH   1   5
BRANCH   1  19
ATOM     19  C   UNL     1       1.749   8.109  18.860  0.00  0.00    +0.000 C 
BRANCH  19  20
ATOM     20  C   UNL     1       3.085   7.405  18.580  0.00  0.00    +0.000 C 
BRANCH  20  21
ATOM     21  C   UNL     1       2.934   6.006  17.944  0.00  0.00    +0.000 C 
BRANCH  21  22
ATOM     22  C   UNL     1       4.213   5.570  17.211  0.00  0.00    +0.000 A 
ATOM     23  C   UNL     1       5.241   6.482  16.910  0.00  0.00    +0.000 A 
ATOM     24  C   UNL     1       6.373   6.086  16.193  0.00  0.00    +0.000 A 
ATOM     25  C   UNL     1       6.473   4.784  15.745  0.00  0.00    +0.000 A 
ATOM     26  F   UNL     1       7.545   4.408  15.028  0.00  0.00    +0.000 F 
ATOM     27  C   UNL     1       5.474   3.858  16.009  0.00  0.00    +0.000 A 
ATOM     28  C   UNL     1       4.351   4.245  16.753  0.00  0.00    +0.000 A 
ENDBRANCH  21  22
BRANCH  21  29
ATOM     29  C   UNL     1       2.430   4.976  18.960  0.00  0.00    +0.000 A 
ATOM     30  C   UNL     1       3.010   4.919  20.241  0.00  0.00    +0.000 A 
ATOM     31  C   UNL     1       2.475   4.090  21.229  0.00  0.00    +0.000 A 
ATOM     32  C   UNL     1       1.374   3.297  20.937  0.00  0.00    +0.000 A 
ATOM     33  F   UNL     1       0.817   2.553  21.901  0.00  0.00    +0.000 F 
ATOM     34  C   UNL     1       0.842   3.266  19.656  0.00  0.00    +0.000 A 
ATOM     35  C   UNL     1       1.380   4.089  18.668  0.00  0.00    +0.000 A 
ENDBRANCH  21  29
ENDBRANCH  20  21
ENDBRANCH  19  20
ENDBRANCH   1  19
TORSDOF 7
ENDMDL
MODEL 5
REMARK VINA RESULT:      -9.3      4.258      7.265
REMARK  Name = 
REMARK  7 active torsions:
REMARK  status: ('A' for Active; 'I' for Inactive)
REMARK    1  A    between atoms: N_11  and  C_12
REMARK    2  A    between atoms: N_15  and  C_16
REMARK    3  A    between atoms: C_16  and  C_17
REMARK    4  A    between atoms: C_17  and  C_18
REMARK    5  A    between atoms: C_18  and  C_19
REMARK    6  A    between atoms: C_19  and  C_20
REMARK    7  A    between atoms: C_19  and  C_27
REMARK                            x       y       z     vdW  Elec       q    Type
REMARK                         _______ _______ _______ _____ _____    ______ ____
ROOT
ATOM      1  C   UNL     1       1.595   9.818  18.318  0.00  0.00    +0.000 C 
ENDROOT
BRANCH   1   5
ATOM      2  C   UNL     1      -1.223  11.786  20.771  0.00  0.00    +0.000 C 
ATOM      3  C   UNL     1      -0.656  10.471  21.300  0.00  0.00    +0.000 C 
ATOM      4  C   UNL     1       0.429   9.842  20.425  0.00  0.00    +0.000 C 
ATOM      5  N   UNL     1       0.264   9.923  18.965  0.00  0.00    +0.000 NA
ATOM      6  C   UNL     1      -0.410  11.132  18.474  0.00  0.00    +0.000 C 
ATOM      7  C   UNL     1      -1.613  11.561  19.306  0.00  0.00    +0.000 C 
BRANCH   2  18
ATOM      8  O   UNL     1      -0.411  13.319  23.211  0.00  0.00    +0.000 OA
ATOM      9  C   UNL     1       0.093  13.492  22.106  0.00  0.00    +0.000 C 
ATOM     10  O   UNL     1       1.326  14.143  22.032  0.00  0.00    +0.000 OA
ATOM     11  C   UNL     1       1.764  14.694  20.827  0.00  0.00    +0.000 A 
ATOM     12  C   UNL     1       2.983  15.363  20.841  0.00  0.00    +0.000 A 
ATOM     13  C   UNL     1       3.353  16.111  19.728  0.00  0.00    +0.000 A 
ATOM     14  C   UNL     1       2.506  16.173  18.621  0.00  0.00    +0.000 A 
ATOM     15  C   UNL     1       1.310  15.447  18.605  0.00  0.00    +0.000 A 
ATOM     16  C   UNL     1       0.940  14.678  19.711  0.00  0.00    +0.000 A 
ATOM     17  C   UNL     1      -0.328  13.900  19.749  0.00  0.00    +0.000 C 
ATOM     18  N   UNL     1      -0.430  13.030  20.913  0.00  0.00    +0.000 N 
ENDBRANCH   2  18
ENDBRANCH   1   5
BRANCH   1  19
ATOM     19  C   UNL     1       1.866   8.450  17.674  0.00  0.00    +0.000 C 
BRANCH  19  20
ATOM     20  C   UNL     1       2.634   7.477  18.579  0.00  0.00    +0.000 C 
BRANCH  20  21
ATOM     21  C   UNL     1       2.612   6.014  18.086  0.00  0.00    +0.000 C 
BRANCH  21  22
ATOM     22  C   UNL     1       3.951   5.604  17.452  0.00  0.00    +0.000 A 
ATOM     23  C   UNL     1       5.015   6.514  17.316  0.00  0.00    +0.000 A 
ATOM     24  C   UNL     1       6.207   6.146  16.686  0.00  0.00    +0.000 A 
ATOM     25  C   UNL     1       6.334   4.875  16.160  0.00  0.00    +0.000 A 
ATOM     26  F   UNL     1       7.465   4.528  15.526  0.00  0.00    +0.000 F 
ATOM     27  C   UNL     1       5.302   3.954  16.261  0.00  0.00    +0.000 A 
ATOM     28  C   UNL     1       4.116   4.310  16.918  0.00  0.00    +0.000 A 
ENDBRANCH  21  22
BRANCH  21  29
ATOM     29  C   UNL     1       2.137   5.056  19.183  0.00  0.00    +0.000 A 
ATOM     30  C   UNL     1       1.282   3.986  18.854  0.00  0.00    +0.000 A 
ATOM     31  C   UNL     1       0.952   3.019  19.805  0.00  0.00    +0.000 A 
ATOM     32  C   UNL     1       1.453   3.127  21.095  0.00  0.00    +0.000 A 
ATOM     33  F   UNL     1       1.193   2.166  21.990  0.00  0.00    +0.000 F 
ATOM     34  C   UNL     1       2.220   4.220  21.470  0.00  0.00    +0.000 A 
ATOM     35  C   UNL     1       2.545   5.190  20.521  0.00  0.00    +0.000 A 
ENDBRANCH  21  29
ENDBRANCH  20  21
ENDBRANCH  19  20
ENDBRANCH   1  19
TORSDOF 7
ENDMDL
MODEL 6
REMARK VINA RESULT:      -9.3      4.116      7.170
REMARK  Name = 
REMARK  7 active torsions:
REMARK  status: ('A' for Active; 'I' for Inactive)
REMARK    1  A    between atoms: N_11  and  C_12
REMARK    2  A    between atoms: N_15  and  C_16
REMARK    3  A    between atoms: C_16  and  C_17
REMARK    4  A    between atoms: C_17  and  C_18
REMARK    5  A    between atoms: C_18  and  C_19
REMARK    6  A    between atoms: C_19  and  C_20
REMARK    7  A    between atoms: C_19  and  C_27
REMARK                            x       y       z     vdW  Elec       q    Type
REMARK                         _______ _______ _______ _____ _____    ______ ____
ROOT
ATOM      1  C   UNL     1       2.217   9.729  17.820  0.00  0.00    +0.000 C 
ENDROOT
BRANCH   1   5
ATOM      2  C   UNL     1      -0.447  11.840  20.325  0.00  0.00    +0.000 C 
ATOM      3  C   UNL     1       0.651  12.658  19.650  0.00  0.00    +0.000 C 
ATOM      4  C   UNL     1       1.533  11.872  18.680  0.00  0.00    +0.000 C 
ATOM      5  N   UNL     1       1.900  10.496  19.050  0.00  0.00    +0.000 NA
ATOM      6  C   UNL     1       0.890   9.761  19.822  0.00  0.00    +0.000 C 
ATOM      7  C   UNL     1       0.209  10.586  20.910  0.00  0.00    +0.000 C 
BRANCH   2  18
ATOM      8  O   UNL     1      -3.331  12.475  20.822  0.00  0.00    +0.000 OA
ATOM      9  C   UNL     1      -2.907  12.054  19.750  0.00  0.00    +0.000 C 
ATOM     10  O   UNL     1      -3.698  12.218  18.611  0.00  0.00    +0.000 OA
ATOM     11  C   UNL     1      -3.459  11.453  17.468  0.00  0.00    +0.000 A 
ATOM     12  C   UNL     1      -4.315  11.643  16.388  0.00  0.00    +0.000 A 
ATOM     13  C   UNL     1      -4.254  10.757  15.318  0.00  0.00    +0.000 A 
ATOM     14  C   UNL     1      -3.339   9.703  15.341  0.00  0.00    +0.000 A 
ATOM     15  C   UNL     1      -2.449   9.564  16.411  0.00  0.00    +0.000 A 
ATOM     16  C   UNL     1      -2.491  10.460  17.481  0.00  0.00    +0.000 A 
ATOM     17  C   UNL     1      -1.576  10.346  18.649  0.00  0.00    +0.000 C 
ATOM     18  N   UNL     1      -1.664  11.482  19.557  0.00  0.00    +0.000 N 
ENDBRANCH   2  18
ENDBRANCH   1   5
BRANCH   1  19
ATOM     19  C   UNL     1       1.755   8.265  17.866  0.00  0.00    +0.000 C 
BRANCH  19  20
ATOM     20  C   UNL     1       2.772   7.311  18.508  0.00  0.00    +0.000 C 
BRANCH  20  21
ATOM     21  C   UNL     1       2.731   5.876  17.937  0.00  0.00    +0.000 C 
BRANCH  21  22
ATOM     22  C   UNL     1       4.045   5.506  17.231  0.00  0.00    +0.000 A 
ATOM     23  C   UNL     1       4.257   4.227  16.683  0.00  0.00    +0.000 A 
ATOM     24  C   UNL     1       5.477   3.884  16.095  0.00  0.00    +0.000 A 
ATOM     25  C   UNL     1       6.505   4.805  16.075  0.00  0.00    +0.000 A 
ATOM     26  F   UNL     1       7.690   4.468  15.539  0.00  0.00    +0.000 F 
ATOM     27  C   UNL     1       6.341   6.071  16.618  0.00  0.00    +0.000 A 
ATOM     28  C   UNL     1       5.110   6.429  17.182  0.00  0.00    +0.000 A 
ENDBRANCH  21  22
BRANCH  21  29
ATOM     29  C   UNL     1       2.299   4.859  18.997  0.00  0.00    +0.000 A 
ATOM     30  C   UNL     1       2.819   4.947  20.302  0.00  0.00    +0.000 A 
ATOM     31  C   UNL     1       2.333   4.124  21.320  0.00  0.00    +0.000 A 
ATOM     32  C   UNL     1       1.344   3.192  21.036  0.00  0.00    +0.000 A 
ATOM     33  F   UNL     1       0.829   2.448  22.023  0.00  0.00    +0.000 F 
ATOM     34  C   UNL     1       0.881   3.022  19.739  0.00  0.00    +0.000 A 
ATOM     35  C   UNL     1       1.371   3.841  18.722  0.00  0.00    +0.000 A 
ENDBRANCH  21  29
ENDBRANCH  20  21
ENDBRANCH  19  20
ENDBRANCH   1  19
TORSDOF 7
ENDMDL
MODEL 7
REMARK VINA RESULT:      -9.3      4.433      7.476
REMARK  Name = 
REMARK  7 active torsions:
REMARK  status: ('A' for Active; 'I' for Inactive)
REMARK    1  A    between atoms: N_11  and  C_12
REMARK    2  A    between atoms: N_15  and  C_16
REMARK    3  A    between atoms: C_16  and  C_17
REMARK    4  A    between atoms: C_17  and  C_18
REMARK    5  A    between atoms: C_18  and  C_19
REMARK    6  A    between atoms: C_19  and  C_20
REMARK    7  A    between atoms: C_19  and  C_27
REMARK                            x       y       z     vdW  Elec       q    Type
REMARK                         _______ _______ _______ _____ _____    ______ ____
ROOT
ATOM      1  C   UNL     1       0.981   9.201  18.144  0.00  0.00    +0.000 C 
ENDROOT
BRANCH   1   5
ATOM      2  C   UNL     1      -0.281  12.264  20.763  0.00  0.00    +0.000 C 
ATOM      3  C   UNL     1       0.599  12.687  19.589  0.00  0.00    +0.000 C 
ATOM      4  C   UNL     1       0.954  11.563  18.615  0.00  0.00    +0.000 C 
ATOM      5  N   UNL     1       1.239  10.233  19.178  0.00  0.00    +0.000 NA
ATOM      6  C   UNL     1       0.487   9.890  20.392  0.00  0.00    +0.000 C 
ATOM      7  C   UNL     1       0.366  11.029  21.398  0.00  0.00    +0.000 C 
BRANCH   2  18
ATOM      8  O   UNL     1      -2.549  12.080  22.709  0.00  0.00    +0.000 OA
ATOM      9  C   UNL     1      -2.705  12.234  21.501  0.00  0.00    +0.000 C 
ATOM     10  O   UNL     1      -3.937  12.708  21.046  0.00  0.00    +0.000 OA
ATOM     11  C   UNL     1      -4.304  12.551  19.708  0.00  0.00    +0.000 A 
ATOM     12  C   UNL     1      -5.564  13.012  19.339  0.00  0.00    +0.000 A 
ATOM     13  C   UNL     1      -6.057  12.684  18.080  0.00  0.00    +0.000 A 
ATOM     14  C   UNL     1      -5.285  11.909  17.213  0.00  0.00    +0.000 A 
ATOM     15  C   UNL     1      -3.998  11.504  17.583  0.00  0.00    +0.000 A 
ATOM     16  C   UNL     1      -3.488  11.845  18.837  0.00  0.00    +0.000 A 
ATOM     17  C   UNL     1      -2.132  11.426  19.283  0.00  0.00    +0.000 C 
ATOM     18  N   UNL     1      -1.729  12.039  20.542  0.00  0.00    +0.000 N 
ENDBRANCH   2  18
ENDBRANCH   1   5
BRANCH   1  19
ATOM     19  C   UNL     1       2.245   8.470  17.668  0.00  0.00    +0.000 C 
BRANCH  19  20
ATOM     20  C   UNL     1       2.735   7.381  18.633  0.00  0.00    +0.000 C 
BRANCH  20  21
ATOM     21  C   UNL     1       2.724   5.959  18.029  0.00  0.00    +0.000 C 
BRANCH  21  22
ATOM     22  C   UNL     1       4.053   5.626  17.332  0.00  0.00    +0.000 A 
ATOM     23  C   UNL     1       5.058   6.594  17.150  0.00  0.00    +0.000 A 
ATOM     24  C   UNL     1       6.237   6.294  16.464  0.00  0.00    +0.000 A 
ATOM     25  C   UNL     1       6.410   5.033  15.927  0.00  0.00    +0.000 A 
ATOM     26  F   UNL     1       7.528   4.750  15.240  0.00  0.00    +0.000 F 
ATOM     27  C   UNL     1       5.437   4.055  16.073  0.00  0.00    +0.000 A 
ATOM     28  C   UNL     1       4.265   4.344  16.786  0.00  0.00    +0.000 A 
ENDBRANCH  21  22
BRANCH  21  29
ATOM     29  C   UNL     1       2.295   4.911  19.060  0.00  0.00    +0.000 A 
ATOM     30  C   UNL     1       2.793   4.981  20.375  0.00  0.00    +0.000 A 
ATOM     31  C   UNL     1       2.308   4.127  21.367  0.00  0.00    +0.000 A 
ATOM     32  C   UNL     1       1.341   3.183  21.047  0.00  0.00    +0.000 A 
ATOM     33  F   UNL     1       0.826   2.408  22.010  0.00  0.00    +0.000 F 
ATOM     34  C   UNL     1       0.903   3.032  19.740  0.00  0.00    +0.000 A 
ATOM     35  C   UNL     1       1.392   3.881  18.748  0.00  0.00    +0.000 A 
ENDBRANCH  21  29
ENDBRANCH  20  21
ENDBRANCH  19  20
ENDBRANCH   1  19
TORSDOF 7
ENDMDL
MODEL 8
REMARK VINA RESULT:      -9.3      4.409      7.411
REMARK  Name = 
REMARK  7 active torsions:
REMARK  status: ('A' for Active; 'I' for Inactive)
REMARK    1  A    between atoms: N_11  and  C_12
REMARK    2  A    between atoms: N_15  and  C_16
REMARK    3  A    between atoms: C_16  and  C_17
REMARK    4  A    between atoms: C_17  and  C_18
REMARK    5  A    between atoms: C_18  and  C_19
REMARK    6  A    between atoms: C_19  and  C_20
REMARK    7  A    between atoms: C_19  and  C_27
REMARK                            x       y       z     vdW  Elec       q    Type
REMARK                         _______ _______ _______ _____ _____    ______ ____
ROOT
ATOM      1  C   UNL     1       1.077   9.249  17.989  0.00  0.00    +0.000 C 
ENDROOT
BRANCH   1   5
ATOM      2  C   UNL     1      -0.602  12.147  20.561  0.00  0.00    +0.000 C 
ATOM      3  C   UNL     1       0.749  12.487  19.937  0.00  0.00    +0.000 C 
ATOM      4  C   UNL     1       1.275  11.453  18.941  0.00  0.00    +0.000 C 
ATOM      5  N   UNL     1       1.055  10.030  19.250  0.00  0.00    +0.000 NA
ATOM      6  C   UNL     1      -0.185   9.729  19.976  0.00  0.00    +0.000 C 
ATOM      7  C   UNL     1      -0.513  10.713  21.094  0.00  0.00    +0.000 C 
BRANCH   2  18
ATOM      8  O   UNL     1      -0.984  12.691  17.641  0.00  0.00    +0.000 OA
ATOM      9  C   UNL     1      -1.888  12.318  18.383  0.00  0.00    +0.000 C 
ATOM     10  O   UNL     1      -3.037  11.771  17.808  0.00  0.00    +0.000 OA
ATOM     11  C   UNL     1      -4.220  11.681  18.542  0.00  0.00    +0.000 A 
ATOM     12  C   UNL     1      -5.334  11.162  17.889  0.00  0.00    +0.000 A 
ATOM     13  C   UNL     1      -6.578  11.255  18.503  0.00  0.00    +0.000 A 
ATOM     14  C   UNL     1      -6.688  11.856  19.758  0.00  0.00    +0.000 A 
ATOM     15  C   UNL     1      -5.548  12.319  20.423  0.00  0.00    +0.000 A 
ATOM     16  C   UNL     1      -4.292  12.213  19.821  0.00  0.00    +0.000 A 
ATOM     17  C   UNL     1      -3.051  12.704  20.480  0.00  0.00    +0.000 C 
ATOM     18  N   UNL     1      -1.838  12.331  19.764  0.00  0.00    +0.000 N 
ENDBRANCH   2  18
ENDBRANCH   1   5
BRANCH   1  19
ATOM     19  C   UNL     1       2.400   8.507  17.742  0.00  0.00    +0.000 C 
BRANCH  19  20
ATOM     20  C   UNL     1       2.674   7.374  18.741  0.00  0.00    +0.000 C 
BRANCH  20  21
ATOM     21  C   UNL     1       2.643   5.964  18.112  0.00  0.00    +0.000 C 
BRANCH  21  22
ATOM     22  C   UNL     1       3.953   5.639  17.376  0.00  0.00    +0.000 A 
ATOM     23  C   UNL     1       4.157   4.401  16.738  0.00  0.00    +0.000 A 
ATOM     24  C   UNL     1       5.373   4.096  16.122  0.00  0.00    +0.000 A 
ATOM     25  C   UNL     1       6.406   5.012  16.164  0.00  0.00    +0.000 A 
ATOM     26  F   UNL     1       7.587   4.709  15.600  0.00  0.00    +0.000 F 
ATOM     27  C   UNL     1       6.249   6.237  16.795  0.00  0.00    +0.000 A 
ATOM     28  C   UNL     1       5.021   6.559  17.388  0.00  0.00    +0.000 A 
ENDBRANCH  21  22
BRANCH  21  29
ATOM     29  C   UNL     1       2.236   4.899  19.134  0.00  0.00    +0.000 A 
ATOM     30  C   UNL     1       2.755   4.951  20.441  0.00  0.00    +0.000 A 
ATOM     31  C   UNL     1       2.290   4.080  21.428  0.00  0.00    +0.000 A 
ATOM     32  C   UNL     1       1.321   3.137  21.110  0.00  0.00    +0.000 A 
ATOM     33  F   UNL     1       0.825   2.346  22.069  0.00  0.00    +0.000 F 
ATOM     34  C   UNL     1       0.861   3.004  19.808  0.00  0.00    +0.000 A 
ATOM     35  C   UNL     1       1.331   3.871  18.821  0.00  0.00    +0.000 A 
ENDBRANCH  21  29
ENDBRANCH  20  21
ENDBRANCH  19  20
ENDBRANCH   1  19
TORSDOF 7
ENDMDL
MODEL 9
REMARK VINA RESULT:      -9.2      4.162      7.254
REMARK  Name = 
REMARK  7 active torsions:
REMARK  status: ('A' for Active; 'I' for Inactive)
REMARK    1  A    between atoms: N_11  and  C_12
REMARK    2  A    between atoms: N_15  and  C_16
REMARK    3  A    between atoms: C_16  and  C_17
REMARK    4  A    between atoms: C_17  and  C_18
REMARK    5  A    between atoms: C_18  and  C_19
REMARK    6  A    between atoms: C_19  and  C_20
REMARK    7  A    between atoms: C_19  and  C_27
REMARK                            x       y       z     vdW  Elec       q    Type
REMARK                         _______ _______ _______ _____ _____    ______ ____
ROOT
ATOM      1  C   UNL     1       1.336   9.021  19.786  0.00  0.00    +0.000 C 
ENDROOT
BRANCH   1   5
ATOM      2  C   UNL     1      -0.925  12.579  20.026  0.00  0.00    +0.000 C 
ATOM      3  C   UNL     1      -1.221  11.509  21.073  0.00  0.00    +0.000 C 
ATOM      4  C   UNL     1      -0.316  10.278  21.007  0.00  0.00    +0.000 C 
ATOM      5  N   UNL     1       0.065   9.779  19.676  0.00  0.00    +0.000 NA
ATOM      6  C   UNL     1       0.213  10.807  18.638  0.00  0.00    +0.000 C 
ATOM      7  C   UNL     1      -0.867  11.883  18.663  0.00  0.00    +0.000 C 
BRANCH   2  18
ATOM      8  O   UNL     1       0.225  13.821  22.497  0.00  0.00    +0.000 OA
ATOM      9  C   UNL     1       0.825  13.762  21.428  0.00  0.00    +0.000 C 
ATOM     10  O   UNL     1       2.211  13.935  21.433  0.00  0.00    +0.000 OA
ATOM     11  C   UNL     1       2.889  14.250  20.254  0.00  0.00    +0.000 A 
ATOM     12  C   UNL     1       4.263  14.446  20.347  0.00  0.00    +0.000 A 
ATOM     13  C   UNL     1       4.942  14.972  19.252  0.00  0.00    +0.000 A 
ATOM     14  C   UNL     1       4.242  15.286  18.087  0.00  0.00    +0.000 A 
ATOM     15  C   UNL     1       2.870  15.027  17.996  0.00  0.00    +0.000 A 
ATOM     16  C   UNL     1       2.184  14.482  19.083  0.00  0.00    +0.000 A 
ATOM     17  C   UNL     1       0.723  14.202  19.041  0.00  0.00    +0.000 C 
ATOM     18  N   UNL     1       0.247  13.469  20.207  0.00  0.00    +0.000 N 
ENDBRANCH   2  18
ENDBRANCH   1   5
BRANCH   1  19
ATOM     19  C   UNL     1       1.801   8.394  18.463  0.00  0.00    +0.000 C 
BRANCH  19  20
ATOM     20  C   UNL     1       3.013   7.463  18.608  0.00  0.00    +0.000 C 
BRANCH  20  21
ATOM     21  C   UNL     1       2.815   6.074  17.962  0.00  0.00    +0.000 C 
BRANCH  21  22
ATOM     22  C   UNL     1       4.055   5.632  17.168  0.00  0.00    +0.000 A 
ATOM     23  C   UNL     1       4.226   4.301  16.742  0.00  0.00    +0.000 A 
ATOM     24  C   UNL     1       5.384   3.899  16.071  0.00  0.00    +0.000 A 
ATOM     25  C   UNL     1       6.393   4.815  15.846  0.00  0.00    +0.000 A 
ATOM     26  F   UNL     1       7.520   4.425  15.230  0.00  0.00    +0.000 F 
ATOM     27  C   UNL     1       6.268   6.133  16.263  0.00  0.00    +0.000 A 
ATOM     28  C   UNL     1       5.096   6.546  16.910  0.00  0.00    +0.000 A 
ENDBRANCH  21  22
BRANCH  21  29
ATOM     29  C   UNL     1       2.344   5.037  18.986  0.00  0.00    +0.000 A 
ATOM     30  C   UNL     1       2.826   5.092  20.307  0.00  0.00    +0.000 A 
ATOM     31  C   UNL     1       2.304   4.251  21.292  0.00  0.00    +0.000 A 
ATOM     32  C   UNL     1       1.316   3.335  20.959  0.00  0.00    +0.000 A 
ATOM     33  F   UNL     1       0.767   2.574  21.914  0.00  0.00    +0.000 F 
ATOM     34  C   UNL     1       0.891   3.196  19.646  0.00  0.00    +0.000 A 
ATOM     35  C   UNL     1       1.416   4.033  18.661  0.00  0.00    +0.000 A 
ENDBRANCH  21  29
ENDBRANCH  20  21
ENDBRANCH  19  20
ENDBRANCH   1  19
TORSDOF 7
ENDMDL
