MODEL 1
REMARK VINA RESULT:      -7.3      0.000      0.000
REMARK  Name = 
REMARK  6 active torsions:
REMARK  status: ('A' for Active; 'I' for Inactive)
REMARK    1  A    between atoms: C_1  and  O_2
REMARK    2  A    between atoms: O_2  and  N_3
REMARK    3  A    between atoms: C_5  and  C_6
REMARK    4  A    between atoms: C_6  and  C_7
REMARK    5  A    between atoms: N_9  and  C_10
REMARK    6  A    between atoms: C_13  and  C_14
REMARK                            x       y       z     vdW  Elec       q    Type
REMARK                         _______ _______ _______ _____ _____    ______ ____
ROOT
ATOM      1  C   UNL     1       3.288   3.825  18.316  0.00  0.00    +0.000 C 
ENDROOT
BRANCH   1   4
ATOM      2  N   UNL     1       6.888   4.545  18.116  0.00  0.00    +0.000 N 
ATOM      3  C   UNL     1       5.739   4.390  18.837  0.00  0.00    +0.000 A 
ATOM      4  C   UNL     1       4.706   4.125  17.956  0.00  0.00    +0.000 A 
ATOM      5  C   UNL     1       5.250   4.267  16.638  0.00  0.00    +0.000 A 
ATOM      6  C   UNL     1       4.694   4.205  15.342  0.00  0.00    +0.000 A 
ATOM      7  C   UNL     1       5.509   4.435  14.228  0.00  0.00    +0.000 A 
ATOM      8  C   UNL     1       6.863   4.716  14.386  0.00  0.00    +0.000 A 
ATOM      9  C   UNL     1       7.444   4.770  15.658  0.00  0.00    +0.000 A 
ATOM     10  C   UNL     1       6.615   4.542  16.768  0.00  0.00    +0.000 A 
BRANCH   2  12
ATOM     11  C   UNL     1       8.106   5.839  19.606  0.00  0.00    +0.000 C 
ATOM     12  O   UNL     1       8.163   4.779  18.654  0.00  0.00    +0.000 OA
ENDBRANCH   2  12
ENDBRANCH   1   4
BRANCH   1  13
ATOM     13  C   UNL     1       2.404   5.058  18.276  0.00  0.00    +0.000 C 
ATOM     14  O   UNL     1       1.315   5.034  17.703  0.00  0.00    +0.000 OA
ATOM     15  N   UNL     1       2.955   6.175  18.901  0.00  0.00    +0.000 N 
ATOM     16  H   UNL     1       3.968   6.219  18.899  0.00  0.00    +0.000 HD
BRANCH  15  17
ATOM     17  C   UNL     1       2.256   7.400  18.931  0.00  0.00    +0.000 A 
ATOM     18  C   UNL     1       2.237   8.246  17.821  0.00  0.00    +0.000 A 
ATOM     19  C   UNL     1       1.696   9.527  17.917  0.00  0.00    +0.000 A 
ATOM     20  C   UNL     1       1.175   9.975  19.136  0.00  0.00    +0.000 A 
ATOM     21  C   UNL     1       0.747  11.403  19.300  0.00  0.00    +0.000 C 
ATOM     22  C   UNL     1       1.111   9.088  20.221  0.00  0.00    +0.000 A 
ATOM     23  C   UNL     1       1.630   7.794  20.113  0.00  0.00    +0.000 A 
ENDBRANCH  15  17
ENDBRANCH   1  13
TORSDOF 4
ENDMDL
MODEL 2
REMARK VINA RESULT:      -7.2      1.054      1.101
REMARK  Name = 
REMARK  6 active torsions:
REMARK  status: ('A' for Active; 'I' for Inactive)
REMARK    1  A    between atoms: C_1  and  O_2
REMARK    2  A    between atoms: O_2  and  N_3
REMARK    3  A    between atoms: C_5  and  C_6
REMARK    4  A    between atoms: C_6  and  C_7
REMARK    5  A    between atoms: N_9  and  C_10
REMARK    6  A    between atoms: C_13  and  C_14
REMARK                            x       y       z     vdW  Elec       q    Type
REMARK                         _______ _______ _______ _____ _____    ______ ____
ROOT
ATOM      1  C   UNL     1       3.843   4.121  19.432  0.00  0.00    +0.000 C 
ENDROOT
BRANCH   1   4
ATOM      2  N   UNL     1       7.078   5.576  18.465  0.00  0.00    +0.000 N 
ATOM      3  C   UNL     1       6.091   5.363  19.384  0.00  0.00    +0.000 A 
ATOM      4  C   UNL     1       5.085   4.632  18.778  0.00  0.00    +0.000 A 
ATOM      5  C   UNL     1       5.436   4.528  17.393  0.00  0.00    +0.000 A 
ATOM      6  C   UNL     1       4.791   3.983  16.263  0.00  0.00    +0.000 A 
ATOM      7  C   UNL     1       5.398   4.079  15.006  0.00  0.00    +0.000 A 
ATOM      8  C   UNL     1       6.635   4.701  14.862  0.00  0.00    +0.000 A 
ATOM      9  C   UNL     1       7.304   5.238  15.968  0.00  0.00    +0.000 A 
ATOM     10  C   UNL     1       6.682   5.138  17.223  0.00  0.00    +0.000 A 
BRANCH   2  12
ATOM     11  C   UNL     1       8.166   7.622  18.385  0.00  0.00    +0.000 C 
ATOM     12  O   UNL     1       8.291   6.240  18.710  0.00  0.00    +0.000 OA
ENDBRANCH   2  12
ENDBRANCH   1   4
BRANCH   1  13
ATOM     13  C   UNL     1       2.708   5.127  19.392  0.00  0.00    +0.000 C 
ATOM     14  O   UNL     1       1.586   4.795  19.012  0.00  0.00    +0.000 OA
ATOM     15  N   UNL     1       3.073   6.414  19.782  0.00  0.00    +0.000 N 
ATOM     16  H   UNL     1       4.040   6.663  19.608  0.00  0.00    +0.000 HD
BRANCH  15  17
ATOM     17  C   UNL     1       2.127   7.462  19.780  0.00  0.00    +0.000 A 
ATOM     18  C   UNL     1       1.979   8.298  18.672  0.00  0.00    +0.000 A 
ATOM     19  C   UNL     1       1.173   9.432  18.744  0.00  0.00    +0.000 A 
ATOM     20  C   UNL     1       0.512   9.744  19.936  0.00  0.00    +0.000 A 
ATOM     21  C   UNL     1      -0.219  11.045  20.083  0.00  0.00    +0.000 C 
ATOM     22  C   UNL     1       0.588   8.850  21.016  0.00  0.00    +0.000 A 
ATOM     23  C   UNL     1       1.376   7.698  20.930  0.00  0.00    +0.000 A 
ENDBRANCH  15  17
ENDBRANCH   1  13
TORSDOF 4
ENDMDL
MODEL 3
REMARK VINA RESULT:      -7.1      0.476      1.131
REMARK  Name = 
REMARK  6 active torsions:
REMARK  status: ('A' for Active; 'I' for Inactive)
REMARK    1  A    between atoms: C_1  and  O_2
REMARK    2  A    between atoms: O_2  and  N_3
REMARK    3  A    between atoms: C_5  and  C_6
REMARK    4  A    between atoms: C_6  and  C_7
REMARK    5  A    between atoms: N_9  and  C_10
REMARK    6  A    between atoms: C_13  and  C_14
REMARK                            x       y       z     vdW  Elec       q    Type
REMARK                         _______ _______ _______ _____ _____    ______ ____
ROOT
ATOM      1  C   UNL     1       3.267   3.787  18.576  0.00  0.00    +0.000 C 
ENDROOT
BRANCH   1   4
ATOM      2  N   UNL     1       6.825   4.693  18.371  0.00  0.00    +0.000 N 
ATOM      3  C   UNL     1       5.679   4.507  19.089  0.00  0.00    +0.000 A 
ATOM      4  C   UNL     1       4.671   4.148  18.213  0.00  0.00    +0.000 A 
ATOM      5  C   UNL     1       5.220   4.261  16.894  0.00  0.00    +0.000 A 
ATOM      6  C   UNL     1       4.681   4.111  15.599  0.00  0.00    +0.000 A 
ATOM      7  C   UNL     1       5.493   4.335  14.481  0.00  0.00    +0.000 A 
ATOM      8  C   UNL     1       6.829   4.696  14.637  0.00  0.00    +0.000 A 
ATOM      9  C   UNL     1       7.393   4.838  15.910  0.00  0.00    +0.000 A 
ATOM     10  C   UNL     1       6.566   4.615  17.023  0.00  0.00    +0.000 A 
BRANCH   2  12
ATOM     11  C   UNL     1       8.189   6.431  19.077  0.00  0.00    +0.000 C 
ATOM     12  O   UNL     1       8.081   5.019  18.908  0.00  0.00    +0.000 OA
ENDBRANCH   2  12
ENDBRANCH   1   4
BRANCH   1  13
ATOM     13  C   UNL     1       2.373   5.004  18.721  0.00  0.00    +0.000 C 
ATOM     14  O   UNL     1       1.150   4.901  18.631  0.00  0.00    +0.000 OA
ATOM     15  N   UNL     1       3.063   6.198  18.924  0.00  0.00    +0.000 N 
ATOM     16  H   UNL     1       3.991   6.237  18.518  0.00  0.00    +0.000 HD
BRANCH  15  17
ATOM     17  C   UNL     1       2.367   7.417  19.061  0.00  0.00    +0.000 A 
ATOM     18  C   UNL     1       1.834   7.808  20.291  0.00  0.00    +0.000 A 
ATOM     19  C   UNL     1       1.001   8.921  20.379  0.00  0.00    +0.000 A 
ATOM     20  C   UNL     1       0.686   9.651  19.227  0.00  0.00    +0.000 A 
ATOM     21  C   UNL     1      -0.339  10.743  19.276  0.00  0.00    +0.000 C 
ATOM     22  C   UNL     1       1.300   9.311  18.012  0.00  0.00    +0.000 A 
ATOM     23  C   UNL     1       2.157   8.209  17.933  0.00  0.00    +0.000 A 
ENDBRANCH  15  17
ENDBRANCH   1  13
TORSDOF 4
ENDMDL
MODEL 4
REMARK VINA RESULT:      -7.1      2.211      3.568
REMARK  Name = 
REMARK  6 active torsions:
REMARK  status: ('A' for Active; 'I' for Inactive)
REMARK    1  A    between atoms: C_1  and  O_2
REMARK    2  A    between atoms: O_2  and  N_3
REMARK    3  A    between atoms: C_5  and  C_6
REMARK    4  A    between atoms: C_6  and  C_7
REMARK    5  A    between atoms: N_9  and  C_10
REMARK    6  A    between atoms: C_13  and  C_14
REMARK                            x       y       z     vdW  Elec       q    Type
REMARK                         _______ _______ _______ _____ _____    ______ ____
ROOT
ATOM      1  C   UNL     1       3.224   7.700  17.208  0.00  0.00    +0.000 C 
ENDROOT
BRANCH   1   4
ATOM      2  N   UNL     1       5.286   4.967  18.549  0.00  0.00    +0.000 N 
ATOM      3  C   UNL     1       5.160   6.218  18.018  0.00  0.00    +0.000 A 
ATOM      4  C   UNL     1       3.823   6.439  17.739  0.00  0.00    +0.000 A 
ATOM      5  C   UNL     1       3.146   5.202  17.992  0.00  0.00    +0.000 A 
ATOM      6  C   UNL     1       1.813   4.769  17.824  0.00  0.00    +0.000 A 
ATOM      7  C   UNL     1       1.470   3.449  18.136  0.00  0.00    +0.000 A 
ATOM      8  C   UNL     1       2.430   2.562  18.618  0.00  0.00    +0.000 A 
ATOM      9  C   UNL     1       3.755   2.969  18.807  0.00  0.00    +0.000 A 
ATOM     10  C   UNL     1       4.087   4.295  18.486  0.00  0.00    +0.000 A 
BRANCH   2  12
ATOM     11  C   UNL     1       7.599   5.132  18.520  0.00  0.00    +0.000 C 
ATOM     12  O   UNL     1       6.482   4.390  19.006  0.00  0.00    +0.000 OA
ENDBRANCH   2  12
ENDBRANCH   1   4
BRANCH   1  13
ATOM     13  C   UNL     1       2.258   8.342  18.186  0.00  0.00    +0.000 C 
ATOM     14  O   UNL     1       2.106   7.880  19.316  0.00  0.00    +0.000 OA
ATOM     15  N   UNL     1       1.570   9.439  17.671  0.00  0.00    +0.000 N 
ATOM     16  H   UNL     1       1.416   9.424  16.669  0.00  0.00    +0.000 HD
BRANCH  15  17
ATOM     17  C   UNL     1       0.624  10.129  18.458  0.00  0.00    +0.000 A 
ATOM     18  C   UNL     1      -0.743  10.036  18.191  0.00  0.00    +0.000 A 
ATOM     19  C   UNL     1      -1.652  10.855  18.857  0.00  0.00    +0.000 A 
ATOM     20  C   UNL     1      -1.195  11.785  19.797  0.00  0.00    +0.000 A 
ATOM     21  C   UNL     1      -2.136  12.787  20.396  0.00  0.00    +0.000 C 
ATOM     22  C   UNL     1       0.168  11.809  20.131  0.00  0.00    +0.000 A 
ATOM     23  C   UNL     1       1.074  10.966  19.479  0.00  0.00    +0.000 A 
ENDBRANCH  15  17
ENDBRANCH   1  13
TORSDOF 4
ENDMDL
MODEL 5
REMARK VINA RESULT:      -7.1      2.083      3.738
REMARK  Name = 
REMARK  6 active torsions:
REMARK  status: ('A' for Active; 'I' for Inactive)
REMARK    1  A    between atoms: C_1  and  O_2
REMARK    2  A    between atoms: O_2  and  N_3
REMARK    3  A    between atoms: C_5  and  C_6
REMARK    4  A    between atoms: C_6  and  C_7
REMARK    5  A    between atoms: N_9  and  C_10
REMARK    6  A    between atoms: C_13  and  C_14
REMARK                            x       y       z     vdW  Elec       q    Type
REMARK                         _______ _______ _______ _____ _____    ______ ____
ROOT
ATOM      1  C   UNL     1       2.666   7.390  17.850  0.00  0.00    +0.000 C 
ENDROOT
BRANCH   1   4
ATOM      2  N   UNL     1       5.169   4.766  18.459  0.00  0.00    +0.000 N 
ATOM      3  C   UNL     1       4.839   6.060  18.172  0.00  0.00    +0.000 A 
ATOM      4  C   UNL     1       3.462   6.148  18.084  0.00  0.00    +0.000 A 
ATOM      5  C   UNL     1       2.962   4.809  18.191  0.00  0.00    +0.000 A 
ATOM      6  C   UNL     1       1.674   4.240  18.097  0.00  0.00    +0.000 A 
ATOM      7  C   UNL     1       1.520   2.854  18.210  0.00  0.00    +0.000 A 
ATOM      8  C   UNL     1       2.625   2.033  18.421  0.00  0.00    +0.000 A 
ATOM      9  C   UNL     1       3.912   2.572  18.532  0.00  0.00    +0.000 A 
ATOM     10  C   UNL     1       4.053   3.964  18.412  0.00  0.00    +0.000 A 
BRANCH   2  12
ATOM     11  C   UNL     1       7.313   4.647  17.583  0.00  0.00    +0.000 C 
ATOM     12  O   UNL     1       6.470   4.284  18.674  0.00  0.00    +0.000 OA
ENDBRANCH   2  12
ENDBRANCH   1   4
BRANCH   1  13
ATOM     13  C   UNL     1       2.064   7.944  19.128  0.00  0.00    +0.000 C 
ATOM     14  O   UNL     1       2.128   7.310  20.181  0.00  0.00    +0.000 OA
ATOM     15  N   UNL     1       1.431   9.176  18.973  0.00  0.00    +0.000 N 
ATOM     16  H   UNL     1       1.039   9.350  18.055  0.00  0.00    +0.000 HD
BRANCH  15  17
ATOM     17  C   UNL     1       0.810   9.809  20.070  0.00  0.00    +0.000 A 
ATOM     18  C   UNL     1       0.882   9.263  21.353  0.00  0.00    +0.000 A 
ATOM     19  C   UNL     1       0.124   9.797  22.393  0.00  0.00    +0.000 A 
ATOM     20  C   UNL     1      -0.724  10.883  22.152  0.00  0.00    +0.000 A 
ATOM     21  C   UNL     1      -1.670  11.358  23.214  0.00  0.00    +0.000 C 
ATOM     22  C   UNL     1      -0.721  11.487  20.885  0.00  0.00    +0.000 A 
ATOM     23  C   UNL     1       0.063  10.965  19.852  0.00  0.00    +0.000 A 
ENDBRANCH  15  17
ENDBRANCH   1  13
TORSDOF 4
ENDMDL
MODEL 6
REMARK VINA RESULT:      -7.1      2.025      3.552
REMARK  Name = 
REMARK  6 active torsions:
REMARK  status: ('A' for Active; 'I' for Inactive)
REMARK    1  A    between atoms: C_1  and  O_2
REMARK    2  A    between atoms: O_2  and  N_3
REMARK    3  A    between atoms: C_5  and  C_6
REMARK    4  A    between atoms: C_6  and  C_7
REMARK    5  A    between atoms: N_9  and  C_10
REMARK    6  A    between atoms: C_13  and  C_14
REMARK                            x       y       z     vdW  Elec       q    Type
REMARK                         _______ _______ _______ _____ _____    ______ ____
ROOT
ATOM      1  C   UNL     1       2.929   7.691  17.702  0.00  0.00    +0.000 C 
ENDROOT
BRANCH   1   4
ATOM      2  N   UNL     1       5.296   4.941  18.298  0.00  0.00    +0.000 N 
ATOM      3  C   UNL     1       5.032   6.255  18.037  0.00  0.00    +0.000 A 
ATOM      4  C   UNL     1       3.662   6.408  17.921  0.00  0.00    +0.000 A 
ATOM      5  C   UNL     1       3.100   5.092  17.982  0.00  0.00    +0.000 A 
ATOM      6  C   UNL     1       1.790   4.585  17.845  0.00  0.00    +0.000 A 
ATOM      7  C   UNL     1       1.570   3.205  17.919  0.00  0.00    +0.000 A 
ATOM      8  C   UNL     1       2.631   2.330  18.133  0.00  0.00    +0.000 A 
ATOM      9  C   UNL     1       3.938   2.806  18.285  0.00  0.00    +0.000 A 
ATOM     10  C   UNL     1       4.146   4.192  18.205  0.00  0.00    +0.000 A 
BRANCH   2  12
ATOM     11  C   UNL     1       7.404   4.604  17.392  0.00  0.00    +0.000 C 
ATOM     12  O   UNL     1       6.568   4.393  18.528  0.00  0.00    +0.000 OA
ENDBRANCH   2  12
ENDBRANCH   1   4
BRANCH   1  13
ATOM     13  C   UNL     1       2.123   8.115  18.916  0.00  0.00    +0.000 C 
ATOM     14  O   UNL     1       2.112   7.426  19.936  0.00  0.00    +0.000 OA
ATOM     15  N   UNL     1       1.405   9.296  18.740  0.00  0.00    +0.000 N 
ATOM     16  H   UNL     1       1.117   9.491  17.788  0.00  0.00    +0.000 HD
BRANCH  15  17
ATOM     17  C   UNL     1       0.595   9.807  19.776  0.00  0.00    +0.000 A 
ATOM     18  C   UNL     1      -0.421  10.727  19.510  0.00  0.00    +0.000 A 
ATOM     19  C   UNL     1      -1.095  11.357  20.554  0.00  0.00    +0.000 A 
ATOM     20  C   UNL     1      -0.749  11.075  21.880  0.00  0.00    +0.000 A 
ATOM     21  C   UNL     1      -1.345  11.866  23.006  0.00  0.00    +0.000 C 
ATOM     22  C   UNL     1       0.206  10.081  22.142  0.00  0.00    +0.000 A 
ATOM     23  C   UNL     1       0.861   9.430  21.092  0.00  0.00    +0.000 A 
ENDBRANCH  15  17
ENDBRANCH   1  13
TORSDOF 4
ENDMDL
MODEL 7
REMARK VINA RESULT:      -7.1      2.390      3.661
REMARK  Name = 
REMARK  6 active torsions:
REMARK  status: ('A' for Active; 'I' for Inactive)
REMARK    1  A    between atoms: C_1  and  O_2
REMARK    2  A    between atoms: O_2  and  N_3
REMARK    3  A    between atoms: C_5  and  C_6
REMARK    4  A    between atoms: C_6  and  C_7
REMARK    5  A    between atoms: N_9  and  C_10
REMARK    6  A    between atoms: C_13  and  C_14
REMARK                            x       y       z     vdW  Elec       q    Type
REMARK                         _______ _______ _______ _____ _____    ______ ____
ROOT
ATOM      1  C   UNL     1       3.005   7.669  17.240  0.00  0.00    +0.000 C 
ENDROOT
BRANCH   1   4
ATOM      2  N   UNL     1       5.165   5.171  18.857  0.00  0.00    +0.000 N 
ATOM      3  C   UNL     1       4.981   6.387  18.266  0.00  0.00    +0.000 A 
ATOM      4  C   UNL     1       3.659   6.483  17.870  0.00  0.00    +0.000 A 
ATOM      5  C   UNL     1       3.068   5.201  18.119  0.00  0.00    +0.000 A 
ATOM      6  C   UNL     1       1.795   4.649  17.862  0.00  0.00    +0.000 A 
ATOM      7  C   UNL     1       1.537   3.316  18.200  0.00  0.00    +0.000 A 
ATOM      8  C   UNL     1       2.523   2.533  18.795  0.00  0.00    +0.000 A 
ATOM      9  C   UNL     1       3.789   3.059  19.073  0.00  0.00    +0.000 A 
ATOM     10  C   UNL     1       4.036   4.396  18.725  0.00  0.00    +0.000 A 
BRANCH   2  12
ATOM     11  C   UNL     1       7.417   5.636  19.160  0.00  0.00    +0.000 C 
ATOM     12  O   UNL     1       6.362   4.716  19.432  0.00  0.00    +0.000 OA
ENDBRANCH   2  12
ENDBRANCH   1   4
BRANCH   1  13
ATOM     13  C   UNL     1       2.163   8.459  18.224  0.00  0.00    +0.000 C 
ATOM     14  O   UNL     1       1.998   8.059  19.375  0.00  0.00    +0.000 OA
ATOM     15  N   UNL     1       1.598   9.616  17.690  0.00  0.00    +0.000 N 
ATOM     16  H   UNL     1       1.406   9.587  16.695  0.00  0.00    +0.000 HD
BRANCH  15  17
ATOM     17  C   UNL     1       0.776  10.446  18.481  0.00  0.00    +0.000 A 
ATOM     18  C   UNL     1       1.328  11.404  19.335  0.00  0.00    +0.000 A 
ATOM     19  C   UNL     1       0.522  12.094  20.238  0.00  0.00    +0.000 A 
ATOM     20  C   UNL     1      -0.849  11.824  20.298  0.00  0.00    +0.000 A 
ATOM     21  C   UNL     1      -1.697  12.431  21.375  0.00  0.00    +0.000 C 
ATOM     22  C   UNL     1      -1.413  10.930  19.374  0.00  0.00    +0.000 A 
ATOM     23  C   UNL     1      -0.605  10.260  18.451  0.00  0.00    +0.000 A 
ENDBRANCH  15  17
ENDBRANCH   1  13
TORSDOF 4
ENDMDL
MODEL 8
REMARK VINA RESULT:      -7.0      2.095      7.179
REMARK  Name = 
REMARK  6 active torsions:
REMARK  status: ('A' for Active; 'I' for Inactive)
REMARK    1  A    between atoms: C_1  and  O_2
REMARK    2  A    between atoms: O_2  and  N_3
REMARK    3  A    between atoms: C_5  and  C_6
REMARK    4  A    between atoms: C_6  and  C_7
REMARK    5  A    between atoms: N_9  and  C_10
REMARK    6  A    between atoms: C_13  and  C_14
REMARK                            x       y       z     vdW  Elec       q    Type
REMARK                         _______ _______ _______ _____ _____    ______ ____
ROOT
ATOM      1  C   UNL     1       6.326   6.341  17.199  0.00  0.00    +0.000 C 
ENDROOT
BRANCH   1   4
ATOM      2  N   UNL     1       2.793   6.990  17.983  0.00  0.00    +0.000 N 
ATOM      3  C   UNL     1       4.076   7.421  17.807  0.00  0.00    +0.000 A 
ATOM      4  C   UNL     1       4.868   6.323  17.525  0.00  0.00    +0.000 A 
ATOM      5  C   UNL     1       4.032   5.169  17.678  0.00  0.00    +0.000 A 
ATOM      6  C   UNL     1       4.267   3.779  17.607  0.00  0.00    +0.000 A 
ATOM      7  C   UNL     1       3.218   2.887  17.852  0.00  0.00    +0.000 A 
ATOM      8  C   UNL     1       1.943   3.358  18.157  0.00  0.00    +0.000 A 
ATOM      9  C   UNL     1       1.679   4.731  18.220  0.00  0.00    +0.000 A 
ATOM     10  C   UNL     1       2.742   5.616  17.976  0.00  0.00    +0.000 A 
BRANCH   2  12
ATOM     11  C   UNL     1       1.967   9.153  17.843  0.00  0.00    +0.000 C 
ATOM     12  O   UNL     1       1.684   7.812  18.238  0.00  0.00    +0.000 OA
ENDBRANCH   2  12
ENDBRANCH   1   4
BRANCH   1  13
ATOM     13  C   UNL     1       6.682   5.389  16.072  0.00  0.00    +0.000 C 
ATOM     14  O   UNL     1       7.574   4.554  16.211  0.00  0.00    +0.000 OA
ATOM     15  N   UNL     1       5.942   5.584  14.907  0.00  0.00    +0.000 N 
ATOM     16  H   UNL     1       5.619   6.532  14.751  0.00  0.00    +0.000 HD
BRANCH  15  17
ATOM     17  C   UNL     1       6.171   4.784  13.767  0.00  0.00    +0.000 A 
ATOM     18  C   UNL     1       5.320   3.726  13.446  0.00  0.00    +0.000 A 
ATOM     19  C   UNL     1       5.650   2.837  12.425  0.00  0.00    +0.000 A 
ATOM     20  C   UNL     1       6.848   2.998  11.719  0.00  0.00    +0.000 A 
ATOM     21  C   UNL     1       7.298   1.957  10.739  0.00  0.00    +0.000 C 
ATOM     22  C   UNL     1       7.653   4.117  11.982  0.00  0.00    +0.000 A 
ATOM     23  C   UNL     1       7.303   5.022  12.989  0.00  0.00    +0.000 A 
ENDBRANCH  15  17
ENDBRANCH   1  13
TORSDOF 4
ENDMDL
MODEL 9
REMARK VINA RESULT:      -7.0      2.422      3.635
REMARK  Name = 
REMARK  6 active torsions:
REMARK  status: ('A' for Active; 'I' for Inactive)
REMARK    1  A    between atoms: C_1  and  O_2
REMARK    2  A    between atoms: O_2  and  N_3
REMARK    3  A    between atoms: C_5  and  C_6
REMARK    4  A    between atoms: C_6  and  C_7
REMARK    5  A    between atoms: N_9  and  C_10
REMARK    6  A    between atoms: C_13  and  C_14
REMARK                            x       y       z     vdW  Elec       q    Type
REMARK                         _______ _______ _______ _____ _____    ______ ____
ROOT
ATOM      1  C   UNL     1       3.010   7.548  17.111  0.00  0.00    +0.000 C 
ENDROOT
BRANCH   1   4
ATOM      2  N   UNL     1       5.224   5.219  18.897  0.00  0.00    +0.000 N 
ATOM      3  C   UNL     1       5.006   6.401  18.249  0.00  0.00    +0.000 A 
ATOM      4  C   UNL     1       3.695   6.420  17.811  0.00  0.00    +0.000 A 
ATOM      5  C   UNL     1       3.152   5.124  18.096  0.00  0.00    +0.000 A 
ATOM      6  C   UNL     1       1.914   4.505  17.824  0.00  0.00    +0.000 A 
ATOM      7  C   UNL     1       1.704   3.177  18.210  0.00  0.00    +0.000 A 
ATOM      8  C   UNL     1       2.704   2.464  18.868  0.00  0.00    +0.000 A 
ATOM      9  C   UNL     1       3.936   3.057  19.162  0.00  0.00    +0.000 A 
ATOM     10  C   UNL     1       4.135   4.389  18.765  0.00  0.00    +0.000 A 
BRANCH   2  12
ATOM     11  C   UNL     1       7.499   5.642  19.048  0.00  0.00    +0.000 C 
ATOM     12  O   UNL     1       6.421   4.842  19.528  0.00  0.00    +0.000 OA
ENDBRANCH   2  12
ENDBRANCH   1   4
BRANCH   1  13
ATOM     13  C   UNL     1       2.415   8.556  18.077  0.00  0.00    +0.000 C 
ATOM     14  O   UNL     1       2.539   9.764  17.882  0.00  0.00    +0.000 OA
ATOM     15  N   UNL     1       1.773   7.983  19.174  0.00  0.00    +0.000 N 
ATOM     16  H   UNL     1       2.132   7.081  19.465  0.00  0.00    +0.000 HD
BRANCH  15  17
ATOM     17  C   UNL     1       1.184   8.795  20.166  0.00  0.00    +0.000 A 
ATOM     18  C   UNL     1       1.435   8.572  21.522  0.00  0.00    +0.000 A 
ATOM     19  C   UNL     1       0.716   9.261  22.496  0.00  0.00    +0.000 A 
ATOM     20  C   UNL     1      -0.271  10.178  22.119  0.00  0.00    +0.000 A 
ATOM     21  C   UNL     1      -1.167  10.798  23.149  0.00  0.00    +0.000 C 
ATOM     22  C   UNL     1      -0.453  10.467  20.757  0.00  0.00    +0.000 A 
ATOM     23  C   UNL     1       0.290   9.794  19.783  0.00  0.00    +0.000 A 
ENDBRANCH  15  17
ENDBRANCH   1  13
TORSDOF 4
ENDMDL
