MODEL 1
REMARK VINA RESULT:      -6.1      0.000      0.000
REMARK  Name = 
REMARK  5 active torsions:
REMARK  status: ('A' for Active; 'I' for Inactive)
REMARK    1  A    between atoms: C_1  and  N_2
REMARK    2  A    between atoms: N_2  and  C_3
REMARK    3  A    between atoms: N_2  and  N_13
REMARK    4  A    between atoms: C_3  and  C_4
REMARK    5  A    between atoms: C_8  and  N_9
REMARK                            x       y       z     vdW  Elec       q    Type
REMARK                         _______ _______ _______ _____ _____    ______ ____
ROOT
ATOM      1  C   UNL     1       4.258   4.211  17.780  0.00  0.00    +0.000 A 
ATOM      2  C   UNL     1       2.940   4.181  17.297  0.00  0.00    +0.000 A 
ATOM      3  C   UNL     1       1.924   3.539  18.013  0.00  0.00    +0.000 A 
ATOM      4  C   UNL     1       2.209   2.919  19.230  0.00  0.00    +0.000 A 
ATOM      5  C   UNL     1       3.523   2.929  19.712  0.00  0.00    +0.000 A 
ATOM      6  C   UNL     1       4.550   3.554  18.988  0.00  0.00    +0.000 A 
ENDROOT
BRANCH   5   7
ATOM      7  N   UNL     1       3.826   2.316  21.012  0.00  0.00    +0.000 N 
ATOM      8  O   UNL     1       2.954   2.365  21.891  0.00  0.00    +0.000 OA
ATOM      9  O   UNL     1       4.941   1.794  21.155  0.00  0.00    +0.000 OA
ENDBRANCH   5   7
BRANCH   1  10
ATOM     10  C   UNL     1       5.330   5.009  17.059  0.00  0.00    +0.000 C 
BRANCH  10  12
ATOM     11  C   UNL     1       6.152   3.905  15.040  0.00  0.00    +0.000 C 
ATOM     12  N   UNL     1       6.430   4.257  16.428  0.00  0.00    +0.000 N 
BRANCH  12  13
ATOM     13  N   UNL     1       7.653   4.695  16.620  0.00  0.00    +0.000 NA
ATOM     14  O   UNL     1       8.187   4.139  17.588  0.00  0.00    +0.000 OA
ENDBRANCH  12  13
ENDBRANCH  10  12
ENDBRANCH   1  10
TORSDOF 4
ENDMDL
MODEL 2
REMARK VINA RESULT:      -6.0      1.690      2.028
REMARK  Name = 
REMARK  5 active torsions:
REMARK  status: ('A' for Active; 'I' for Inactive)
REMARK    1  A    between atoms: C_1  and  N_2
REMARK    2  A    between atoms: N_2  and  C_3
REMARK    3  A    between atoms: N_2  and  N_13
REMARK    4  A    between atoms: C_3  and  C_4
REMARK    5  A    between atoms: C_8  and  N_9
REMARK                            x       y       z     vdW  Elec       q    Type
REMARK                         _______ _______ _______ _____ _____    ______ ____
ROOT
ATOM      1  C   UNL     1       4.550   5.232  16.964  0.00  0.00    +0.000 A 
ATOM      2  C   UNL     1       3.956   6.227  17.757  0.00  0.00    +0.000 A 
ATOM      3  C   UNL     1       3.433   5.924  19.019  0.00  0.00    +0.000 A 
ATOM      4  C   UNL     1       3.501   4.620  19.512  0.00  0.00    +0.000 A 
ATOM      5  C   UNL     1       4.077   3.619  18.721  0.00  0.00    +0.000 A 
ATOM      6  C   UNL     1       4.585   3.913  17.446  0.00  0.00    +0.000 A 
ENDROOT
BRANCH   5   7
ATOM      7  N   UNL     1       4.191   2.253  19.248  0.00  0.00    +0.000 N 
ATOM      8  O   UNL     1       4.831   2.089  20.296  0.00  0.00    +0.000 OA
ATOM      9  O   UNL     1       3.649   1.342  18.604  0.00  0.00    +0.000 OA
ENDBRANCH   5   7
BRANCH   1  10
ATOM     10  C   UNL     1       5.221   5.588  15.648  0.00  0.00    +0.000 C 
BRANCH  10  12
ATOM     11  C   UNL     1       6.243   3.962  14.136  0.00  0.00    +0.000 C 
ATOM     12  N   UNL     1       6.440   4.844  15.282  0.00  0.00    +0.000 N 
BRANCH  12  13
ATOM     13  N   UNL     1       7.568   5.512  15.237  0.00  0.00    +0.000 NA
ATOM     14  O   UNL     1       7.635   6.352  16.144  0.00  0.00    +0.000 OA
ENDBRANCH  12  13
ENDBRANCH  10  12
ENDBRANCH   1  10
TORSDOF 4
ENDMDL
MODEL 3
REMARK VINA RESULT:      -6.0      1.585      1.873
REMARK  Name = 
REMARK  5 active torsions:
REMARK  status: ('A' for Active; 'I' for Inactive)
REMARK    1  A    between atoms: C_1  and  N_2
REMARK    2  A    between atoms: N_2  and  C_3
REMARK    3  A    between atoms: N_2  and  N_13
REMARK    4  A    between atoms: C_3  and  C_4
REMARK    5  A    between atoms: C_8  and  N_9
REMARK                            x       y       z     vdW  Elec       q    Type
REMARK                         _______ _______ _______ _____ _____    ______ ____
ROOT
ATOM      1  C   UNL     1       4.324   4.447  18.420  0.00  0.00    +0.000 A 
ATOM      2  C   UNL     1       3.608   4.105  17.262  0.00  0.00    +0.000 A 
ATOM      3  C   UNL     1       2.441   3.336  17.338  0.00  0.00    +0.000 A 
ATOM      4  C   UNL     1       1.968   2.900  18.576  0.00  0.00    +0.000 A 
ATOM      5  C   UNL     1       2.686   3.222  19.734  0.00  0.00    +0.000 A 
ATOM      6  C   UNL     1       3.867   3.976  19.662  0.00  0.00    +0.000 A 
ENDROOT
BRANCH   5   7
ATOM      7  N   UNL     1       2.174   2.804  21.046  0.00  0.00    +0.000 N 
ATOM      8  O   UNL     1       2.997   2.444  21.900  0.00  0.00    +0.000 OA
ATOM      9  O   UNL     1       0.946   2.824  21.218  0.00  0.00    +0.000 OA
ENDBRANCH   5   7
BRANCH   1  10
ATOM     10  C   UNL     1       5.521   5.380  18.344  0.00  0.00    +0.000 C 
BRANCH  10  12
ATOM     11  C   UNL     1       7.269   4.573  16.839  0.00  0.00    +0.000 C 
ATOM     12  N   UNL     1       6.856   4.766  18.224  0.00  0.00    +0.000 N 
BRANCH  12  13
ATOM     13  N   UNL     1       7.811   5.236  18.992  0.00  0.00    +0.000 NA
ATOM     14  O   UNL     1       7.435   5.351  20.166  0.00  0.00    +0.000 OA
ENDBRANCH  12  13
ENDBRANCH  10  12
ENDBRANCH   1  10
TORSDOF 4
ENDMDL
MODEL 4
REMARK VINA RESULT:      -5.9      1.682      5.230
REMARK  Name = 
REMARK  5 active torsions:
REMARK  status: ('A' for Active; 'I' for Inactive)
REMARK    1  A    between atoms: C_1  and  N_2
REMARK    2  A    between atoms: N_2  and  C_3
REMARK    3  A    between atoms: N_2  and  N_13
REMARK    4  A    between atoms: C_3  and  C_4
REMARK    5  A    between atoms: C_8  and  N_9
REMARK                            x       y       z     vdW  Elec       q    Type
REMARK                         _______ _______ _______ _____ _____    ______ ____
ROOT
ATOM      1  C   UNL     1       3.918   4.320  18.999  0.00  0.00    +0.000 A 
ATOM      2  C   UNL     1       3.332   5.379  18.286  0.00  0.00    +0.000 A 
ATOM      3  C   UNL     1       4.112   6.242  17.509  0.00  0.00    +0.000 A 
ATOM      4  C   UNL     1       5.492   6.057  17.426  0.00  0.00    +0.000 A 
ATOM      5  C   UNL     1       6.087   5.014  18.146  0.00  0.00    +0.000 A 
ATOM      6  C   UNL     1       5.312   4.158  18.944  0.00  0.00    +0.000 A 
ENDROOT
BRANCH   5   7
ATOM      7  N   UNL     1       7.533   4.785  18.034  0.00  0.00    +0.000 N 
ATOM      8  O   UNL     1       7.975   4.404  16.940  0.00  0.00    +0.000 OA
ATOM      9  O   UNL     1       8.226   4.976  19.044  0.00  0.00    +0.000 OA
ENDBRANCH   5   7
BRANCH   1  10
ATOM     10  C   UNL     1       3.055   3.317  19.744  0.00  0.00    +0.000 C 
BRANCH  10  12
ATOM     11  C   UNL     1       0.737   3.889  20.266  0.00  0.00    +0.000 C 
ATOM     12  N   UNL     1       2.113   3.843  20.749  0.00  0.00    +0.000 N 
BRANCH  12  13
ATOM     13  N   UNL     1       2.219   3.390  21.976  0.00  0.00    +0.000 NA
ATOM     14  O   UNL     1       2.881   2.345  22.018  0.00  0.00    +0.000 OA
ENDBRANCH  12  13
ENDBRANCH  10  12
ENDBRANCH   1  10
TORSDOF 4
ENDMDL
MODEL 5
REMARK VINA RESULT:      -5.9      2.413      2.926
REMARK  Name = 
REMARK  5 active torsions:
REMARK  status: ('A' for Active; 'I' for Inactive)
REMARK    1  A    between atoms: C_1  and  N_2
REMARK    2  A    between atoms: N_2  and  C_3
REMARK    3  A    between atoms: N_2  and  N_13
REMARK    4  A    between atoms: C_3  and  C_4
REMARK    5  A    between atoms: C_8  and  N_9
REMARK                            x       y       z     vdW  Elec       q    Type
REMARK                         _______ _______ _______ _____ _____    ______ ____
ROOT
ATOM      1  C   UNL     1       5.000   5.176  17.459  0.00  0.00    +0.000 A 
ATOM      2  C   UNL     1       4.814   6.566  17.378  0.00  0.00    +0.000 A 
ATOM      3  C   UNL     1       3.581   7.146  17.692  0.00  0.00    +0.000 A 
ATOM      4  C   UNL     1       2.513   6.347  18.099  0.00  0.00    +0.000 A 
ATOM      5  C   UNL     1       2.684   4.959  18.168  0.00  0.00    +0.000 A 
ATOM      6  C   UNL     1       3.913   4.369  17.834  0.00  0.00    +0.000 A 
ENDROOT
BRANCH   5   7
ATOM      7  N   UNL     1       1.579   4.112  18.635  0.00  0.00    +0.000 N 
ATOM      8  O   UNL     1       1.179   4.273  19.797  0.00  0.00    +0.000 OA
ATOM      9  O   UNL     1       1.119   3.277  17.842  0.00  0.00    +0.000 OA
ENDBRANCH   5   7
BRANCH   1  10
ATOM     10  C   UNL     1       6.371   4.563  17.232  0.00  0.00    +0.000 C 
BRANCH  10  12
ATOM     11  C   UNL     1       5.942   3.995  14.894  0.00  0.00    +0.000 C 
ATOM     12  N   UNL     1       6.892   4.551  15.853  0.00  0.00    +0.000 N 
BRANCH  12  13
ATOM     13  N   UNL     1       7.493   5.635  15.421  0.00  0.00    +0.000 NA
ATOM     14  O   UNL     1       7.840   5.521  14.238  0.00  0.00    +0.000 OA
ENDBRANCH  12  13
ENDBRANCH  10  12
ENDBRANCH   1  10
TORSDOF 4
ENDMDL
MODEL 6
REMARK VINA RESULT:      -5.9      1.657      5.390
REMARK  Name = 
REMARK  5 active torsions:
REMARK  status: ('A' for Active; 'I' for Inactive)
REMARK    1  A    between atoms: C_1  and  N_2
REMARK    2  A    between atoms: N_2  and  C_3
REMARK    3  A    between atoms: N_2  and  N_13
REMARK    4  A    between atoms: C_3  and  C_4
REMARK    5  A    between atoms: C_8  and  N_9
REMARK                            x       y       z     vdW  Elec       q    Type
REMARK                         _______ _______ _______ _____ _____    ______ ____
ROOT
ATOM      1  C   UNL     1       4.221   4.277  18.936  0.00  0.00    +0.000 A 
ATOM      2  C   UNL     1       3.557   5.447  18.533  0.00  0.00    +0.000 A 
ATOM      3  C   UNL     1       4.144   6.331  17.622  0.00  0.00    +0.000 A 
ATOM      4  C   UNL     1       5.406   6.058  17.094  0.00  0.00    +0.000 A 
ATOM      5  C   UNL     1       6.083   4.902  17.502  0.00  0.00    +0.000 A 
ATOM      6  C   UNL     1       5.507   4.022  18.431  0.00  0.00    +0.000 A 
ENDROOT
BRANCH   5   7
ATOM      7  N   UNL     1       7.393   4.583  16.920  0.00  0.00    +0.000 N 
ATOM      8  O   UNL     1       8.267   4.134  17.676  0.00  0.00    +0.000 OA
ATOM      9  O   UNL     1       7.551   4.793  15.709  0.00  0.00    +0.000 OA
ENDBRANCH   5   7
BRANCH   1  10
ATOM     10  C   UNL     1       3.530   3.263  19.831  0.00  0.00    +0.000 C 
BRANCH  10  12
ATOM     11  C   UNL     1       1.118   2.902  19.686  0.00  0.00    +0.000 C 
ATOM     12  N   UNL     1       2.199   3.615  20.358  0.00  0.00    +0.000 N 
BRANCH  12  13
ATOM     13  N   UNL     1       2.057   3.668  21.662  0.00  0.00    +0.000 NA
ATOM     14  O   UNL     1       1.721   2.571  22.126  0.00  0.00    +0.000 OA
ENDBRANCH  12  13
ENDBRANCH  10  12
ENDBRANCH   1  10
TORSDOF 4
ENDMDL
MODEL 7
REMARK VINA RESULT:      -5.8      1.673      5.376
REMARK  Name = 
REMARK  5 active torsions:
REMARK  status: ('A' for Active; 'I' for Inactive)
REMARK    1  A    between atoms: C_1  and  N_2
REMARK    2  A    between atoms: N_2  and  C_3
REMARK    3  A    between atoms: N_2  and  N_13
REMARK    4  A    between atoms: C_3  and  C_4
REMARK    5  A    between atoms: C_8  and  N_9
REMARK                            x       y       z     vdW  Elec       q    Type
REMARK                         _______ _______ _______ _____ _____    ______ ____
ROOT
ATOM      1  C   UNL     1       4.143   4.634  19.001  0.00  0.00    +0.000 A 
ATOM      2  C   UNL     1       3.302   5.699  18.641  0.00  0.00    +0.000 A 
ATOM      3  C   UNL     1       3.730   6.680  17.740  0.00  0.00    +0.000 A 
ATOM      4  C   UNL     1       5.005   6.610  17.179  0.00  0.00    +0.000 A 
ATOM      5  C   UNL     1       5.856   5.560  17.546  0.00  0.00    +0.000 A 
ATOM      6  C   UNL     1       5.440   4.585  18.464  0.00  0.00    +0.000 A 
ENDROOT
BRANCH   5   7
ATOM      7  N   UNL     1       7.186   5.454  16.930  0.00  0.00    +0.000 N 
ATOM      8  O   UNL     1       7.531   6.345  16.141  0.00  0.00    +0.000 OA
ATOM      9  O   UNL     1       7.880   4.471  17.229  0.00  0.00    +0.000 OA
ENDBRANCH   5   7
BRANCH   1  10
ATOM     10  C   UNL     1       3.633   3.509  19.886  0.00  0.00    +0.000 C 
BRANCH  10  12
ATOM     11  C   UNL     1       1.546   2.330  19.411  0.00  0.00    +0.000 C 
ATOM     12  N   UNL     1       2.180   3.434  20.123  0.00  0.00    +0.000 N 
BRANCH  12  13
ATOM     13  N   UNL     1       1.759   3.567  21.359  0.00  0.00    +0.000 NA
ATOM     14  O   UNL     1       2.462   2.924  22.149  0.00  0.00    +0.000 OA
ENDBRANCH  12  13
ENDBRANCH  10  12
ENDBRANCH   1  10
TORSDOF 4
ENDMDL
MODEL 8
REMARK VINA RESULT:      -5.8      1.728      1.936
REMARK  Name = 
REMARK  5 active torsions:
REMARK  status: ('A' for Active; 'I' for Inactive)
REMARK    1  A    between atoms: C_1  and  N_2
REMARK    2  A    between atoms: N_2  and  C_3
REMARK    3  A    between atoms: N_2  and  N_13
REMARK    4  A    between atoms: C_3  and  C_4
REMARK    5  A    between atoms: C_8  and  N_9
REMARK                            x       y       z     vdW  Elec       q    Type
REMARK                         _______ _______ _______ _____ _____    ______ ____
ROOT
ATOM      1  C   UNL     1       4.176   4.471  18.376  0.00  0.00    +0.000 A 
ATOM      2  C   UNL     1       3.748   3.747  17.252  0.00  0.00    +0.000 A 
ATOM      3  C   UNL     1       2.820   2.707  17.376  0.00  0.00    +0.000 A 
ATOM      4  C   UNL     1       2.300   2.376  18.628  0.00  0.00    +0.000 A 
ATOM      5  C   UNL     1       2.733   3.082  19.756  0.00  0.00    +0.000 A 
ATOM      6  C   UNL     1       3.679   4.113  19.641  0.00  0.00    +0.000 A 
ENDROOT
BRANCH   5   7
ATOM      7  N   UNL     1       2.162   2.770  21.073  0.00  0.00    +0.000 N 
ATOM      8  O   UNL     1       0.935   2.877  21.210  0.00  0.00    +0.000 OA
ATOM      9  O   UNL     1       2.943   2.428  21.972  0.00  0.00    +0.000 OA
ENDBRANCH   5   7
BRANCH   1  10
ATOM     10  C   UNL     1       5.090   5.674  18.222  0.00  0.00    +0.000 C 
BRANCH  10  12
ATOM     11  C   UNL     1       7.241   6.595  17.517  0.00  0.00    +0.000 C 
ATOM     12  N   UNL     1       6.522   5.415  17.984  0.00  0.00    +0.000 N 
BRANCH  12  13
ATOM     13  N   UNL     1       7.175   4.735  18.897  0.00  0.00    +0.000 NA
ATOM     14  O   UNL     1       7.229   5.350  19.970  0.00  0.00    +0.000 OA
ENDBRANCH  12  13
ENDBRANCH  10  12
ENDBRANCH   1  10
TORSDOF 4
ENDMDL
MODEL 9
REMARK VINA RESULT:      -5.8      1.457      1.987
REMARK  Name = 
REMARK  5 active torsions:
REMARK  status: ('A' for Active; 'I' for Inactive)
REMARK    1  A    between atoms: C_1  and  N_2
REMARK    2  A    between atoms: N_2  and  C_3
REMARK    3  A    between atoms: N_2  and  N_13
REMARK    4  A    between atoms: C_3  and  C_4
REMARK    5  A    between atoms: C_8  and  N_9
REMARK                            x       y       z     vdW  Elec       q    Type
REMARK                         _______ _______ _______ _____ _____    ______ ____
ROOT
ATOM      1  C   UNL     1       4.797   4.468  18.773  0.00  0.00    +0.000 A 
ATOM      2  C   UNL     1       4.168   4.392  17.520  0.00  0.00    +0.000 A 
ATOM      3  C   UNL     1       2.897   3.824  17.385  0.00  0.00    +0.000 A 
ATOM      4  C   UNL     1       2.229   3.326  18.504  0.00  0.00    +0.000 A 
ATOM      5  C   UNL     1       2.855   3.382  19.755  0.00  0.00    +0.000 A 
ATOM      6  C   UNL     1       4.138   3.933  19.893  0.00  0.00    +0.000 A 
ENDROOT
BRANCH   5   7
ATOM      7  N   UNL     1       2.144   2.899  20.946  0.00  0.00    +0.000 N 
ATOM      8  O   UNL     1       2.823   2.518  21.910  0.00  0.00    +0.000 OA
ATOM      9  O   UNL     1       0.905   2.889  20.911  0.00  0.00    +0.000 OA
ENDBRANCH   5   7
BRANCH   1  10
ATOM     10  C   UNL     1       6.123   5.191  18.933  0.00  0.00    +0.000 C 
BRANCH  10  12
ATOM     11  C   UNL     1       7.388   6.853  17.665  0.00  0.00    +0.000 C 
ATOM     12  N   UNL     1       6.892   5.482  17.709  0.00  0.00    +0.000 N 
BRANCH  12  13
ATOM     13  N   UNL     1       7.778   4.594  17.324  0.00  0.00    +0.000 NA
ATOM     14  O   UNL     1       7.821   4.503  16.090  0.00  0.00    +0.000 OA
ENDBRANCH  12  13
ENDBRANCH  10  12
ENDBRANCH   1  10
TORSDOF 4
ENDMDL
