MODEL 1
REMARK VINA RESULT:      -6.8      0.000      0.000
REMARK  Name = 
REMARK  7 active torsions:
REMARK  status: ('A' for Active; 'I' for Inactive)
REMARK    1  A    between atoms: C_1  and  O_2
REMARK    2  A    between atoms: O_2  and  C_3
REMARK    3  A    between atoms: C_3  and  C_4
REMARK    4  A    between atoms: C_6  and  N_7
REMARK    5  A    between atoms: N_7  and  C_8
REMARK    6  A    between atoms: C_8  and  C_9
REMARK    7  A    between atoms: C_9  and  C_10
REMARK                            x       y       z     vdW  Elec       q    Type
REMARK                         _______ _______ _______ _____ _____    ______ ____
ROOT
ATOM      1  C   UNL     1       2.413   6.307  19.735  0.00  0.00    +0.000 A 
ATOM      2  C   UNL     1       3.374   5.701  18.758  0.00  0.00    +0.000 A 
ATOM      3  C   UNL     1       3.557   4.370  18.824  0.00  0.00    +0.000 A 
ATOM      4  N   UNL     1       2.855   3.653  19.820  0.00  0.00    +0.000 N 
ATOM      5  N   UNL     1       2.922   2.312  20.085  0.00  0.00    +0.000 NA
ATOM      6  C   UNL     1       2.111   2.142  21.130  0.00  0.00    +0.000 A 
ATOM      7  C   UNL     1       1.504   3.334  21.554  0.00  0.00    +0.000 A 
ATOM      8  C   UNL     1       1.997   4.306  20.713  0.00  0.00    +0.000 A 
ATOM      9  N   UNL     1       1.768   5.651  20.660  0.00  0.00    +0.000 NA
ENDROOT
BRANCH   3  10
ATOM     10  N   UNL     1       4.398   3.653  17.959  0.00  0.00    +0.000 N 
ATOM     11  H   UNL     1       5.319   3.565  18.408  0.00  0.00    +0.000 HD
BRANCH  10  12
ATOM     12  C   UNL     1       4.527   4.036  16.546  0.00  0.00    +0.000 C 
BRANCH  12  13
ATOM     13  C   UNL     1       5.996   4.161  16.146  0.00  0.00    +0.000 C 
BRANCH  13  14
ATOM     14  C   UNL     1       6.721   5.129  17.044  0.00  0.00    +0.000 A 
ATOM     15  C   UNL     1       6.829   6.476  16.704  0.00  0.00    +0.000 A 
ATOM     16  C   UNL     1       7.519   7.334  17.557  0.00  0.00    +0.000 A 
ATOM     17  C   UNL     1       8.082   6.828  18.722  0.00  0.00    +0.000 A 
ATOM     18  C   UNL     1       7.936   5.478  18.983  0.00  0.00    +0.000 A 
ATOM     19  N   UNL     1       7.277   4.621  18.170  0.00  0.00    +0.000 NA
ENDBRANCH  13  14
ENDBRANCH  12  13
ENDBRANCH  10  12
ENDBRANCH   3  10
BRANCH   1  20
ATOM     20  C   UNL     1       2.156   7.804  19.591  0.00  0.00    +0.000 C 
BRANCH  20  22
ATOM     21  C   UNL     1       1.664   9.185  17.736  0.00  0.00    +0.000 C 
ATOM     22  O   UNL     1       2.620   8.327  18.353  0.00  0.00    +0.000 OA
ENDBRANCH  20  22
ENDBRANCH   1  20
TORSDOF 6
ENDMDL
MODEL 2
REMARK VINA RESULT:      -6.8      1.381      1.626
REMARK  Name = 
REMARK  7 active torsions:
REMARK  status: ('A' for Active; 'I' for Inactive)
REMARK    1  A    between atoms: C_1  and  O_2
REMARK    2  A    between atoms: O_2  and  C_3
REMARK    3  A    between atoms: C_3  and  C_4
REMARK    4  A    between atoms: C_6  and  N_7
REMARK    5  A    between atoms: N_7  and  C_8
REMARK    6  A    between atoms: C_8  and  C_9
REMARK    7  A    between atoms: C_9  and  C_10
REMARK                            x       y       z     vdW  Elec       q    Type
REMARK                         _______ _______ _______ _____ _____    ______ ____
ROOT
ATOM      1  C   UNL     1       2.618   6.165  18.690  0.00  0.00    +0.000 A 
ATOM      2  C   UNL     1       3.628   5.629  17.723  0.00  0.00    +0.000 A 
ATOM      3  C   UNL     1       3.677   4.294  17.565  0.00  0.00    +0.000 A 
ATOM      4  N   UNL     1       2.797   3.503  18.339  0.00  0.00    +0.000 N 
ATOM      5  N   UNL     1       2.706   2.137  18.363  0.00  0.00    +0.000 NA
ATOM      6  C   UNL     1       1.763   1.885  19.272  0.00  0.00    +0.000 A 
ATOM      7  C   UNL     1       1.224   3.050  19.840  0.00  0.00    +0.000 A 
ATOM      8  C   UNL     1       1.903   4.088  19.243  0.00  0.00    +0.000 A 
ATOM      9  N   UNL     1       1.808   5.439  19.410  0.00  0.00    +0.000 NA
ENDROOT
BRANCH   3  10
ATOM     10  N   UNL     1       4.546   3.643  16.675  0.00  0.00    +0.000 N 
ATOM     11  H   UNL     1       5.230   3.111  17.228  0.00  0.00    +0.000 HD
BRANCH  10  12
ATOM     12  C   UNL     1       5.198   4.382  15.584  0.00  0.00    +0.000 C 
BRANCH  12  13
ATOM     13  C   UNL     1       6.718   4.327  15.720  0.00  0.00    +0.000 C 
BRANCH  13  14
ATOM     14  C   UNL     1       7.201   5.286  16.778  0.00  0.00    +0.000 A 
ATOM     15  C   UNL     1       7.526   4.835  18.056  0.00  0.00    +0.000 A 
ATOM     16  C   UNL     1       7.957   5.758  19.006  0.00  0.00    +0.000 A 
ATOM     17  C   UNL     1       8.051   7.100  18.659  0.00  0.00    +0.000 A 
ATOM     18  C   UNL     1       7.703   7.466  17.371  0.00  0.00    +0.000 A 
ATOM     19  N   UNL     1       7.276   6.593  16.431  0.00  0.00    +0.000 NA
ENDBRANCH  13  14
ENDBRANCH  12  13
ENDBRANCH  10  12
ENDBRANCH   3  10
BRANCH   1  20
ATOM     20  C   UNL     1       2.520   7.684  18.793  0.00  0.00    +0.000 C 
BRANCH  20  22
ATOM     21  C   UNL     1       1.058   9.313  19.688  0.00  0.00    +0.000 C 
ATOM     22  O   UNL     1       1.787   8.114  19.933  0.00  0.00    +0.000 OA
ENDBRANCH  20  22
ENDBRANCH   1  20
TORSDOF 6
ENDMDL
MODEL 3
REMARK VINA RESULT:      -6.8      2.335      5.764
REMARK  Name = 
REMARK  7 active torsions:
REMARK  status: ('A' for Active; 'I' for Inactive)
REMARK    1  A    between atoms: C_1  and  O_2
REMARK    2  A    between atoms: O_2  and  C_3
REMARK    3  A    between atoms: C_3  and  C_4
REMARK    4  A    between atoms: C_6  and  N_7
REMARK    5  A    between atoms: N_7  and  C_8
REMARK    6  A    between atoms: C_8  and  C_9
REMARK    7  A    between atoms: C_9  and  C_10
REMARK                            x       y       z     vdW  Elec       q    Type
REMARK                         _______ _______ _______ _____ _____    ______ ____
ROOT
ATOM      1  C   UNL     1       6.414   4.746  15.536  0.00  0.00    +0.000 A 
ATOM      2  C   UNL     1       5.412   3.886  16.242  0.00  0.00    +0.000 A 
ATOM      3  C   UNL     1       5.377   3.961  17.584  0.00  0.00    +0.000 A 
ATOM      4  N   UNL     1       6.301   4.819  18.224  0.00  0.00    +0.000 N 
ATOM      5  N   UNL     1       6.462   5.017  19.568  0.00  0.00    +0.000 NA
ATOM      6  C   UNL     1       7.475   5.880  19.656  0.00  0.00    +0.000 A 
ATOM      7  C   UNL     1       7.978   6.263  18.403  0.00  0.00    +0.000 A 
ATOM      8  C   UNL     1       7.225   5.567  17.485  0.00  0.00    +0.000 A 
ATOM      9  N   UNL     1       7.272   5.535  16.121  0.00  0.00    +0.000 NA
ENDROOT
BRANCH   3  10
ATOM     10  N   UNL     1       4.475   3.242  18.384  0.00  0.00    +0.000 N 
ATOM     11  H   UNL     1       5.016   2.606  18.984  0.00  0.00    +0.000 HD
BRANCH  10  12
ATOM     12  C   UNL     1       3.318   2.559  17.788  0.00  0.00    +0.000 C 
BRANCH  12  13
ATOM     13  C   UNL     1       2.211   3.555  17.451  0.00  0.00    +0.000 C 
BRANCH  13  14
ATOM     14  C   UNL     1       2.162   4.672  18.461  0.00  0.00    +0.000 A 
ATOM     15  C   UNL     1       2.436   5.986  18.088  0.00  0.00    +0.000 A 
ATOM     16  C   UNL     1       2.391   6.986  19.058  0.00  0.00    +0.000 A 
ATOM     17  C   UNL     1       2.077   6.650  20.369  0.00  0.00    +0.000 A 
ATOM     18  C   UNL     1       1.826   5.320  20.658  0.00  0.00    +0.000 A 
ATOM     19  N   UNL     1       1.868   4.329  19.739  0.00  0.00    +0.000 NA
ENDBRANCH  13  14
ENDBRANCH  12  13
ENDBRANCH  10  12
ENDBRANCH   3  10
BRANCH   1  20
ATOM     20  C   UNL     1       6.382   4.710  14.011  0.00  0.00    +0.000 C 
BRANCH  20  22
ATOM     21  C   UNL     1       6.067   3.364  12.092  0.00  0.00    +0.000 C 
ATOM     22  O   UNL     1       6.336   3.387  13.491  0.00  0.00    +0.000 OA
ENDBRANCH  20  22
ENDBRANCH   1  20
TORSDOF 6
ENDMDL
MODEL 4
REMARK VINA RESULT:      -6.6      2.432      6.080
REMARK  Name = 
REMARK  7 active torsions:
REMARK  status: ('A' for Active; 'I' for Inactive)
REMARK    1  A    between atoms: C_1  and  O_2
REMARK    2  A    between atoms: O_2  and  C_3
REMARK    3  A    between atoms: C_3  and  C_4
REMARK    4  A    between atoms: C_6  and  N_7
REMARK    5  A    between atoms: N_7  and  C_8
REMARK    6  A    between atoms: C_8  and  C_9
REMARK    7  A    between atoms: C_9  and  C_10
REMARK                            x       y       z     vdW  Elec       q    Type
REMARK                         _______ _______ _______ _____ _____    ______ ____
ROOT
ATOM      1  C   UNL     1       6.684   4.488  15.281  0.00  0.00    +0.000 A 
ATOM      2  C   UNL     1       5.436   3.777  15.707  0.00  0.00    +0.000 A 
ATOM      3  C   UNL     1       5.096   3.861  17.006  0.00  0.00    +0.000 A 
ATOM      4  N   UNL     1       5.951   4.585  17.869  0.00  0.00    +0.000 N 
ATOM      5  N   UNL     1       5.817   4.762  19.219  0.00  0.00    +0.000 NA
ATOM      6  C   UNL     1       6.889   5.477  19.566  0.00  0.00    +0.000 A 
ATOM      7  C   UNL     1       7.720   5.782  18.478  0.00  0.00    +0.000 A 
ATOM      8  C   UNL     1       7.117   5.194  17.389  0.00  0.00    +0.000 A 
ATOM      9  N   UNL     1       7.479   5.151  16.073  0.00  0.00    +0.000 NA
ENDROOT
BRANCH   3  10
ATOM     10  N   UNL     1       3.942   3.277  17.552  0.00  0.00    +0.000 N 
ATOM     11  H   UNL     1       4.162   2.304  17.797  0.00  0.00    +0.000 HD
BRANCH  10  12
ATOM     12  C   UNL     1       2.649   3.376  16.859  0.00  0.00    +0.000 C 
BRANCH  12  13
ATOM     13  C   UNL     1       1.658   4.209  17.668  0.00  0.00    +0.000 C 
BRANCH  13  14
ATOM     14  C   UNL     1       1.784   3.918  19.142  0.00  0.00    +0.000 A 
ATOM     15  C   UNL     1       2.108   4.929  20.044  0.00  0.00    +0.000 A 
ATOM     16  C   UNL     1       2.227   4.614  21.396  0.00  0.00    +0.000 A 
ATOM     17  C   UNL     1       2.022   3.304  21.810  0.00  0.00    +0.000 A 
ATOM     18  C   UNL     1       1.710   2.358  20.850  0.00  0.00    +0.000 A 
ATOM     19  N   UNL     1       1.595   2.634  19.531  0.00  0.00    +0.000 NA
ENDBRANCH  13  14
ENDBRANCH  12  13
ENDBRANCH  10  12
ENDBRANCH   3  10
BRANCH   1  20
ATOM     20  C   UNL     1       7.007   4.451  13.790  0.00  0.00    +0.000 C 
BRANCH  20  22
ATOM     21  C   UNL     1       8.718   5.757  12.812  0.00  0.00    +0.000 C 
ATOM     22  O   UNL     1       7.371   5.725  13.273  0.00  0.00    +0.000 OA
ENDBRANCH  20  22
ENDBRANCH   1  20
TORSDOF 6
ENDMDL
MODEL 5
REMARK VINA RESULT:      -6.6      2.174      6.059
REMARK  Name = 
REMARK  7 active torsions:
REMARK  status: ('A' for Active; 'I' for Inactive)
REMARK    1  A    between atoms: C_1  and  O_2
REMARK    2  A    between atoms: O_2  and  C_3
REMARK    3  A    between atoms: C_3  and  C_4
REMARK    4  A    between atoms: C_6  and  N_7
REMARK    5  A    between atoms: N_7  and  C_8
REMARK    6  A    between atoms: C_8  and  C_9
REMARK    7  A    between atoms: C_9  and  C_10
REMARK                            x       y       z     vdW  Elec       q    Type
REMARK                         _______ _______ _______ _____ _____    ______ ____
ROOT
ATOM      1  C   UNL     1       7.182   6.237  17.280  0.00  0.00    +0.000 A 
ATOM      2  C   UNL     1       6.147   5.349  17.901  0.00  0.00    +0.000 A 
ATOM      3  C   UNL     1       5.607   4.399  17.118  0.00  0.00    +0.000 A 
ATOM      4  N   UNL     1       6.032   4.328  15.771  0.00  0.00    +0.000 N 
ATOM      5  N   UNL     1       5.589   3.471  14.801  0.00  0.00    +0.000 NA
ATOM      6  C   UNL     1       6.265   3.831  13.709  0.00  0.00    +0.000 A 
ATOM      7  C   UNL     1       7.149   4.896  13.938  0.00  0.00    +0.000 A 
ATOM      8  C   UNL     1       6.985   5.220  15.266  0.00  0.00    +0.000 A 
ATOM      9  N   UNL     1       7.573   6.180  16.038  0.00  0.00    +0.000 NA
ENDROOT
BRANCH   3  10
ATOM     10  N   UNL     1       4.650   3.471  17.561  0.00  0.00    +0.000 N 
ATOM     11  H   UNL     1       5.102   2.550  17.622  0.00  0.00    +0.000 HD
BRANCH  10  12
ATOM     12  C   UNL     1       3.334   3.380  16.913  0.00  0.00    +0.000 C 
BRANCH  12  13
ATOM     13  C   UNL     1       2.326   4.304  17.592  0.00  0.00    +0.000 C 
BRANCH  13  14
ATOM     14  C   UNL     1       2.166   3.954  19.049  0.00  0.00    +0.000 A 
ATOM     15  C   UNL     1       2.317   4.924  20.037  0.00  0.00    +0.000 A 
ATOM     16  C   UNL     1       2.173   4.553  21.373  0.00  0.00    +0.000 A 
ATOM     17  C   UNL     1       1.885   3.231  21.686  0.00  0.00    +0.000 A 
ATOM     18  C   UNL     1       1.758   2.328  20.645  0.00  0.00    +0.000 A 
ATOM     19  N   UNL     1       1.899   2.658  19.341  0.00  0.00    +0.000 NA
ENDBRANCH  13  14
ENDBRANCH  12  13
ENDBRANCH  10  12
ENDBRANCH   3  10
BRANCH   1  20
ATOM     20  C   UNL     1       7.844   7.254  18.206  0.00  0.00    +0.000 C 
BRANCH  20  22
ATOM     21  C   UNL     1       8.664   9.464  18.386  0.00  0.00    +0.000 C 
ATOM     22  O   UNL     1       7.778   8.582  17.703  0.00  0.00    +0.000 OA
ENDBRANCH  20  22
ENDBRANCH   1  20
TORSDOF 6
ENDMDL
MODEL 6
REMARK VINA RESULT:      -6.6      2.212      3.142
REMARK  Name = 
REMARK  7 active torsions:
REMARK  status: ('A' for Active; 'I' for Inactive)
REMARK    1  A    between atoms: C_1  and  O_2
REMARK    2  A    between atoms: O_2  and  C_3
REMARK    3  A    between atoms: C_3  and  C_4
REMARK    4  A    between atoms: C_6  and  N_7
REMARK    5  A    between atoms: N_7  and  C_8
REMARK    6  A    between atoms: C_8  and  C_9
REMARK    7  A    between atoms: C_9  and  C_10
REMARK                            x       y       z     vdW  Elec       q    Type
REMARK                         _______ _______ _______ _____ _____    ______ ____
ROOT
ATOM      1  C   UNL     1       2.896   6.002  19.034  0.00  0.00    +0.000 A 
ATOM      2  C   UNL     1       4.351   5.778  18.758  0.00  0.00    +0.000 A 
ATOM      3  C   UNL     1       4.746   4.510  18.543  0.00  0.00    +0.000 A 
ATOM      4  N   UNL     1       3.770   3.490  18.620  0.00  0.00    +0.000 N 
ATOM      5  N   UNL     1       3.959   2.143  18.474  0.00  0.00    +0.000 NA
ATOM      6  C   UNL     1       2.750   1.616  18.673  0.00  0.00    +0.000 A 
ATOM      7  C   UNL     1       1.768   2.583  18.936  0.00  0.00    +0.000 A 
ATOM      8  C   UNL     1       2.434   3.787  18.913  0.00  0.00    +0.000 A 
ATOM      9  N   UNL     1       1.993   5.064  19.112  0.00  0.00    +0.000 NA
ENDROOT
BRANCH   3  10
ATOM     10  N   UNL     1       6.067   4.143  18.242  0.00  0.00    +0.000 N 
ATOM     11  H   UNL     1       6.671   4.464  19.010  0.00  0.00    +0.000 HD
BRANCH  10  12
ATOM     12  C   UNL     1       6.655   4.458  16.932  0.00  0.00    +0.000 C 
BRANCH  12  13
ATOM     13  C   UNL     1       5.788   3.913  15.799  0.00  0.00    +0.000 C 
BRANCH  13  14
ATOM     14  C   UNL     1       6.400   4.215  14.456  0.00  0.00    +0.000 A 
ATOM     15  C   UNL     1       5.977   3.544  13.311  0.00  0.00    +0.000 A 
ATOM     16  C   UNL     1       6.579   3.846  12.091  0.00  0.00    +0.000 A 
ATOM     17  C   UNL     1       7.584   4.804  12.046  0.00  0.00    +0.000 A 
ATOM     18  C   UNL     1       7.950   5.419  13.229  0.00  0.00    +0.000 A 
ATOM     19  N   UNL     1       7.388   5.142  14.428  0.00  0.00    +0.000 NA
ENDBRANCH  13  14
ENDBRANCH  12  13
ENDBRANCH  10  12
ENDBRANCH   3  10
BRANCH   1  20
ATOM     20  C   UNL     1       2.453   7.453  19.193  0.00  0.00    +0.000 C 
BRANCH  20  22
ATOM     21  C   UNL     1       2.041   9.405  17.924  0.00  0.00    +0.000 C 
ATOM     22  O   UNL     1       1.888   7.991  18.004  0.00  0.00    +0.000 OA
ENDBRANCH  20  22
ENDBRANCH   1  20
TORSDOF 6
ENDMDL
MODEL 7
REMARK VINA RESULT:      -6.6      3.446      5.985
REMARK  Name = 
REMARK  7 active torsions:
REMARK  status: ('A' for Active; 'I' for Inactive)
REMARK    1  A    between atoms: C_1  and  O_2
REMARK    2  A    between atoms: O_2  and  C_3
REMARK    3  A    between atoms: C_3  and  C_4
REMARK    4  A    between atoms: C_6  and  N_7
REMARK    5  A    between atoms: N_7  and  C_8
REMARK    6  A    between atoms: C_8  and  C_9
REMARK    7  A    between atoms: C_9  and  C_10
REMARK                            x       y       z     vdW  Elec       q    Type
REMARK                         _______ _______ _______ _____ _____    ______ ____
ROOT
ATOM      1  C   UNL     1       5.409   4.846  18.219  0.00  0.00    +0.000 A 
ATOM      2  C   UNL     1       6.321   6.034  18.263  0.00  0.00    +0.000 A 
ATOM      3  C   UNL     1       7.001   6.326  17.140  0.00  0.00    +0.000 A 
ATOM      4  N   UNL     1       6.826   5.480  16.020  0.00  0.00    +0.000 N 
ATOM      5  N   UNL     1       7.442   5.571  14.802  0.00  0.00    +0.000 NA
ATOM      6  C   UNL     1       6.972   4.529  14.115  0.00  0.00    +0.000 A 
ATOM      7  C   UNL     1       6.054   3.760  14.846  0.00  0.00    +0.000 A 
ATOM      8  C   UNL     1       5.973   4.371  16.077  0.00  0.00    +0.000 A 
ATOM      9  N   UNL     1       5.249   4.059  17.191  0.00  0.00    +0.000 NA
ENDROOT
BRANCH   3  10
ATOM     10  N   UNL     1       7.868   7.423  17.013  0.00  0.00    +0.000 N 
ATOM     11  H   UNL     1       8.702   7.113  16.497  0.00  0.00    +0.000 HD
BRANCH  10  12
ATOM     12  C   UNL     1       8.234   8.232  18.185  0.00  0.00    +0.000 C 
BRANCH  12  13
ATOM     13  C   UNL     1       8.147   9.722  17.867  0.00  0.00    +0.000 C 
BRANCH  13  14
ATOM     14  C   UNL     1       9.244  10.488  18.561  0.00  0.00    +0.000 A 
ATOM     15  C   UNL     1       9.281  10.583  19.950  0.00  0.00    +0.000 A 
ATOM     16  C   UNL     1      10.306  11.311  20.550  0.00  0.00    +0.000 A 
ATOM     17  C   UNL     1      11.263  11.925  19.751  0.00  0.00    +0.000 A 
ATOM     18  C   UNL     1      11.150  11.789  18.379  0.00  0.00    +0.000 A 
ATOM     19  N   UNL     1      10.163  11.093  17.770  0.00  0.00    +0.000 NA
ENDBRANCH  13  14
ENDBRANCH  12  13
ENDBRANCH  10  12
ENDBRANCH   3  10
BRANCH   1  20
ATOM     20  C   UNL     1       4.585   4.580  19.475  0.00  0.00    +0.000 C 
BRANCH  20  22
ATOM     21  C   UNL     1       2.560   3.361  19.542  0.00  0.00    +0.000 C 
ATOM     22  O   UNL     1       3.184   4.603  19.231  0.00  0.00    +0.000 OA
ENDBRANCH  20  22
ENDBRANCH   1  20
TORSDOF 6
ENDMDL
MODEL 8
REMARK VINA RESULT:      -6.6      2.306      6.266
REMARK  Name = 
REMARK  7 active torsions:
REMARK  status: ('A' for Active; 'I' for Inactive)
REMARK    1  A    between atoms: C_1  and  O_2
REMARK    2  A    between atoms: O_2  and  C_3
REMARK    3  A    between atoms: C_3  and  C_4
REMARK    4  A    between atoms: C_6  and  N_7
REMARK    5  A    between atoms: N_7  and  C_8
REMARK    6  A    between atoms: C_8  and  C_9
REMARK    7  A    between atoms: C_9  and  C_10
REMARK                            x       y       z     vdW  Elec       q    Type
REMARK                         _______ _______ _______ _____ _____    ______ ____
ROOT
ATOM      1  C   UNL     1       6.592   4.529  15.399  0.00  0.00    +0.000 A 
ATOM      2  C   UNL     1       5.160   4.610  15.833  0.00  0.00    +0.000 A 
ATOM      3  C   UNL     1       4.927   4.905  17.125  0.00  0.00    +0.000 A 
ATOM      4  N   UNL     1       6.043   5.088  17.974  0.00  0.00    +0.000 N 
ATOM      5  N   UNL     1       6.034   5.355  19.316  0.00  0.00    +0.000 NA
ATOM      6  C   UNL     1       7.323   5.398  19.653  0.00  0.00    +0.000 A 
ATOM      7  C   UNL     1       8.182   5.175  18.566  0.00  0.00    +0.000 A 
ATOM      8  C   UNL     1       7.350   4.965  17.489  0.00  0.00    +0.000 A 
ATOM      9  N   UNL     1       7.624   4.691  16.180  0.00  0.00    +0.000 NA
ENDROOT
BRANCH   3  10
ATOM     10  N   UNL     1       3.643   5.047  17.675  0.00  0.00    +0.000 N 
ATOM     11  H   UNL     1       2.973   4.590  17.044  0.00  0.00    +0.000 HD
BRANCH  10  12
ATOM     12  C   UNL     1       3.154   6.361  18.115  0.00  0.00    +0.000 C 
BRANCH  12  13
ATOM     13  C   UNL     1       1.824   6.230  18.852  0.00  0.00    +0.000 C 
BRANCH  13  14
ATOM     14  C   UNL     1       1.755   4.933  19.617  0.00  0.00    +0.000 A 
ATOM     15  C   UNL     1       2.211   4.853  20.931  0.00  0.00    +0.000 A 
ATOM     16  C   UNL     1       2.140   3.631  21.596  0.00  0.00    +0.000 A 
ATOM     17  C   UNL     1       1.619   2.525  20.936  0.00  0.00    +0.000 A 
ATOM     18  C   UNL     1       1.194   2.687  19.629  0.00  0.00    +0.000 A 
ATOM     19  N   UNL     1       1.257   3.859  18.957  0.00  0.00    +0.000 NA
ENDBRANCH  13  14
ENDBRANCH  12  13
ENDBRANCH  10  12
ENDBRANCH   3  10
BRANCH   1  20
ATOM     20  C   UNL     1       6.835   4.276  13.914  0.00  0.00    +0.000 C 
BRANCH  20  22
ATOM     21  C   UNL     1       5.977   3.019  12.105  0.00  0.00    +0.000 C 
ATOM     22  O   UNL     1       5.669   3.835  13.231  0.00  0.00    +0.000 OA
ENDBRANCH  20  22
ENDBRANCH   1  20
TORSDOF 6
ENDMDL
MODEL 9
REMARK VINA RESULT:      -6.5      2.135      3.047
REMARK  Name = 
REMARK  7 active torsions:
REMARK  status: ('A' for Active; 'I' for Inactive)
REMARK    1  A    between atoms: C_1  and  O_2
REMARK    2  A    between atoms: O_2  and  C_3
REMARK    3  A    between atoms: C_3  and  C_4
REMARK    4  A    between atoms: C_6  and  N_7
REMARK    5  A    between atoms: N_7  and  C_8
REMARK    6  A    between atoms: C_8  and  C_9
REMARK    7  A    between atoms: C_9  and  C_10
REMARK                            x       y       z     vdW  Elec       q    Type
REMARK                         _______ _______ _______ _____ _____    ______ ____
ROOT
ATOM      1  C   UNL     1       2.940   6.750  18.685  0.00  0.00    +0.000 A 
ATOM      2  C   UNL     1       4.091   6.025  18.060  0.00  0.00    +0.000 A 
ATOM      3  C   UNL     1       4.330   4.772  18.485  0.00  0.00    +0.000 A 
ATOM      4  N   UNL     1       3.499   4.248  19.503  0.00  0.00    +0.000 N 
ATOM      5  N   UNL     1       3.589   3.021  20.102  0.00  0.00    +0.000 NA
ATOM      6  C   UNL     1       2.613   3.027  21.012  0.00  0.00    +0.000 A 
ATOM      7  C   UNL     1       1.877   4.222  21.019  0.00  0.00    +0.000 A 
ATOM      8  C   UNL     1       2.461   5.009  20.053  0.00  0.00    +0.000 A 
ATOM      9  N   UNL     1       2.175   6.274  19.628  0.00  0.00    +0.000 NA
ENDROOT
BRANCH   3  10
ATOM     10  N   UNL     1       5.351   3.954  17.975  0.00  0.00    +0.000 N 
ATOM     11  H   UNL     1       6.227   4.201  18.452  0.00  0.00    +0.000 HD
BRANCH  10  12
ATOM     12  C   UNL     1       5.551   3.817  16.525  0.00  0.00    +0.000 C 
BRANCH  12  13
ATOM     13  C   UNL     1       6.524   4.873  16.006  0.00  0.00    +0.000 C 
BRANCH  13  14
ATOM     14  C   UNL     1       6.774   4.699  14.530  0.00  0.00    +0.000 A 
ATOM     15  C   UNL     1       6.045   3.775  13.786  0.00  0.00    +0.000 A 
ATOM     16  C   UNL     1       6.318   3.638  12.427  0.00  0.00    +0.000 A 
ATOM     17  C   UNL     1       7.308   4.422  11.848  0.00  0.00    +0.000 A 
ATOM     18  C   UNL     1       7.991   5.311  12.659  0.00  0.00    +0.000 A 
ATOM     19  N   UNL     1       7.751   5.461  13.982  0.00  0.00    +0.000 NA
ENDBRANCH  13  14
ENDBRANCH  12  13
ENDBRANCH  10  12
ENDBRANCH   3  10
BRANCH   1  20
ATOM     20  C   UNL     1       2.633   8.139  18.131  0.00  0.00    +0.000 C 
BRANCH  20  22
ATOM     21  C   UNL     1       0.887   9.720  18.336  0.00  0.00    +0.000 C 
ATOM     22  O   UNL     1       1.853   8.928  19.020  0.00  0.00    +0.000 OA
ENDBRANCH  20  22
ENDBRANCH   1  20
TORSDOF 6
ENDMDL
