MODEL 1
REMARK VINA RESULT:      -7.0      0.000      0.000
REMARK  Name = 
REMARK  4 active torsions:
REMARK  status: ('A' for Active; 'I' for Inactive)
REMARK    1  A    between atoms: C_2  and  C_3
REMARK    2  A    between atoms: C_2  and  O_11
REMARK    3  A    between atoms: C_4  and  C_5
REMARK    4  A    between atoms: O_11  and  C_12
REMARK                            x       y       z     vdW  Elec       q    Type
REMARK                         _______ _______ _______ _____ _____    ______ ____
ROOT
ATOM      1  O   UNL     1       7.711   5.984  18.730  0.00  0.00    +0.000 OA
ATOM      2  C   UNL     1       7.020   5.060  18.325  0.00  0.00    +0.000 C 
ENDROOT
BRANCH   2   3
ATOM      3  C   UNL     1       7.104   4.569  16.929  0.00  0.00    +0.000 C 
ATOM      4  C   UNL     1       6.843   5.324  15.847  0.00  0.00    +0.000 C 
BRANCH   4   5
ATOM      5  C   UNL     1       6.844   4.830  14.463  0.00  0.00    +0.000 A 
ATOM      6  C   UNL     1       5.905   3.852  14.101  0.00  0.00    +0.000 A 
ATOM      7  C   UNL     1       5.850   3.360  12.795  0.00  0.00    +0.000 A 
ATOM      8  C   UNL     1       6.728   3.846  11.831  0.00  0.00    +0.000 A 
ATOM      9  C   UNL     1       7.657   4.828  12.172  0.00  0.00    +0.000 A 
ATOM     10  C   UNL     1       7.711   5.321  13.479  0.00  0.00    +0.000 A 
ENDBRANCH   4   5
ENDBRANCH   2   3
BRANCH   2  11
ATOM     11  O   UNL     1       6.105   4.316  19.049  0.00  0.00    +0.000 OA
BRANCH  11  12
ATOM     12  C   UNL     1       4.739   4.338  18.707  0.00  0.00    +0.000 A 
ATOM     13  C   UNL     1       4.067   5.541  18.923  0.00  0.00    +0.000 A 
ATOM     14  C   UNL     1       2.756   5.687  18.467  0.00  0.00    +0.000 A 
ATOM     15  C   UNL     1       2.132   4.636  17.793  0.00  0.00    +0.000 A 
ATOM     16  C   UNL     1       2.811   3.435  17.583  0.00  0.00    +0.000 A 
ATOM     17  C   UNL     1       4.122   3.283  18.037  0.00  0.00    +0.000 A 
ENDBRANCH  11  12
ENDBRANCH   2  11
TORSDOF 4
ENDMDL
MODEL 2
REMARK VINA RESULT:      -6.9      2.314      6.065
REMARK  Name = 
REMARK  4 active torsions:
REMARK  status: ('A' for Active; 'I' for Inactive)
REMARK    1  A    between atoms: C_2  and  C_3
REMARK    2  A    between atoms: C_2  and  O_11
REMARK    3  A    between atoms: C_4  and  C_5
REMARK    4  A    between atoms: O_11  and  C_12
REMARK                            x       y       z     vdW  Elec       q    Type
REMARK                         _______ _______ _______ _____ _____    ______ ____
ROOT
ATOM      1  O   UNL     1       5.298   4.290  14.335  0.00  0.00    +0.000 OA
ATOM      2  C   UNL     1       5.487   4.204  15.540  0.00  0.00    +0.000 C 
ENDROOT
BRANCH   2   3
ATOM      3  C   UNL     1       4.375   4.293  16.517  0.00  0.00    +0.000 C 
ATOM      4  C   UNL     1       4.185   3.424  17.525  0.00  0.00    +0.000 C 
BRANCH   4   5
ATOM      5  C   UNL     1       3.043   3.452  18.449  0.00  0.00    +0.000 A 
ATOM      6  C   UNL     1       3.093   4.325  19.547  0.00  0.00    +0.000 A 
ATOM      7  C   UNL     1       2.028   4.406  20.447  0.00  0.00    +0.000 A 
ATOM      8  C   UNL     1       0.895   3.620  20.257  0.00  0.00    +0.000 A 
ATOM      9  C   UNL     1       0.825   2.759  19.164  0.00  0.00    +0.000 A 
ATOM     10  C   UNL     1       1.890   2.679  18.262  0.00  0.00    +0.000 A 
ENDBRANCH   4   5
ENDBRANCH   2   3
BRANCH   2  11
ATOM     11  O   UNL     1       6.690   3.990  16.189  0.00  0.00    +0.000 OA
BRANCH  11  12
ATOM     12  C   UNL     1       7.239   4.986  17.019  0.00  0.00    +0.000 A 
ATOM     13  C   UNL     1       7.190   6.292  16.533  0.00  0.00    +0.000 A 
ATOM     14  C   UNL     1       7.573   7.348  17.361  0.00  0.00    +0.000 A 
ATOM     15  C   UNL     1       7.992   7.092  18.668  0.00  0.00    +0.000 A 
ATOM     16  C   UNL     1       8.041   5.781  19.145  0.00  0.00    +0.000 A 
ATOM     17  C   UNL     1       7.659   4.722  18.322  0.00  0.00    +0.000 A 
ENDBRANCH  11  12
ENDBRANCH   2  11
TORSDOF 4
ENDMDL
MODEL 3
REMARK VINA RESULT:      -6.9      1.558      2.184
REMARK  Name = 
REMARK  4 active torsions:
REMARK  status: ('A' for Active; 'I' for Inactive)
REMARK    1  A    between atoms: C_2  and  C_3
REMARK    2  A    between atoms: C_2  and  O_11
REMARK    3  A    between atoms: C_4  and  C_5
REMARK    4  A    between atoms: O_11  and  C_12
REMARK                            x       y       z     vdW  Elec       q    Type
REMARK                         _______ _______ _______ _____ _____    ______ ____
ROOT
ATOM      1  O   UNL     1       5.692   3.814  19.013  0.00  0.00    +0.000 OA
ATOM      2  C   UNL     1       5.042   4.236  18.066  0.00  0.00    +0.000 C 
ENDROOT
BRANCH   2   3
ATOM      3  C   UNL     1       5.439   3.971  16.662  0.00  0.00    +0.000 C 
ATOM      4  C   UNL     1       6.212   4.791  15.929  0.00  0.00    +0.000 C 
BRANCH   4   5
ATOM      5  C   UNL     1       6.546   4.582  14.514  0.00  0.00    +0.000 A 
ATOM      6  C   UNL     1       5.818   3.626  13.789  0.00  0.00    +0.000 A 
ATOM      7  C   UNL     1       6.082   3.399  12.436  0.00  0.00    +0.000 A 
ATOM      8  C   UNL     1       7.073   4.131  11.788  0.00  0.00    +0.000 A 
ATOM      9  C   UNL     1       7.795   5.093  12.491  0.00  0.00    +0.000 A 
ATOM     10  C   UNL     1       7.530   5.321  13.845  0.00  0.00    +0.000 A 
ENDBRANCH   4   5
ENDBRANCH   2   3
BRANCH   2  11
ATOM     11  O   UNL     1       3.869   4.967  18.112  0.00  0.00    +0.000 OA
BRANCH  11  12
ATOM     12  C   UNL     1       2.726   4.442  18.744  0.00  0.00    +0.000 A 
ATOM     13  C   UNL     1       2.075   3.402  18.080  0.00  0.00    +0.000 A 
ATOM     14  C   UNL     1       1.030   2.729  18.714  0.00  0.00    +0.000 A 
ATOM     15  C   UNL     1       0.650   3.093  20.007  0.00  0.00    +0.000 A 
ATOM     16  C   UNL     1       1.305   4.138  20.663  0.00  0.00    +0.000 A 
ATOM     17  C   UNL     1       2.350   4.813  20.033  0.00  0.00    +0.000 A 
ENDBRANCH  11  12
ENDBRANCH   2  11
TORSDOF 4
ENDMDL
MODEL 4
REMARK VINA RESULT:      -6.9      1.718      5.639
REMARK  Name = 
REMARK  4 active torsions:
REMARK  status: ('A' for Active; 'I' for Inactive)
REMARK    1  A    between atoms: C_2  and  C_3
REMARK    2  A    between atoms: C_2  and  O_11
REMARK    3  A    between atoms: C_4  and  C_5
REMARK    4  A    between atoms: O_11  and  C_12
REMARK                            x       y       z     vdW  Elec       q    Type
REMARK                         _______ _______ _______ _____ _____    ______ ____
ROOT
ATOM      1  O   UNL     1       7.532   5.430  20.362  0.00  0.00    +0.000 OA
ATOM      2  C   UNL     1       6.940   5.461  19.293  0.00  0.00    +0.000 C 
ENDROOT
BRANCH   2   3
ATOM      3  C   UNL     1       5.637   4.781  19.098  0.00  0.00    +0.000 C 
ATOM      4  C   UNL     1       4.475   5.214  19.618  0.00  0.00    +0.000 C 
BRANCH   4   5
ATOM      5  C   UNL     1       3.192   4.507  19.501  0.00  0.00    +0.000 A 
ATOM      6  C   UNL     1       2.966   3.714  18.366  0.00  0.00    +0.000 A 
ATOM      7  C   UNL     1       1.772   3.006  18.212  0.00  0.00    +0.000 A 
ATOM      8  C   UNL     1       0.790   3.076  19.196  0.00  0.00    +0.000 A 
ATOM      9  C   UNL     1       1.005   3.849  20.335  0.00  0.00    +0.000 A 
ATOM     10  C   UNL     1       2.202   4.556  20.490  0.00  0.00    +0.000 A 
ENDBRANCH   4   5
ENDBRANCH   2   3
BRANCH   2  11
ATOM     11  O   UNL     1       7.325   6.119  18.138  0.00  0.00    +0.000 OA
BRANCH  11  12
ATOM     12  C   UNL     1       6.776   5.755  16.893  0.00  0.00    +0.000 A 
ATOM     13  C   UNL     1       7.242   4.564  16.337  0.00  0.00    +0.000 A 
ATOM     14  C   UNL     1       6.635   4.061  15.185  0.00  0.00    +0.000 A 
ATOM     15  C   UNL     1       5.565   4.744  14.606  0.00  0.00    +0.000 A 
ATOM     16  C   UNL     1       5.106   5.936  15.168  0.00  0.00    +0.000 A 
ATOM     17  C   UNL     1       5.709   6.444  16.320  0.00  0.00    +0.000 A 
ENDBRANCH  11  12
ENDBRANCH   2  11
TORSDOF 4
ENDMDL
MODEL 5
REMARK VINA RESULT:      -6.8      1.949      6.536
REMARK  Name = 
REMARK  4 active torsions:
REMARK  status: ('A' for Active; 'I' for Inactive)
REMARK    1  A    between atoms: C_2  and  C_3
REMARK    2  A    between atoms: C_2  and  O_11
REMARK    3  A    between atoms: C_4  and  C_5
REMARK    4  A    between atoms: O_11  and  C_12
REMARK                            x       y       z     vdW  Elec       q    Type
REMARK                         _______ _______ _______ _____ _____    ______ ____
ROOT
ATOM      1  O   UNL     1       5.092   6.862  15.686  0.00  0.00    +0.000 OA
ATOM      2  C   UNL     1       5.459   5.833  16.238  0.00  0.00    +0.000 C 
ENDROOT
BRANCH   2   3
ATOM      3  C   UNL     1       4.722   5.253  17.386  0.00  0.00    +0.000 C 
ATOM      4  C   UNL     1       3.388   5.086  17.419  0.00  0.00    +0.000 C 
BRANCH   4   5
ATOM      5  C   UNL     1       2.637   4.588  18.580  0.00  0.00    +0.000 A 
ATOM      6  C   UNL     1       1.654   3.608  18.371  0.00  0.00    +0.000 A 
ATOM      7  C   UNL     1       0.923   3.087  19.440  0.00  0.00    +0.000 A 
ATOM      8  C   UNL     1       1.170   3.533  20.735  0.00  0.00    +0.000 A 
ATOM      9  C   UNL     1       2.152   4.496  20.960  0.00  0.00    +0.000 A 
ATOM     10  C   UNL     1       2.885   5.016  19.890  0.00  0.00    +0.000 A 
ENDBRANCH   4   5
ENDBRANCH   2   3
BRANCH   2  11
ATOM     11  O   UNL     1       6.543   5.042  15.904  0.00  0.00    +0.000 OA
BRANCH  11  12
ATOM     12  C   UNL     1       6.769   4.672  14.564  0.00  0.00    +0.000 A 
ATOM     13  C   UNL     1       5.908   3.711  14.034  0.00  0.00    +0.000 A 
ATOM     14  C   UNL     1       5.972   3.408  12.673  0.00  0.00    +0.000 A 
ATOM     15  C   UNL     1       6.886   4.071  11.853  0.00  0.00    +0.000 A 
ATOM     16  C   UNL     1       7.746   5.029  12.393  0.00  0.00    +0.000 A 
ATOM     17  C   UNL     1       7.687   5.336  13.752  0.00  0.00    +0.000 A 
ENDBRANCH  11  12
ENDBRANCH   2  11
TORSDOF 4
ENDMDL
MODEL 6
REMARK VINA RESULT:      -6.8      1.475      6.224
REMARK  Name = 
REMARK  4 active torsions:
REMARK  status: ('A' for Active; 'I' for Inactive)
REMARK    1  A    between atoms: C_2  and  C_3
REMARK    2  A    between atoms: C_2  and  O_11
REMARK    3  A    between atoms: C_4  and  C_5
REMARK    4  A    between atoms: O_11  and  C_12
REMARK                            x       y       z     vdW  Elec       q    Type
REMARK                         _______ _______ _______ _____ _____    ______ ____
ROOT
ATOM      1  O   UNL     1       7.952   4.465  17.387  0.00  0.00    +0.000 OA
ATOM      2  C   UNL     1       6.832   4.730  16.973  0.00  0.00    +0.000 C 
ENDROOT
BRANCH   2   3
ATOM      3  C   UNL     1       5.608   4.320  17.703  0.00  0.00    +0.000 C 
ATOM      4  C   UNL     1       4.464   5.027  17.714  0.00  0.00    +0.000 C 
BRANCH   4   5
ATOM      5  C   UNL     1       3.272   4.675  18.498  0.00  0.00    +0.000 A 
ATOM      6  C   UNL     1       3.132   5.217  19.784  0.00  0.00    +0.000 A 
ATOM      7  C   UNL     1       2.011   4.930  20.565  0.00  0.00    +0.000 A 
ATOM      8  C   UNL     1       1.009   4.103  20.067  0.00  0.00    +0.000 A 
ATOM      9  C   UNL     1       1.127   3.567  18.786  0.00  0.00    +0.000 A 
ATOM     10  C   UNL     1       2.249   3.856  18.003  0.00  0.00    +0.000 A 
ENDBRANCH   4   5
ENDBRANCH   2   3
BRANCH   2  11
ATOM     11  O   UNL     1       6.504   5.445  15.834  0.00  0.00    +0.000 OA
BRANCH  11  12
ATOM     12  C   UNL     1       6.684   4.875  14.559  0.00  0.00    +0.000 A 
ATOM     13  C   UNL     1       5.725   3.944  14.158  0.00  0.00    +0.000 A 
ATOM     14  C   UNL     1       5.750   3.454  12.851  0.00  0.00    +0.000 A 
ATOM     15  C   UNL     1       6.722   3.902  11.956  0.00  0.00    +0.000 A 
ATOM     16  C   UNL     1       7.680   4.832  12.368  0.00  0.00    +0.000 A 
ATOM     17  C   UNL     1       7.660   5.325  13.673  0.00  0.00    +0.000 A 
ENDBRANCH  11  12
ENDBRANCH   2  11
TORSDOF 4
ENDMDL
MODEL 7
REMARK VINA RESULT:      -6.8      2.457      6.300
REMARK  Name = 
REMARK  4 active torsions:
REMARK  status: ('A' for Active; 'I' for Inactive)
REMARK    1  A    between atoms: C_2  and  C_3
REMARK    2  A    between atoms: C_2  and  O_11
REMARK    3  A    between atoms: C_4  and  C_5
REMARK    4  A    between atoms: O_11  and  C_12
REMARK                            x       y       z     vdW  Elec       q    Type
REMARK                         _______ _______ _______ _____ _____    ______ ____
ROOT
ATOM      1  O   UNL     1       4.934   4.239  14.795  0.00  0.00    +0.000 OA
ATOM      2  C   UNL     1       5.353   4.021  15.924  0.00  0.00    +0.000 C 
ENDROOT
BRANCH   2   3
ATOM      3  C   UNL     1       4.465   3.543  17.011  0.00  0.00    +0.000 C 
ATOM      4  C   UNL     1       3.719   4.350  17.786  0.00  0.00    +0.000 C 
BRANCH   4   5
ATOM      5  C   UNL     1       2.898   3.898  18.917  0.00  0.00    +0.000 A 
ATOM      6  C   UNL     1       3.526   3.210  19.967  0.00  0.00    +0.000 A 
ATOM      7  C   UNL     1       2.798   2.772  21.075  0.00  0.00    +0.000 A 
ATOM      8  C   UNL     1       1.431   3.025  21.153  0.00  0.00    +0.000 A 
ATOM      9  C   UNL     1       0.796   3.720  20.125  0.00  0.00    +0.000 A 
ATOM     10  C   UNL     1       1.526   4.158  19.016  0.00  0.00    +0.000 A 
ENDBRANCH   4   5
ENDBRANCH   2   3
BRANCH   2  11
ATOM     11  O   UNL     1       6.655   4.139  16.374  0.00  0.00    +0.000 OA
BRANCH  11  12
ATOM     12  C   UNL     1       7.047   5.253  17.142  0.00  0.00    +0.000 A 
ATOM     13  C   UNL     1       7.558   4.980  18.411  0.00  0.00    +0.000 A 
ATOM     14  C   UNL     1       8.107   6.016  19.167  0.00  0.00    +0.000 A 
ATOM     15  C   UNL     1       8.151   7.311  18.647  0.00  0.00    +0.000 A 
ATOM     16  C   UNL     1       7.634   7.575  17.377  0.00  0.00    +0.000 A 
ATOM     17  C   UNL     1       7.084   6.543  16.617  0.00  0.00    +0.000 A 
ENDBRANCH  11  12
ENDBRANCH   2  11
TORSDOF 4
ENDMDL
MODEL 8
REMARK VINA RESULT:      -6.8      1.496      6.092
REMARK  Name = 
REMARK  4 active torsions:
REMARK  status: ('A' for Active; 'I' for Inactive)
REMARK    1  A    between atoms: C_2  and  C_3
REMARK    2  A    between atoms: C_2  and  O_11
REMARK    3  A    between atoms: C_4  and  C_5
REMARK    4  A    between atoms: O_11  and  C_12
REMARK                            x       y       z     vdW  Elec       q    Type
REMARK                         _______ _______ _______ _____ _____    ______ ____
ROOT
ATOM      1  O   UNL     1       7.986   4.197  17.084  0.00  0.00    +0.000 OA
ATOM      2  C   UNL     1       6.931   4.776  16.863  0.00  0.00    +0.000 C 
ENDROOT
BRANCH   2   3
ATOM      3  C   UNL     1       5.795   4.726  17.814  0.00  0.00    +0.000 C 
ATOM      4  C   UNL     1       4.568   4.275  17.500  0.00  0.00    +0.000 C 
BRANCH   4   5
ATOM      5  C   UNL     1       3.412   4.296  18.407  0.00  0.00    +0.000 A 
ATOM      6  C   UNL     1       2.499   3.232  18.352  0.00  0.00    +0.000 A 
ATOM      7  C   UNL     1       1.393   3.192  19.204  0.00  0.00    +0.000 A 
ATOM      8  C   UNL     1       1.190   4.212  20.129  0.00  0.00    +0.000 A 
ATOM      9  C   UNL     1       2.095   5.267  20.206  0.00  0.00    +0.000 A 
ATOM     10  C   UNL     1       3.204   5.307  19.354  0.00  0.00    +0.000 A 
ENDBRANCH   4   5
ENDBRANCH   2   3
BRANCH   2  11
ATOM     11  O   UNL     1       6.619   5.565  15.771  0.00  0.00    +0.000 OA
BRANCH  11  12
ATOM     12  C   UNL     1       6.571   5.007  14.479  0.00  0.00    +0.000 A 
ATOM     13  C   UNL     1       7.611   5.356  13.616  0.00  0.00    +0.000 A 
ATOM     14  C   UNL     1       7.715   4.724  12.376  0.00  0.00    +0.000 A 
ATOM     15  C   UNL     1       6.788   3.745  12.012  0.00  0.00    +0.000 A 
ATOM     16  C   UNL     1       5.749   3.405  12.881  0.00  0.00    +0.000 A 
ATOM     17  C   UNL     1       5.640   4.033  14.122  0.00  0.00    +0.000 A 
ENDBRANCH  11  12
ENDBRANCH   2  11
TORSDOF 4
ENDMDL
MODEL 9
REMARK VINA RESULT:      -6.8      2.041      2.620
REMARK  Name = 
REMARK  4 active torsions:
REMARK  status: ('A' for Active; 'I' for Inactive)
REMARK    1  A    between atoms: C_2  and  C_3
REMARK    2  A    between atoms: C_2  and  O_11
REMARK    3  A    between atoms: C_4  and  C_5
REMARK    4  A    between atoms: O_11  and  C_12
REMARK                            x       y       z     vdW  Elec       q    Type
REMARK                         _______ _______ _______ _____ _____    ______ ____
ROOT
ATOM      1  O   UNL     1       4.661   5.854  18.619  0.00  0.00    +0.000 OA
ATOM      2  C   UNL     1       4.349   5.052  17.749  0.00  0.00    +0.000 C 
ENDROOT
BRANCH   2   3
ATOM      3  C   UNL     1       4.891   5.138  16.372  0.00  0.00    +0.000 C 
ATOM      4  C   UNL     1       5.453   4.107  15.717  0.00  0.00    +0.000 C 
BRANCH   4   5
ATOM      5  C   UNL     1       6.067   4.198  14.385  0.00  0.00    +0.000 A 
ATOM      6  C   UNL     1       7.178   5.039  14.216  0.00  0.00    +0.000 A 
ATOM      7  C   UNL     1       7.810   5.150  12.976  0.00  0.00    +0.000 A 
ATOM      8  C   UNL     1       7.346   4.415  11.889  0.00  0.00    +0.000 A 
ATOM      9  C   UNL     1       6.253   3.565  12.045  0.00  0.00    +0.000 A 
ATOM     10  C   UNL     1       5.620   3.453  13.287  0.00  0.00    +0.000 A 
ENDBRANCH   4   5
ENDBRANCH   2   3
BRANCH   2  11
ATOM     11  O   UNL     1       3.510   3.960  17.876  0.00  0.00    +0.000 OA
BRANCH  11  12
ATOM     12  C   UNL     1       2.869   3.691  19.101  0.00  0.00    +0.000 A 
ATOM     13  C   UNL     1       1.514   4.017  19.174  0.00  0.00    +0.000 A 
ATOM     14  C   UNL     1       0.778   3.639  20.298  0.00  0.00    +0.000 A 
ATOM     15  C   UNL     1       1.395   2.935  21.332  0.00  0.00    +0.000 A 
ATOM     16  C   UNL     1       2.752   2.616  21.251  0.00  0.00    +0.000 A 
ATOM     17  C   UNL     1       3.494   2.990  20.130  0.00  0.00    +0.000 A 
ENDBRANCH  11  12
ENDBRANCH   2  11
TORSDOF 4
ENDMDL
