MODEL 1
REMARK VINA RESULT:      -9.1      0.000      0.000
REMARK  Name = 
REMARK  7 active torsions:
REMARK  status: ('A' for Active; 'I' for Inactive)
REMARK    1  A    between atoms: C_1  and  C_2
REMARK    2  A    between atoms: C_2  and  N_3
REMARK    3  A    between atoms: C_2  and  C_25
REMARK    4  A    between atoms: N_3  and  C_4
REMARK    5  A    between atoms: C_6  and  C_7
REMARK    6  A    between atoms: C_14  and  C_15
REMARK    7  A    between atoms: C_18  and  C_19
REMARK                            x       y       z     vdW  Elec       q    Type
REMARK                         _______ _______ _______ _____ _____    ______ ____
ROOT
ATOM      1  C   UNL     1       2.034   6.160  20.765  0.00  0.00    +0.000 A 
ATOM      2  O   UNL     1       1.160   7.018  21.373  0.00  0.00    +0.000 OA
ATOM      3  C   UNL     1       1.237   8.165  20.627  0.00  0.00    +0.000 A 
ATOM      4  N   UNL     1       2.080   8.101  19.619  0.00  0.00    +0.000 NA
ATOM      5  C   UNL     1       2.610   6.834  19.702  0.00  0.00    +0.000 A 
ENDROOT
BRANCH   3   6
ATOM      6  C   UNL     1       0.400   9.294  21.015  0.00  0.00    +0.000 A 
ATOM      7  C   UNL     1       0.005  10.285  20.108  0.00  0.00    +0.000 A 
ATOM      8  C   UNL     1      -0.771  11.366  20.532  0.00  0.00    +0.000 A 
ATOM      9  C   UNL     1      -1.167  11.466  21.868  0.00  0.00    +0.000 A 
ATOM     10  C   UNL     1      -0.789  10.482  22.779  0.00  0.00    +0.000 A 
ATOM     11  C   UNL     1      -0.014   9.405  22.349  0.00  0.00    +0.000 A 
ENDBRANCH   3   6
BRANCH   5  12
ATOM     12  C   UNL     1       3.692   6.414  18.825  0.00  0.00    +0.000 A 
ATOM     13  C   UNL     1       3.707   6.697  17.454  0.00  0.00    +0.000 A 
ATOM     14  C   UNL     1       4.671   6.120  16.619  0.00  0.00    +0.000 A 
ATOM     15  C   UNL     1       5.636   5.245  17.137  0.00  0.00    +0.000 A 
ATOM     16  C   UNL     1       5.657   5.005  18.516  0.00  0.00    +0.000 A 
ATOM     17  C   UNL     1       4.695   5.584  19.347  0.00  0.00    +0.000 A 
BRANCH  15  18
ATOM     18  C   UNL     1       6.609   4.525  16.236  0.00  0.00    +0.000 C 
ATOM     19  F   UNL     1       7.768   4.170  16.858  0.00  0.00    +0.000 F 
ATOM     20  F   UNL     1       6.096   3.374  15.719  0.00  0.00    +0.000 F 
ATOM     21  F   UNL     1       6.981   5.282  15.165  0.00  0.00    +0.000 F 
ENDBRANCH  15  18
ENDBRANCH   5  12
BRANCH   1  22
ATOM     22  N   UNL     1       2.149   4.899  21.248  0.00  0.00    +0.000 N 
ATOM     23  H   UNL     1       3.098   4.615  21.487  0.00  0.00    +0.000 HD
BRANCH  22  25
ATOM     24  C   UNL     1       1.207   2.684  21.786  0.00  0.00    +0.000 C 
ATOM     25  C   UNL     1       1.348   3.790  20.732  0.00  0.00    +0.000 C 
BRANCH  25  26
ATOM     26  C   UNL     1       2.051   3.235  19.498  0.00  0.00    +0.000 A 
ATOM     27  C   UNL     1       1.664   3.642  18.212  0.00  0.00    +0.000 A 
ATOM     28  C   UNL     1       2.314   3.139  17.081  0.00  0.00    +0.000 A 
ATOM     29  C   UNL     1       3.359   2.227  17.221  0.00  0.00    +0.000 A 
ATOM     30  C   UNL     1       3.753   1.810  18.489  0.00  0.00    +0.000 A 
ATOM     31  C   UNL     1       3.103   2.309  19.620  0.00  0.00    +0.000 A 
ENDBRANCH  25  26
ENDBRANCH  22  25
ENDBRANCH   1  22
TORSDOF 6
ENDMDL
MODEL 2
REMARK VINA RESULT:      -9.0      0.256      1.123
REMARK  Name = 
REMARK  7 active torsions:
REMARK  status: ('A' for Active; 'I' for Inactive)
REMARK    1  A    between atoms: C_1  and  C_2
REMARK    2  A    between atoms: C_2  and  N_3
REMARK    3  A    between atoms: C_2  and  C_25
REMARK    4  A    between atoms: N_3  and  C_4
REMARK    5  A    between atoms: C_6  and  C_7
REMARK    6  A    between atoms: C_14  and  C_15
REMARK    7  A    between atoms: C_18  and  C_19
REMARK                            x       y       z     vdW  Elec       q    Type
REMARK                         _______ _______ _______ _____ _____    ______ ____
ROOT
ATOM      1  C   UNL     1       2.042   6.262  20.659  0.00  0.00    +0.000 A 
ATOM      2  O   UNL     1       1.164   7.141  21.230  0.00  0.00    +0.000 OA
ATOM      3  C   UNL     1       1.258   8.266  20.453  0.00  0.00    +0.000 A 
ATOM      4  N   UNL     1       2.116   8.170  19.461  0.00  0.00    +0.000 NA
ATOM      5  C   UNL     1       2.638   6.903  19.588  0.00  0.00    +0.000 A 
ENDROOT
BRANCH   3   6
ATOM      6  C   UNL     1       0.421   9.410  20.797  0.00  0.00    +0.000 A 
ATOM      7  C   UNL     1       0.261   9.855  22.115  0.00  0.00    +0.000 A 
ATOM      8  C   UNL     1      -0.576  10.936  22.402  0.00  0.00    +0.000 A 
ATOM      9  C   UNL     1      -1.258  11.590  21.372  0.00  0.00    +0.000 A 
ATOM     10  C   UNL     1      -1.100  11.163  20.056  0.00  0.00    +0.000 A 
ATOM     11  C   UNL     1      -0.263  10.083  19.777  0.00  0.00    +0.000 A 
ENDBRANCH   3   6
BRANCH   5  12
ATOM     12  C   UNL     1       3.731   6.454  18.739  0.00  0.00    +0.000 A 
ATOM     13  C   UNL     1       3.770   6.702  17.362  0.00  0.00    +0.000 A 
ATOM     14  C   UNL     1       4.744   6.096  16.558  0.00  0.00    +0.000 A 
ATOM     15  C   UNL     1       5.694   5.229  17.114  0.00  0.00    +0.000 A 
ATOM     16  C   UNL     1       5.691   5.025  18.499  0.00  0.00    +0.000 A 
ATOM     17  C   UNL     1       4.720   5.631  19.299  0.00  0.00    +0.000 A 
BRANCH  15  18
ATOM     18  C   UNL     1       6.677   4.480  16.248  0.00  0.00    +0.000 C 
ATOM     19  F   UNL     1       7.099   5.188  15.163  0.00  0.00    +0.000 F 
ATOM     20  F   UNL     1       7.805   4.121  16.921  0.00  0.00    +0.000 F 
ATOM     21  F   UNL     1       6.154   3.322  15.753  0.00  0.00    +0.000 F 
ENDBRANCH  15  18
ENDBRANCH   5  12
BRANCH   1  22
ATOM     22  N   UNL     1       2.143   5.015  21.179  0.00  0.00    +0.000 N 
ATOM     23  H   UNL     1       3.087   4.730  21.435  0.00  0.00    +0.000 HD
BRANCH  22  25
ATOM     24  C   UNL     1       1.196   2.813  21.764  0.00  0.00    +0.000 C 
ATOM     25  C   UNL     1       1.338   3.897  20.687  0.00  0.00    +0.000 C 
BRANCH  25  26
ATOM     26  C   UNL     1       2.038   3.315  19.464  0.00  0.00    +0.000 A 
ATOM     27  C   UNL     1       1.674   3.723  18.172  0.00  0.00    +0.000 A 
ATOM     28  C   UNL     1       2.321   3.195  17.051  0.00  0.00    +0.000 A 
ATOM     29  C   UNL     1       3.340   2.257  17.207  0.00  0.00    +0.000 A 
ATOM     30  C   UNL     1       3.712   1.839  18.482  0.00  0.00    +0.000 A 
ATOM     31  C   UNL     1       3.065   2.363  19.602  0.00  0.00    +0.000 A 
ENDBRANCH  25  26
ENDBRANCH  22  25
ENDBRANCH   1  22
TORSDOF 6
ENDMDL
MODEL 3
REMARK VINA RESULT:      -8.7      0.604      1.514
REMARK  Name = 
REMARK  7 active torsions:
REMARK  status: ('A' for Active; 'I' for Inactive)
REMARK    1  A    between atoms: C_1  and  C_2
REMARK    2  A    between atoms: C_2  and  N_3
REMARK    3  A    between atoms: C_2  and  C_25
REMARK    4  A    between atoms: N_3  and  C_4
REMARK    5  A    between atoms: C_6  and  C_7
REMARK    6  A    between atoms: C_14  and  C_15
REMARK    7  A    between atoms: C_18  and  C_19
REMARK                            x       y       z     vdW  Elec       q    Type
REMARK                         _______ _______ _______ _____ _____    ______ ____
ROOT
ATOM      1  C   UNL     1       2.088   5.994  20.740  0.00  0.00    +0.000 A 
ATOM      2  O   UNL     1       1.282   6.995  21.206  0.00  0.00    +0.000 OA
ATOM      3  C   UNL     1       1.437   8.007  20.296  0.00  0.00    +0.000 A 
ATOM      4  N   UNL     1       2.269   7.732  19.315  0.00  0.00    +0.000 NA
ATOM      5  C   UNL     1       2.707   6.457  19.592  0.00  0.00    +0.000 A 
ENDROOT
BRANCH   3   6
ATOM      6  C   UNL     1       0.686   9.240  20.505  0.00  0.00    +0.000 A 
ATOM      7  C   UNL     1       0.225   9.636  21.766  0.00  0.00    +0.000 A 
ATOM      8  C   UNL     1      -0.519  10.809  21.914  0.00  0.00    +0.000 A 
ATOM      9  C   UNL     1      -0.804  11.605  20.801  0.00  0.00    +0.000 A 
ATOM     10  C   UNL     1      -0.343  11.228  19.543  0.00  0.00    +0.000 A 
ATOM     11  C   UNL     1       0.399  10.055  19.402  0.00  0.00    +0.000 A 
ENDBRANCH   3   6
BRANCH   5  12
ATOM     12  C   UNL     1       3.752   5.833  18.795  0.00  0.00    +0.000 A 
ATOM     13  C   UNL     1       4.972   5.417  19.341  0.00  0.00    +0.000 A 
ATOM     14  C   UNL     1       6.016   4.993  18.509  0.00  0.00    +0.000 A 
ATOM     15  C   UNL     1       5.861   4.979  17.116  0.00  0.00    +0.000 A 
ATOM     16  C   UNL     1       4.622   5.341  16.572  0.00  0.00    +0.000 A 
ATOM     17  C   UNL     1       3.583   5.763  17.404  0.00  0.00    +0.000 A 
BRANCH  15  18
ATOM     18  C   UNL     1       7.010   4.634  16.201  0.00  0.00    +0.000 C 
ATOM     19  F   UNL     1       7.430   5.680  15.435  0.00  0.00    +0.000 F 
ATOM     20  F   UNL     1       8.110   4.200  16.876  0.00  0.00    +0.000 F 
ATOM     21  F   UNL     1       6.693   3.639  15.325  0.00  0.00    +0.000 F 
ENDBRANCH  15  18
ENDBRANCH   5  12
BRANCH   1  22
ATOM     22  N   UNL     1       2.114   4.816  21.409  0.00  0.00    +0.000 N 
ATOM     23  H   UNL     1       3.020   4.564  21.802  0.00  0.00    +0.000 HD
BRANCH  22  25
ATOM     24  C   UNL     1       1.161   2.652  22.111  0.00  0.00    +0.000 C 
ATOM     25  C   UNL     1       1.357   3.648  20.961  0.00  0.00    +0.000 C 
BRANCH  25  26
ATOM     26  C   UNL     1       2.139   2.983  19.834  0.00  0.00    +0.000 A 
ATOM     27  C   UNL     1       1.618   2.939  18.532  0.00  0.00    +0.000 A 
ATOM     28  C   UNL     1       2.338   2.336  17.497  0.00  0.00    +0.000 A 
ATOM     29  C   UNL     1       3.588   1.773  17.750  0.00  0.00    +0.000 A 
ATOM     30  C   UNL     1       4.119   1.804  19.037  0.00  0.00    +0.000 A 
ATOM     31  C   UNL     1       3.399   2.403  20.071  0.00  0.00    +0.000 A 
ENDBRANCH  25  26
ENDBRANCH  22  25
ENDBRANCH   1  22
TORSDOF 6
ENDMDL
MODEL 4
REMARK VINA RESULT:      -8.7      0.560      1.522
REMARK  Name = 
REMARK  7 active torsions:
REMARK  status: ('A' for Active; 'I' for Inactive)
REMARK    1  A    between atoms: C_1  and  C_2
REMARK    2  A    between atoms: C_2  and  N_3
REMARK    3  A    between atoms: C_2  and  C_25
REMARK    4  A    between atoms: N_3  and  C_4
REMARK    5  A    between atoms: C_6  and  C_7
REMARK    6  A    between atoms: C_14  and  C_15
REMARK    7  A    between atoms: C_18  and  C_19
REMARK                            x       y       z     vdW  Elec       q    Type
REMARK                         _______ _______ _______ _____ _____    ______ ____
ROOT
ATOM      1  C   UNL     1       2.098   6.017  20.752  0.00  0.00    +0.000 A 
ATOM      2  O   UNL     1       1.301   7.020  21.231  0.00  0.00    +0.000 OA
ATOM      3  C   UNL     1       1.456   8.038  20.327  0.00  0.00    +0.000 A 
ATOM      4  N   UNL     1       2.279   7.764  19.338  0.00  0.00    +0.000 NA
ATOM      5  C   UNL     1       2.710   6.484  19.603  0.00  0.00    +0.000 A 
ENDROOT
BRANCH   3   6
ATOM      6  C   UNL     1       0.714   9.273  20.549  0.00  0.00    +0.000 A 
ATOM      7  C   UNL     1       0.485  10.207  19.532  0.00  0.00    +0.000 A 
ATOM      8  C   UNL     1      -0.203  11.393  19.798  0.00  0.00    +0.000 A 
ATOM      9  C   UNL     1      -0.679  11.655  21.085  0.00  0.00    +0.000 A 
ATOM     10  C   UNL     1      -0.467  10.730  22.105  0.00  0.00    +0.000 A 
ATOM     11  C   UNL     1       0.222   9.549  21.832  0.00  0.00    +0.000 A 
ENDBRANCH   3   6
BRANCH   5  12
ATOM     12  C   UNL     1       3.746   5.859  18.794  0.00  0.00    +0.000 A 
ATOM     13  C   UNL     1       4.930   5.353  19.341  0.00  0.00    +0.000 A 
ATOM     14  C   UNL     1       5.974   4.929  18.509  0.00  0.00    +0.000 A 
ATOM     15  C   UNL     1       5.855   5.006  17.115  0.00  0.00    +0.000 A 
ATOM     16  C   UNL     1       4.649   5.459  16.565  0.00  0.00    +0.000 A 
ATOM     17  C   UNL     1       3.610   5.881  17.397  0.00  0.00    +0.000 A 
BRANCH  15  18
ATOM     18  C   UNL     1       7.010   4.661  16.206  0.00  0.00    +0.000 C 
ATOM     19  F   UNL     1       6.738   3.645  15.341  0.00  0.00    +0.000 F 
ATOM     20  F   UNL     1       7.406   5.712  15.436  0.00  0.00    +0.000 F 
ATOM     21  F   UNL     1       8.115   4.270  16.901  0.00  0.00    +0.000 F 
ENDBRANCH  15  18
ENDBRANCH   5  12
BRANCH   1  22
ATOM     22  N   UNL     1       2.121   4.834  21.412  0.00  0.00    +0.000 N 
ATOM     23  H   UNL     1       3.027   4.577  21.804  0.00  0.00    +0.000 HD
BRANCH  22  25
ATOM     24  C   UNL     1       1.170   2.664  22.099  0.00  0.00    +0.000 C 
ATOM     25  C   UNL     1       1.360   3.671  20.957  0.00  0.00    +0.000 C 
BRANCH  25  26
ATOM     26  C   UNL     1       2.136   3.017  19.819  0.00  0.00    +0.000 A 
ATOM     27  C   UNL     1       3.353   2.366  20.067  0.00  0.00    +0.000 A 
ATOM     28  C   UNL     1       4.060   1.759  19.024  0.00  0.00    +0.000 A 
ATOM     29  C   UNL     1       3.558   1.793  17.725  0.00  0.00    +0.000 A 
ATOM     30  C   UNL     1       2.352   2.438  17.461  0.00  0.00    +0.000 A 
ATOM     31  C   UNL     1       1.647   3.046  18.500  0.00  0.00    +0.000 A 
ENDBRANCH  25  26
ENDBRANCH  22  25
ENDBRANCH   1  22
TORSDOF 6
ENDMDL
MODEL 5
REMARK VINA RESULT:      -8.5      0.469      1.096
REMARK  Name = 
REMARK  7 active torsions:
REMARK  status: ('A' for Active; 'I' for Inactive)
REMARK    1  A    between atoms: C_1  and  C_2
REMARK    2  A    between atoms: C_2  and  N_3
REMARK    3  A    between atoms: C_2  and  C_25
REMARK    4  A    between atoms: N_3  and  C_4
REMARK    5  A    between atoms: C_6  and  C_7
REMARK    6  A    between atoms: C_14  and  C_15
REMARK    7  A    between atoms: C_18  and  C_19
REMARK                            x       y       z     vdW  Elec       q    Type
REMARK                         _______ _______ _______ _____ _____    ______ ____
ROOT
ATOM      1  C   UNL     1       1.971   6.094  20.823  0.00  0.00    +0.000 A 
ATOM      2  O   UNL     1       1.125   6.998  21.402  0.00  0.00    +0.000 OA
ATOM      3  C   UNL     1       1.220   8.110  20.606  0.00  0.00    +0.000 A 
ATOM      4  N   UNL     1       2.050   7.982  19.594  0.00  0.00    +0.000 NA
ATOM      5  C   UNL     1       2.551   6.707  19.727  0.00  0.00    +0.000 A 
ENDROOT
BRANCH   3   6
ATOM      6  C   UNL     1       0.415   9.274  20.954  0.00  0.00    +0.000 A 
ATOM      7  C   UNL     1      -0.105  10.145  19.989  0.00  0.00    +0.000 A 
ATOM      8  C   UNL     1      -0.844  11.267  20.370  0.00  0.00    +0.000 A 
ATOM      9  C   UNL     1      -1.080  11.528  21.722  0.00  0.00    +0.000 A 
ATOM     10  C   UNL     1      -0.577  10.665  22.692  0.00  0.00    +0.000 A 
ATOM     11  C   UNL     1       0.161   9.546  22.305  0.00  0.00    +0.000 A 
ENDBRANCH   3   6
BRANCH   5  12
ATOM     12  C   UNL     1       3.613   6.225  18.857  0.00  0.00    +0.000 A 
ATOM     13  C   UNL     1       4.727   5.528  19.340  0.00  0.00    +0.000 A 
ATOM     14  C   UNL     1       5.809   5.245  18.497  0.00  0.00    +0.000 A 
ATOM     15  C   UNL     1       5.800   5.655  17.157  0.00  0.00    +0.000 A 
ATOM     16  C   UNL     1       4.662   6.302  16.658  0.00  0.00    +0.000 A 
ATOM     17  C   UNL     1       3.584   6.582  17.501  0.00  0.00    +0.000 A 
BRANCH  15  18
ATOM     18  C   UNL     1       7.002   5.460  16.266  0.00  0.00    +0.000 C 
ATOM     19  F   UNL     1       7.840   6.534  16.237  0.00  0.00    +0.000 F 
ATOM     20  F   UNL     1       7.769   4.398  16.642  0.00  0.00    +0.000 F 
ATOM     21  F   UNL     1       6.653   5.228  14.969  0.00  0.00    +0.000 F 
ENDBRANCH  15  18
ENDBRANCH   5  12
BRANCH   1  22
ATOM     22  N   UNL     1       2.061   4.853  21.359  0.00  0.00    +0.000 N 
ATOM     23  H   UNL     1       2.991   4.590  21.683  0.00  0.00    +0.000 HD
BRANCH  22  25
ATOM     24  C   UNL     1       1.185   2.605  21.873  0.00  0.00    +0.000 C 
ATOM     25  C   UNL     1       1.316   3.714  20.822  0.00  0.00    +0.000 C 
BRANCH  25  26
ATOM     26  C   UNL     1       2.074   3.185  19.609  0.00  0.00    +0.000 A 
ATOM     27  C   UNL     1       1.634   3.475  18.309  0.00  0.00    +0.000 A 
ATOM     28  C   UNL     1       2.333   2.996  17.198  0.00  0.00    +0.000 A 
ATOM     29  C   UNL     1       3.482   2.225  17.372  0.00  0.00    +0.000 A 
ATOM     30  C   UNL     1       3.931   1.925  18.655  0.00  0.00    +0.000 A 
ATOM     31  C   UNL     1       3.232   2.401  19.766  0.00  0.00    +0.000 A 
ENDBRANCH  25  26
ENDBRANCH  22  25
ENDBRANCH   1  22
TORSDOF 6
ENDMDL
MODEL 6
REMARK VINA RESULT:      -8.5      0.470      1.372
REMARK  Name = 
REMARK  7 active torsions:
REMARK  status: ('A' for Active; 'I' for Inactive)
REMARK    1  A    between atoms: C_1  and  C_2
REMARK    2  A    between atoms: C_2  and  N_3
REMARK    3  A    between atoms: C_2  and  C_25
REMARK    4  A    between atoms: N_3  and  C_4
REMARK    5  A    between atoms: C_6  and  C_7
REMARK    6  A    between atoms: C_14  and  C_15
REMARK    7  A    between atoms: C_18  and  C_19
REMARK                            x       y       z     vdW  Elec       q    Type
REMARK                         _______ _______ _______ _____ _____    ______ ____
ROOT
ATOM      1  C   UNL     1       1.983   6.075  20.852  0.00  0.00    +0.000 A 
ATOM      2  O   UNL     1       1.151   6.973  21.461  0.00  0.00    +0.000 OA
ATOM      3  C   UNL     1       1.245   8.100  20.687  0.00  0.00    +0.000 A 
ATOM      4  N   UNL     1       2.061   7.988  19.662  0.00  0.00    +0.000 NA
ATOM      5  C   UNL     1       2.554   6.708  19.761  0.00  0.00    +0.000 A 
ENDROOT
BRANCH   3   6
ATOM      6  C   UNL     1       0.453   9.263  21.070  0.00  0.00    +0.000 A 
ATOM      7  C   UNL     1       0.056   9.502  22.391  0.00  0.00    +0.000 A 
ATOM      8  C   UNL     1      -0.729  10.613  22.707  0.00  0.00    +0.000 A 
ATOM      9  C   UNL     1      -1.122  11.504  21.705  0.00  0.00    +0.000 A 
ATOM     10  C   UNL     1      -0.726  11.284  20.388  0.00  0.00    +0.000 A 
ATOM     11  C   UNL     1       0.058  10.172  20.079  0.00  0.00    +0.000 A 
ENDBRANCH   3   6
BRANCH   5  12
ATOM     12  C   UNL     1       3.602   6.236  18.869  0.00  0.00    +0.000 A 
ATOM     13  C   UNL     1       4.683   5.466  19.312  0.00  0.00    +0.000 A 
ATOM     14  C   UNL     1       5.758   5.191  18.459  0.00  0.00    +0.000 A 
ATOM     15  C   UNL     1       5.775   5.682  17.146  0.00  0.00    +0.000 A 
ATOM     16  C   UNL     1       4.668   6.404  16.682  0.00  0.00    +0.000 A 
ATOM     17  C   UNL     1       3.596   6.676  17.536  0.00  0.00    +0.000 A 
BRANCH  15  18
ATOM     18  C   UNL     1       6.974   5.492  16.250  0.00  0.00    +0.000 C 
ATOM     19  F   UNL     1       7.738   4.414  16.582  0.00  0.00    +0.000 F 
ATOM     20  F   UNL     1       6.633   5.320  14.943  0.00  0.00    +0.000 F 
ATOM     21  F   UNL     1       7.816   6.564  16.278  0.00  0.00    +0.000 F 
ENDBRANCH  15  18
ENDBRANCH   5  12
BRANCH   1  22
ATOM     22  N   UNL     1       2.071   4.822  21.360  0.00  0.00    +0.000 N 
ATOM     23  H   UNL     1       3.006   4.540  21.652  0.00  0.00    +0.000 HD
BRANCH  22  25
ATOM     24  C   UNL     1       1.172   2.579  21.857  0.00  0.00    +0.000 C 
ATOM     25  C   UNL     1       1.295   3.705  20.822  0.00  0.00    +0.000 C 
BRANCH  25  26
ATOM     26  C   UNL     1       2.013   3.186  19.582  0.00  0.00    +0.000 A 
ATOM     27  C   UNL     1       1.592   3.569  18.300  0.00  0.00    +0.000 A 
ATOM     28  C   UNL     1       2.256   3.099  17.163  0.00  0.00    +0.000 A 
ATOM     29  C   UNL     1       3.349   2.244  17.294  0.00  0.00    +0.000 A 
ATOM     30  C   UNL     1       3.778   1.850  18.558  0.00  0.00    +0.000 A 
ATOM     31  C   UNL     1       3.114   2.317  19.694  0.00  0.00    +0.000 A 
ENDBRANCH  25  26
ENDBRANCH  22  25
ENDBRANCH   1  22
TORSDOF 6
ENDMDL
MODEL 7
REMARK VINA RESULT:      -8.1      3.848      7.434
REMARK  Name = 
REMARK  7 active torsions:
REMARK  status: ('A' for Active; 'I' for Inactive)
REMARK    1  A    between atoms: C_1  and  C_2
REMARK    2  A    between atoms: C_2  and  N_3
REMARK    3  A    between atoms: C_2  and  C_25
REMARK    4  A    between atoms: N_3  and  C_4
REMARK    5  A    between atoms: C_6  and  C_7
REMARK    6  A    between atoms: C_14  and  C_15
REMARK    7  A    between atoms: C_18  and  C_19
REMARK                            x       y       z     vdW  Elec       q    Type
REMARK                         _______ _______ _______ _____ _____    ______ ____
ROOT
ATOM      1  C   UNL     1       5.092   4.194  17.782  0.00  0.00    +0.000 A 
ATOM      2  O   UNL     1       5.797   3.771  16.690  0.00  0.00    +0.000 OA
ATOM      3  C   UNL     1       5.575   4.741  15.747  0.00  0.00    +0.000 A 
ATOM      4  N   UNL     1       4.794   5.720  16.149  0.00  0.00    +0.000 NA
ATOM      5  C   UNL     1       4.463   5.378  17.440  0.00  0.00    +0.000 A 
ENDROOT
BRANCH   3   6
ATOM      6  C   UNL     1       6.211   4.590  14.444  0.00  0.00    +0.000 A 
ATOM      7  C   UNL     1       7.350   5.315  14.073  0.00  0.00    +0.000 A 
ATOM      8  C   UNL     1       7.907   5.161  12.802  0.00  0.00    +0.000 A 
ATOM      9  C   UNL     1       7.335   4.273  11.887  0.00  0.00    +0.000 A 
ATOM     10  C   UNL     1       6.208   3.538  12.246  0.00  0.00    +0.000 A 
ATOM     11  C   UNL     1       5.657   3.697  13.517  0.00  0.00    +0.000 A 
ENDBRANCH   3   6
BRANCH   5  12
ATOM     12  C   UNL     1       3.495   6.157  18.198  0.00  0.00    +0.000 A 
ATOM     13  C   UNL     1       3.001   7.388  17.752  0.00  0.00    +0.000 A 
ATOM     14  C   UNL     1       2.216   8.187  18.593  0.00  0.00    +0.000 A 
ATOM     15  C   UNL     1       1.913   7.771  19.897  0.00  0.00    +0.000 A 
ATOM     16  C   UNL     1       2.359   6.515  20.325  0.00  0.00    +0.000 A 
ATOM     17  C   UNL     1       3.141   5.720  19.484  0.00  0.00    +0.000 A 
BRANCH  15  18
ATOM     18  C   UNL     1       1.166   8.667  20.855  0.00  0.00    +0.000 C 
ATOM     19  F   UNL     1       0.898   9.903  20.348  0.00  0.00    +0.000 F 
ATOM     20  F   UNL     1      -0.036   8.149  21.232  0.00  0.00    +0.000 F 
ATOM     21  F   UNL     1       1.858   8.883  22.009  0.00  0.00    +0.000 F 
ENDBRANCH  15  18
ENDBRANCH   5  12
BRANCH   1  22
ATOM     22  N   UNL     1       5.153   3.460  18.919  0.00  0.00    +0.000 N 
ATOM     23  H   UNL     1       6.065   3.444  19.374  0.00  0.00    +0.000 HD
BRANCH  22  25
ATOM     24  C   UNL     1       4.176   1.547  17.706  0.00  0.00    +0.000 C 
ATOM     25  C   UNL     1       4.433   2.196  19.072  0.00  0.00    +0.000 C 
BRANCH  25  26
ATOM     26  C   UNL     1       3.103   2.491  19.757  0.00  0.00    +0.000 A 
ATOM     27  C   UNL     1       3.036   2.645  21.150  0.00  0.00    +0.000 A 
ATOM     28  C   UNL     1       1.818   2.923  21.777  0.00  0.00    +0.000 A 
ATOM     29  C   UNL     1       0.655   3.054  21.020  0.00  0.00    +0.000 A 
ATOM     30  C   UNL     1       0.702   2.902  19.637  0.00  0.00    +0.000 A 
ATOM     31  C   UNL     1       1.918   2.621  19.010  0.00  0.00    +0.000 A 
ENDBRANCH  25  26
ENDBRANCH  22  25
ENDBRANCH   1  22
TORSDOF 6
ENDMDL
MODEL 8
REMARK VINA RESULT:      -8.0      3.851      7.391
REMARK  Name = 
REMARK  7 active torsions:
REMARK  status: ('A' for Active; 'I' for Inactive)
REMARK    1  A    between atoms: C_1  and  C_2
REMARK    2  A    between atoms: C_2  and  N_3
REMARK    3  A    between atoms: C_2  and  C_25
REMARK    4  A    between atoms: N_3  and  C_4
REMARK    5  A    between atoms: C_6  and  C_7
REMARK    6  A    between atoms: C_14  and  C_15
REMARK    7  A    between atoms: C_18  and  C_19
REMARK                            x       y       z     vdW  Elec       q    Type
REMARK                         _______ _______ _______ _____ _____    ______ ____
ROOT
ATOM      1  C   UNL     1       5.111   4.214  17.798  0.00  0.00    +0.000 A 
ATOM      2  O   UNL     1       5.816   3.789  16.706  0.00  0.00    +0.000 OA
ATOM      3  C   UNL     1       5.583   4.749  15.757  0.00  0.00    +0.000 A 
ATOM      4  N   UNL     1       4.793   5.724  16.154  0.00  0.00    +0.000 NA
ATOM      5  C   UNL     1       4.469   5.389  17.449  0.00  0.00    +0.000 A 
ENDROOT
BRANCH   3   6
ATOM      6  C   UNL     1       6.216   4.594  14.453  0.00  0.00    +0.000 A 
ATOM      7  C   UNL     1       7.344   5.330  14.072  0.00  0.00    +0.000 A 
ATOM      8  C   UNL     1       7.898   5.172  12.799  0.00  0.00    +0.000 A 
ATOM      9  C   UNL     1       7.335   4.269  11.895  0.00  0.00    +0.000 A 
ATOM     10  C   UNL     1       6.218   3.523  12.264  0.00  0.00    +0.000 A 
ATOM     11  C   UNL     1       5.669   3.687  13.536  0.00  0.00    +0.000 A 
ENDBRANCH   3   6
BRANCH   5  12
ATOM     12  C   UNL     1       3.496   6.165  18.203  0.00  0.00    +0.000 A 
ATOM     13  C   UNL     1       3.015   7.404  17.766  0.00  0.00    +0.000 A 
ATOM     14  C   UNL     1       2.224   8.197  18.607  0.00  0.00    +0.000 A 
ATOM     15  C   UNL     1       1.902   7.768  19.902  0.00  0.00    +0.000 A 
ATOM     16  C   UNL     1       2.336   6.504  20.320  0.00  0.00    +0.000 A 
ATOM     17  C   UNL     1       3.124   5.715  19.479  0.00  0.00    +0.000 A 
BRANCH  15  18
ATOM     18  C   UNL     1       1.149   8.657  20.861  0.00  0.00    +0.000 C 
ATOM     19  F   UNL     1       1.873   9.015  21.957  0.00  0.00    +0.000 F 
ATOM     20  F   UNL     1       0.739   9.822  20.287  0.00  0.00    +0.000 F 
ATOM     21  F   UNL     1       0.021   8.061  21.341  0.00  0.00    +0.000 F 
ENDBRANCH  15  18
ENDBRANCH   5  12
BRANCH   1  22
ATOM     22  N   UNL     1       5.182   3.489  18.940  0.00  0.00    +0.000 N 
ATOM     23  H   UNL     1       6.096   3.485  19.391  0.00  0.00    +0.000 HD
BRANCH  22  25
ATOM     24  C   UNL     1       4.261   1.535  17.749  0.00  0.00    +0.000 C 
ATOM     25  C   UNL     1       4.475   2.220  19.105  0.00  0.00    +0.000 C 
BRANCH  25  26
ATOM     26  C   UNL     1       3.124   2.513  19.749  0.00  0.00    +0.000 A 
ATOM     27  C   UNL     1       1.962   2.592  18.968  0.00  0.00    +0.000 A 
ATOM     28  C   UNL     1       0.723   2.853  19.560  0.00  0.00    +0.000 A 
ATOM     29  C   UNL     1       0.631   3.037  20.939  0.00  0.00    +0.000 A 
ATOM     30  C   UNL     1       1.775   2.966  21.729  0.00  0.00    +0.000 A 
ATOM     31  C   UNL     1       3.013   2.707  21.139  0.00  0.00    +0.000 A 
ENDBRANCH  25  26
ENDBRANCH  22  25
ENDBRANCH   1  22
TORSDOF 6
ENDMDL
MODEL 9
REMARK VINA RESULT:      -8.0      3.858      7.444
REMARK  Name = 
REMARK  7 active torsions:
REMARK  status: ('A' for Active; 'I' for Inactive)
REMARK    1  A    between atoms: C_1  and  C_2
REMARK    2  A    between atoms: C_2  and  N_3
REMARK    3  A    between atoms: C_2  and  C_25
REMARK    4  A    between atoms: N_3  and  C_4
REMARK    5  A    between atoms: C_6  and  C_7
REMARK    6  A    between atoms: C_14  and  C_15
REMARK    7  A    between atoms: C_18  and  C_19
REMARK                            x       y       z     vdW  Elec       q    Type
REMARK                         _______ _______ _______ _____ _____    ______ ____
ROOT
ATOM      1  C   UNL     1       5.130   4.083  17.750  0.00  0.00    +0.000 A 
ATOM      2  O   UNL     1       5.694   3.608  16.598  0.00  0.00    +0.000 OA
ATOM      3  C   UNL     1       5.530   4.626  15.696  0.00  0.00    +0.000 A 
ATOM      4  N   UNL     1       4.911   5.683  16.177  0.00  0.00    +0.000 NA
ATOM      5  C   UNL     1       4.634   5.346  17.482  0.00  0.00    +0.000 A 
ENDROOT
BRANCH   3   6
ATOM      6  C   UNL     1       6.045   4.436  14.345  0.00  0.00    +0.000 A 
ATOM      7  C   UNL     1       5.440   3.572  13.424  0.00  0.00    +0.000 A 
ATOM      8  C   UNL     1       5.987   3.397  12.151  0.00  0.00    +0.000 A 
ATOM      9  C   UNL     1       7.141   4.091  11.780  0.00  0.00    +0.000 A 
ATOM     10  C   UNL     1       7.747   4.961  12.683  0.00  0.00    +0.000 A 
ATOM     11  C   UNL     1       7.197   5.130  13.953  0.00  0.00    +0.000 A 
ENDBRANCH   3   6
BRANCH   5  12
ATOM     12  C   UNL     1       3.831   6.217  18.327  0.00  0.00    +0.000 A 
ATOM     13  C   UNL     1       3.432   5.859  19.619  0.00  0.00    +0.000 A 
ATOM     14  C   UNL     1       2.511   6.645  20.324  0.00  0.00    +0.000 A 
ATOM     15  C   UNL     1       1.969   7.801  19.748  0.00  0.00    +0.000 A 
ATOM     16  C   UNL     1       2.410   8.193  18.477  0.00  0.00    +0.000 A 
ATOM     17  C   UNL     1       3.329   7.407  17.778  0.00  0.00    +0.000 A 
BRANCH  15  18
ATOM     18  C   UNL     1       0.892   8.597  20.445  0.00  0.00    +0.000 C 
ATOM     19  F   UNL     1       1.376   9.517  21.324  0.00  0.00    +0.000 F 
ATOM     20  F   UNL     1       0.103   9.288  19.577  0.00  0.00    +0.000 F 
ATOM     21  F   UNL     1       0.049   7.805  21.166  0.00  0.00    +0.000 F 
ENDBRANCH  15  18
ENDBRANCH   5  12
BRANCH   1  22
ATOM     22  N   UNL     1       5.180   3.312  18.864  0.00  0.00    +0.000 N 
ATOM     23  H   UNL     1       6.106   3.209  19.275  0.00  0.00    +0.000 HD
BRANCH  22  25
ATOM     24  C   UNL     1       4.091   1.459  17.653  0.00  0.00    +0.000 C 
ATOM     25  C   UNL     1       4.365   2.107  19.016  0.00  0.00    +0.000 C 
BRANCH  25  26
ATOM     26  C   UNL     1       3.045   2.510  19.666  0.00  0.00    +0.000 A 
ATOM     27  C   UNL     1       1.894   2.701  18.888  0.00  0.00    +0.000 A 
ATOM     28  C   UNL     1       0.683   3.063  19.486  0.00  0.00    +0.000 A 
ATOM     29  C   UNL     1       0.608   3.234  20.867  0.00  0.00    +0.000 A 
ATOM     30  C   UNL     1       1.742   3.052  21.654  0.00  0.00    +0.000 A 
ATOM     31  C   UNL     1       2.952   2.694  21.058  0.00  0.00    +0.000 A 
ENDBRANCH  25  26
ENDBRANCH  22  25
ENDBRANCH   1  22
TORSDOF 6
ENDMDL
