MODEL 1
REMARK VINA RESULT:      -9.2      0.000      0.000
REMARK  Name = 
REMARK  6 active torsions:
REMARK  status: ('A' for Active; 'I' for Inactive)
REMARK    1  A    between atoms: C_2  and  C_13
REMARK    2  A    between atoms: N_3  and  N_4
REMARK    3  A    between atoms: C_5  and  C_6
REMARK    4  A    between atoms: C_11  and  O_12
REMARK    5  A    between atoms: C_17  and  S_18
REMARK    6  A    between atoms: S_18  and  N_21
REMARK                            x       y       z     vdW  Elec       q    Type
REMARK                         _______ _______ _______ _____ _____    ______ ____
ROOT
ATOM      1  C   UNL     1       6.773   5.928  17.472  0.00  0.00    +0.000 A 
ATOM      2  C   UNL     1       6.672   5.851  16.078  0.00  0.00    +0.000 A 
ATOM      3  C   UNL     1       5.797   4.927  15.496  0.00  0.00    +0.000 A 
ATOM      4  C   UNL     1       5.026   4.086  16.302  0.00  0.00    +0.000 A 
ATOM      5  C   UNL     1       5.129   4.157  17.700  0.00  0.00    +0.000 A 
ATOM      6  C   UNL     1       6.006   5.071  18.285  0.00  0.00    +0.000 A 
ENDROOT
BRANCH   1   8
ATOM      7  O   UNL     1       8.332   6.451  19.121  0.00  0.00    +0.000 OA
ATOM      8  C   UNL     1       7.707   6.872  18.154  0.00  0.00    +0.000 C 
ATOM      9  N   UNL     1       7.761   8.169  17.663  0.00  0.00    +0.000 N 
ATOM     10  H   UNL     1       7.150   8.490  16.924  0.00  0.00    +0.000 HD
BRANCH   9  11
ATOM     11  N   UNL     1       8.533   9.084  18.333  0.00  0.00    +0.000 NA
ATOM     12  C   UNL     1       8.556  10.291  17.864  0.00  0.00    +0.000 C 
BRANCH  12  13
ATOM     13  C   UNL     1       9.346  11.359  18.525  0.00  0.00    +0.000 A 
ATOM     14  C   UNL     1      10.228  11.037  19.565  0.00  0.00    +0.000 A 
ATOM     15  C   UNL     1      10.983  12.037  20.183  0.00  0.00    +0.000 A 
ATOM     16  C   UNL     1      10.860  13.363  19.768  0.00  0.00    +0.000 A 
ATOM     17  C   UNL     1       9.981  13.696  18.738  0.00  0.00    +0.000 A 
ATOM     18  C   UNL     1       9.226  12.692  18.117  0.00  0.00    +0.000 A 
BRANCH  18  19
ATOM     19  O   UNL     1       8.372  13.024  17.100  0.00  0.00    +0.000 OA
ATOM     20  H   UNL     1       8.824  12.875  16.252  0.00  0.00    +0.000 HD
ENDBRANCH  18  19
ENDBRANCH  12  13
ENDBRANCH   9  11
ENDBRANCH   1   8
BRANCH   5  21
ATOM     21  S   UNL     1       4.039   3.117  18.654  0.00  0.00    +0.000 S 
ATOM     22  O   UNL     1       3.516   2.150  17.717  0.00  0.00    +0.000 OA
ATOM     23  O   UNL     1       4.776   2.700  19.826  0.00  0.00    +0.000 OA
BRANCH  21  24
ATOM     24  N   UNL     1       2.738   4.095  19.165  0.00  0.00    +0.000 NA
ATOM     25  C   UNL     1       2.718   4.524  20.601  0.00  0.00    +0.000 C 
ATOM     26  C   UNL     1       2.147   3.432  21.520  0.00  0.00    +0.000 C 
ATOM     27  O   UNL     1       0.856   2.977  21.087  0.00  0.00    +0.000 OA
ATOM     28  C   UNL     1       0.881   2.514  19.729  0.00  0.00    +0.000 C 
ATOM     29  C   UNL     1       1.372   3.609  18.780  0.00  0.00    +0.000 C 
ENDBRANCH  21  24
ENDBRANCH   5  21
TORSDOF 6
ENDMDL
MODEL 2
REMARK VINA RESULT:      -9.0      1.142      1.388
REMARK  Name = 
REMARK  6 active torsions:
REMARK  status: ('A' for Active; 'I' for Inactive)
REMARK    1  A    between atoms: C_2  and  C_13
REMARK    2  A    between atoms: N_3  and  N_4
REMARK    3  A    between atoms: C_5  and  C_6
REMARK    4  A    between atoms: C_11  and  O_12
REMARK    5  A    between atoms: C_17  and  S_18
REMARK    6  A    between atoms: S_18  and  N_21
REMARK                            x       y       z     vdW  Elec       q    Type
REMARK                         _______ _______ _______ _____ _____    ______ ____
ROOT
ATOM      1  C   UNL     1       6.663   5.672  17.611  0.00  0.00    +0.000 A 
ATOM      2  C   UNL     1       6.571   5.715  16.215  0.00  0.00    +0.000 A 
ATOM      3  C   UNL     1       5.648   4.898  15.554  0.00  0.00    +0.000 A 
ATOM      4  C   UNL     1       4.818   4.044  16.285  0.00  0.00    +0.000 A 
ATOM      5  C   UNL     1       4.911   3.994  17.684  0.00  0.00    +0.000 A 
ATOM      6  C   UNL     1       5.836   4.801  18.347  0.00  0.00    +0.000 A 
ENDROOT
BRANCH   1   8
ATOM      7  O   UNL     1       8.079   6.036  19.423  0.00  0.00    +0.000 OA
ATOM      8  C   UNL     1       7.646   6.497  18.373  0.00  0.00    +0.000 C 
ATOM      9  N   UNL     1       7.959   7.745  17.851  0.00  0.00    +0.000 N 
ATOM     10  H   UNL     1       7.496   8.117  17.032  0.00  0.00    +0.000 HD
BRANCH   9  11
ATOM     11  N   UNL     1       8.779   8.566  18.582  0.00  0.00    +0.000 NA
ATOM     12  C   UNL     1       8.703   9.837  18.347  0.00  0.00    +0.000 C 
BRANCH  12  13
ATOM     13  C   UNL     1       9.535  10.810  19.095  0.00  0.00    +0.000 A 
ATOM     14  C   UNL     1       9.266  11.070  20.445  0.00  0.00    +0.000 A 
ATOM     15  C   UNL     1      10.055  11.978  21.158  0.00  0.00    +0.000 A 
ATOM     16  C   UNL     1      11.112  12.631  20.527  0.00  0.00    +0.000 A 
ATOM     17  C   UNL     1      11.387  12.384  19.182  0.00  0.00    +0.000 A 
ATOM     18  C   UNL     1      10.597  11.472  18.469  0.00  0.00    +0.000 A 
BRANCH  18  19
ATOM     19  O   UNL     1      10.877  11.227  17.151  0.00  0.00    +0.000 OA
ATOM     20  H   UNL     1      11.219  12.044  16.748  0.00  0.00    +0.000 HD
ENDBRANCH  18  19
ENDBRANCH  12  13
ENDBRANCH   9  11
ENDBRANCH   1   8
BRANCH   5  21
ATOM     21  S   UNL     1       3.749   2.950  18.545  0.00  0.00    +0.000 S 
ATOM     22  O   UNL     1       3.653   1.747  17.748  0.00  0.00    +0.000 OA
ATOM     23  O   UNL     1       4.172   2.900  19.926  0.00  0.00    +0.000 OA
BRANCH  21  24
ATOM     24  N   UNL     1       2.234   3.732  18.480  0.00  0.00    +0.000 NA
ATOM     25  C   UNL     1       2.232   5.227  18.375  0.00  0.00    +0.000 C 
ATOM     26  C   UNL     1       2.426   5.900  19.744  0.00  0.00    +0.000 C 
ATOM     27  O   UNL     1       1.477   5.438  20.717  0.00  0.00    +0.000 OA
ATOM     28  C   UNL     1       1.512   4.011  20.861  0.00  0.00    +0.000 C 
ATOM     29  C   UNL     1       1.244   3.314  19.526  0.00  0.00    +0.000 C 
ENDBRANCH  21  24
ENDBRANCH   5  21
TORSDOF 6
ENDMDL
MODEL 3
REMARK VINA RESULT:      -8.9      1.243      1.458
REMARK  Name = 
REMARK  6 active torsions:
REMARK  status: ('A' for Active; 'I' for Inactive)
REMARK    1  A    between atoms: C_2  and  C_13
REMARK    2  A    between atoms: N_3  and  N_4
REMARK    3  A    between atoms: C_5  and  C_6
REMARK    4  A    between atoms: C_11  and  O_12
REMARK    5  A    between atoms: C_17  and  S_18
REMARK    6  A    between atoms: S_18  and  N_21
REMARK                            x       y       z     vdW  Elec       q    Type
REMARK                         _______ _______ _______ _____ _____    ______ ____
ROOT
ATOM      1  C   UNL     1       6.617   6.121  17.213  0.00  0.00    +0.000 A 
ATOM      2  C   UNL     1       6.893   5.470  16.005  0.00  0.00    +0.000 A 
ATOM      3  C   UNL     1       5.926   4.642  15.426  0.00  0.00    +0.000 A 
ATOM      4  C   UNL     1       4.688   4.466  16.048  0.00  0.00    +0.000 A 
ATOM      5  C   UNL     1       4.410   5.113  17.263  0.00  0.00    +0.000 A 
ATOM      6  C   UNL     1       5.374   5.933  17.849  0.00  0.00    +0.000 A 
ENDROOT
BRANCH   1   8
ATOM      7  O   UNL     1       8.258   6.507  18.820  0.00  0.00    +0.000 OA
ATOM      8  C   UNL     1       7.615   6.995  17.897  0.00  0.00    +0.000 C 
ATOM      9  N   UNL     1       7.705   8.309  17.460  0.00  0.00    +0.000 N 
ATOM     10  H   UNL     1       7.081   8.686  16.759  0.00  0.00    +0.000 HD
BRANCH   9  11
ATOM     11  N   UNL     1       8.539   9.161  18.136  0.00  0.00    +0.000 NA
ATOM     12  C   UNL     1       8.460  10.420  17.844  0.00  0.00    +0.000 C 
BRANCH  12  13
ATOM     13  C   UNL     1       9.306  11.427  18.531  0.00  0.00    +0.000 A 
ATOM     14  C   UNL     1      10.146  11.036  19.582  0.00  0.00    +0.000 A 
ATOM     15  C   UNL     1      10.954  11.977  20.225  0.00  0.00    +0.000 A 
ATOM     16  C   UNL     1      10.926  13.313  19.824  0.00  0.00    +0.000 A 
ATOM     17  C   UNL     1      10.090  13.714  18.782  0.00  0.00    +0.000 A 
ATOM     18  C   UNL     1       9.282  12.769  18.136  0.00  0.00    +0.000 A 
BRANCH  18  19
ATOM     19  O   UNL     1       8.470  13.168  17.108  0.00  0.00    +0.000 OA
ATOM     20  H   UNL     1       8.672  12.629  16.324  0.00  0.00    +0.000 HD
ENDBRANCH  18  19
ENDBRANCH  12  13
ENDBRANCH   9  11
ENDBRANCH   1   8
BRANCH   5  21
ATOM     21  S   UNL     1       2.772   4.911  17.940  0.00  0.00    +0.000 S 
ATOM     22  O   UNL     1       2.170   6.224  17.882  0.00  0.00    +0.000 OA
ATOM     23  O   UNL     1       2.173   3.783  17.262  0.00  0.00    +0.000 OA
BRANCH  21  24
ATOM     24  N   UNL     1       2.960   4.503  19.585  0.00  0.00    +0.000 NA
ATOM     25  C   UNL     1       3.456   3.125  19.903  0.00  0.00    +0.000 C 
ATOM     26  C   UNL     1       2.326   2.083  19.861  0.00  0.00    +0.000 C 
ATOM     27  O   UNL     1       1.216   2.449  20.695  0.00  0.00    +0.000 OA
ATOM     28  C   UNL     1       0.702   3.746  20.359  0.00  0.00    +0.000 C 
ATOM     29  C   UNL     1       1.789   4.817  20.469  0.00  0.00    +0.000 C 
ENDBRANCH  21  24
ENDBRANCH   5  21
TORSDOF 6
ENDMDL
MODEL 4
REMARK VINA RESULT:      -8.9      1.267      1.678
REMARK  Name = 
REMARK  6 active torsions:
REMARK  status: ('A' for Active; 'I' for Inactive)
REMARK    1  A    between atoms: C_2  and  C_13
REMARK    2  A    between atoms: N_3  and  N_4
REMARK    3  A    between atoms: C_5  and  C_6
REMARK    4  A    between atoms: C_11  and  O_12
REMARK    5  A    between atoms: C_17  and  S_18
REMARK    6  A    between atoms: S_18  and  N_21
REMARK                            x       y       z     vdW  Elec       q    Type
REMARK                         _______ _______ _______ _____ _____    ______ ____
ROOT
ATOM      1  C   UNL     1       6.579   5.770  17.481  0.00  0.00    +0.000 A 
ATOM      2  C   UNL     1       6.445   5.788  16.088  0.00  0.00    +0.000 A 
ATOM      3  C   UNL     1       5.508   4.954  15.469  0.00  0.00    +0.000 A 
ATOM      4  C   UNL     1       4.707   4.107  16.239  0.00  0.00    +0.000 A 
ATOM      5  C   UNL     1       4.842   4.083  17.636  0.00  0.00    +0.000 A 
ATOM      6  C   UNL     1       5.781   4.907  18.256  0.00  0.00    +0.000 A 
ENDROOT
BRANCH   1   8
ATOM      7  O   UNL     1       8.111   6.140  19.196  0.00  0.00    +0.000 OA
ATOM      8  C   UNL     1       7.579   6.615  18.199  0.00  0.00    +0.000 C 
ATOM      9  N   UNL     1       7.796   7.893  17.702  0.00  0.00    +0.000 N 
ATOM     10  H   UNL     1       7.257   8.269  16.933  0.00  0.00    +0.000 HD
BRANCH   9  11
ATOM     11  N   UNL     1       8.632   8.726  18.400  0.00  0.00    +0.000 NA
ATOM     12  C   UNL     1       8.681   9.964  18.022  0.00  0.00    +0.000 C 
BRANCH  12  13
ATOM     13  C   UNL     1       9.540  10.950  18.722  0.00  0.00    +0.000 A 
ATOM     14  C   UNL     1      10.282  11.881  17.983  0.00  0.00    +0.000 A 
ATOM     15  C   UNL     1      11.084  12.820  18.638  0.00  0.00    +0.000 A 
ATOM     16  C   UNL     1      11.151  12.834  20.030  0.00  0.00    +0.000 A 
ATOM     17  C   UNL     1      10.420  11.909  20.776  0.00  0.00    +0.000 A 
ATOM     18  C   UNL     1       9.614  10.969  20.119  0.00  0.00    +0.000 A 
BRANCH  18  19
ATOM     19  O   UNL     1       8.892  10.069  20.856  0.00  0.00    +0.000 OA
ATOM     20  H   UNL     1       8.564  10.514  21.656  0.00  0.00    +0.000 HD
ENDBRANCH  18  19
ENDBRANCH  12  13
ENDBRANCH   9  11
ENDBRANCH   1   8
BRANCH   5  21
ATOM     21  S   UNL     1       3.714   3.045  18.548  0.00  0.00    +0.000 S 
ATOM     22  O   UNL     1       3.574   1.844  17.757  0.00  0.00    +0.000 OA
ATOM     23  O   UNL     1       4.200   2.993  19.909  0.00  0.00    +0.000 OA
BRANCH  21  24
ATOM     24  N   UNL     1       2.204   3.837  18.553  0.00  0.00    +0.000 NA
ATOM     25  C   UNL     1       2.205   5.329  18.414  0.00  0.00    +0.000 C 
ATOM     26  C   UNL     1       2.483   6.032  19.753  0.00  0.00    +0.000 C 
ATOM     27  O   UNL     1       1.589   5.601  20.790  0.00  0.00    +0.000 OA
ATOM     28  C   UNL     1       1.623   4.177  20.966  0.00  0.00    +0.000 C 
ATOM     29  C   UNL     1       1.273   3.451  19.665  0.00  0.00    +0.000 C 
ENDBRANCH  21  24
ENDBRANCH   5  21
TORSDOF 6
ENDMDL
MODEL 5
REMARK VINA RESULT:      -8.9      1.279      1.634
REMARK  Name = 
REMARK  6 active torsions:
REMARK  status: ('A' for Active; 'I' for Inactive)
REMARK    1  A    between atoms: C_2  and  C_13
REMARK    2  A    between atoms: N_3  and  N_4
REMARK    3  A    between atoms: C_5  and  C_6
REMARK    4  A    between atoms: C_11  and  O_12
REMARK    5  A    between atoms: C_17  and  S_18
REMARK    6  A    between atoms: S_18  and  N_21
REMARK                            x       y       z     vdW  Elec       q    Type
REMARK                         _______ _______ _______ _____ _____    ______ ____
ROOT
ATOM      1  C   UNL     1       6.588   5.791  17.928  0.00  0.00    +0.000 A 
ATOM      2  C   UNL     1       6.108   5.916  16.620  0.00  0.00    +0.000 A 
ATOM      3  C   UNL     1       5.077   5.081  16.176  0.00  0.00    +0.000 A 
ATOM      4  C   UNL     1       4.526   4.128  17.036  0.00  0.00    +0.000 A 
ATOM      5  C   UNL     1       5.009   3.996  18.347  0.00  0.00    +0.000 A 
ATOM      6  C   UNL     1       6.043   4.820  18.791  0.00  0.00    +0.000 A 
ENDROOT
BRANCH   1   8
ATOM      7  O   UNL     1       8.441   6.132  19.298  0.00  0.00    +0.000 OA
ATOM      8  C   UNL     1       7.705   6.631  18.454  0.00  0.00    +0.000 C 
ATOM      9  N   UNL     1       7.793   7.931  17.975  0.00  0.00    +0.000 N 
ATOM     10  H   UNL     1       7.099   8.323  17.353  0.00  0.00    +0.000 HD
BRANCH   9  11
ATOM     11  N   UNL     1       8.745   8.757  18.515  0.00  0.00    +0.000 NA
ATOM     12  C   UNL     1       8.705  10.005  18.174  0.00  0.00    +0.000 C 
BRANCH  12  13
ATOM     13  C   UNL     1       9.679  10.985  18.716  0.00  0.00    +0.000 A 
ATOM     14  C   UNL     1      10.408  11.803  17.844  0.00  0.00    +0.000 A 
ATOM     15  C   UNL     1      11.318  12.735  18.349  0.00  0.00    +0.000 A 
ATOM     16  C   UNL     1      11.506  12.854  19.726  0.00  0.00    +0.000 A 
ATOM     17  C   UNL     1      10.789  12.041  20.604  0.00  0.00    +0.000 A 
ATOM     18  C   UNL     1       9.874  11.108  20.096  0.00  0.00    +0.000 A 
BRANCH  18  19
ATOM     19  O   UNL     1       9.167  10.319  20.963  0.00  0.00    +0.000 OA
ATOM     20  H   UNL     1       9.408   9.390  20.806  0.00  0.00    +0.000 HD
ENDBRANCH  18  19
ENDBRANCH  12  13
ENDBRANCH   9  11
ENDBRANCH   1   8
BRANCH   5  21
ATOM     21  S   UNL     1       4.185   2.822  19.407  0.00  0.00    +0.000 S 
ATOM     22  O   UNL     1       3.182   2.195  18.577  0.00  0.00    +0.000 OA
ATOM     23  O   UNL     1       5.218   2.041  20.051  0.00  0.00    +0.000 OA
BRANCH  21  24
ATOM     24  N   UNL     1       3.372   3.720  20.607  0.00  0.00    +0.000 NA
ATOM     25  C   UNL     1       2.414   2.982  21.493  0.00  0.00    +0.000 C 
ATOM     26  C   UNL     1       1.042   2.792  20.825  0.00  0.00    +0.000 C 
ATOM     27  O   UNL     1       0.485   4.031  20.363  0.00  0.00    +0.000 OA
ATOM     28  C   UNL     1       1.375   4.717  19.471  0.00  0.00    +0.000 C 
ATOM     29  C   UNL     1       2.725   4.990  20.139  0.00  0.00    +0.000 C 
ENDBRANCH  21  24
ENDBRANCH   5  21
TORSDOF 6
ENDMDL
MODEL 6
REMARK VINA RESULT:      -8.9      1.799      2.124
REMARK  Name = 
REMARK  6 active torsions:
REMARK  status: ('A' for Active; 'I' for Inactive)
REMARK    1  A    between atoms: C_2  and  C_13
REMARK    2  A    between atoms: N_3  and  N_4
REMARK    3  A    between atoms: C_5  and  C_6
REMARK    4  A    between atoms: C_11  and  O_12
REMARK    5  A    between atoms: C_17  and  S_18
REMARK    6  A    between atoms: S_18  and  N_21
REMARK                            x       y       z     vdW  Elec       q    Type
REMARK                         _______ _______ _______ _____ _____    ______ ____
ROOT
ATOM      1  C   UNL     1       6.445   6.105  17.534  0.00  0.00    +0.000 A 
ATOM      2  C   UNL     1       6.590   5.384  16.343  0.00  0.00    +0.000 A 
ATOM      3  C   UNL     1       5.507   4.660  15.834  0.00  0.00    +0.000 A 
ATOM      4  C   UNL     1       4.284   4.658  16.509  0.00  0.00    +0.000 A 
ATOM      5  C   UNL     1       4.136   5.376  17.706  0.00  0.00    +0.000 A 
ATOM      6  C   UNL     1       5.216   6.092  18.222  0.00  0.00    +0.000 A 
ENDROOT
BRANCH   1   8
ATOM      7  O   UNL     1       8.262   6.300  18.977  0.00  0.00    +0.000 OA
ATOM      8  C   UNL     1       7.569   6.874  18.145  0.00  0.00    +0.000 C 
ATOM      9  N   UNL     1       7.713   8.198  17.751  0.00  0.00    +0.000 N 
ATOM     10  H   UNL     1       7.051   8.650  17.134  0.00  0.00    +0.000 HD
BRANCH   9  11
ATOM     11  N   UNL     1       8.671   8.958  18.370  0.00  0.00    +0.000 NA
ATOM     12  C   UNL     1       8.790  10.188  17.984  0.00  0.00    +0.000 C 
BRANCH  12  13
ATOM     13  C   UNL     1       9.785  11.098  18.602  0.00  0.00    +0.000 A 
ATOM     14  C   UNL     1      10.586  11.914  17.793  0.00  0.00    +0.000 A 
ATOM     15  C   UNL     1      11.516  12.783  18.370  0.00  0.00    +0.000 A 
ATOM     16  C   UNL     1      11.654  12.838  19.757  0.00  0.00    +0.000 A 
ATOM     17  C   UNL     1      10.865  12.026  20.573  0.00  0.00    +0.000 A 
ATOM     18  C   UNL     1       9.931  11.158  19.992  0.00  0.00    +0.000 A 
BRANCH  18  19
ATOM     19  O   UNL     1       9.154  10.370  20.799  0.00  0.00    +0.000 OA
ATOM     20  H   UNL     1       9.352   9.437  20.606  0.00  0.00    +0.000 HD
ENDBRANCH  18  19
ENDBRANCH  12  13
ENDBRANCH   9  11
ENDBRANCH   1   8
BRANCH   5  21
ATOM     21  S   UNL     1       2.516   5.399  18.451  0.00  0.00    +0.000 S 
ATOM     22  O   UNL     1       2.336   6.751  18.931  0.00  0.00    +0.000 OA
ATOM     23  O   UNL     1       1.604   4.818  17.491  0.00  0.00    +0.000 OA
BRANCH  21  24
ATOM     24  N   UNL     1       2.579   4.373  19.812  0.00  0.00    +0.000 NA
ATOM     25  C   UNL     1       3.551   3.233  19.773  0.00  0.00    +0.000 C 
ATOM     26  C   UNL     1       2.994   2.028  18.997  0.00  0.00    +0.000 C 
ATOM     27  O   UNL     1       1.711   1.611  19.486  0.00  0.00    +0.000 OA
ATOM     28  C   UNL     1       0.760   2.685  19.475  0.00  0.00    +0.000 C 
ATOM     29  C   UNL     1       1.255   3.870  20.306  0.00  0.00    +0.000 C 
ENDBRANCH  21  24
ENDBRANCH   5  21
TORSDOF 6
ENDMDL
MODEL 7
REMARK VINA RESULT:      -8.8      1.340      1.746
REMARK  Name = 
REMARK  6 active torsions:
REMARK  status: ('A' for Active; 'I' for Inactive)
REMARK    1  A    between atoms: C_2  and  C_13
REMARK    2  A    between atoms: N_3  and  N_4
REMARK    3  A    between atoms: C_5  and  C_6
REMARK    4  A    between atoms: C_11  and  O_12
REMARK    5  A    between atoms: C_17  and  S_18
REMARK    6  A    between atoms: S_18  and  N_21
REMARK                            x       y       z     vdW  Elec       q    Type
REMARK                         _______ _______ _______ _____ _____    ______ ____
ROOT
ATOM      1  C   UNL     1       6.691   5.947  17.214  0.00  0.00    +0.000 A 
ATOM      2  C   UNL     1       6.898   5.669  15.859  0.00  0.00    +0.000 A 
ATOM      3  C   UNL     1       6.000   4.845  15.173  0.00  0.00    +0.000 A 
ATOM      4  C   UNL     1       4.897   4.303  15.838  0.00  0.00    +0.000 A 
ATOM      5  C   UNL     1       4.689   4.574  17.199  0.00  0.00    +0.000 A 
ATOM      6  C   UNL     1       5.587   5.389  17.889  0.00  0.00    +0.000 A 
ENDROOT
BRANCH   1   8
ATOM      7  O   UNL     1       8.093   6.315  19.037  0.00  0.00    +0.000 OA
ATOM      8  C   UNL     1       7.627   6.795  18.009  0.00  0.00    +0.000 C 
ATOM      9  N   UNL     1       7.863   8.080  17.542  0.00  0.00    +0.000 N 
ATOM     10  H   UNL     1       7.375   8.459  16.741  0.00  0.00    +0.000 HD
BRANCH   9  11
ATOM     11  N   UNL     1       8.637   8.916  18.305  0.00  0.00    +0.000 NA
ATOM     12  C   UNL     1       8.736  10.147  17.917  0.00  0.00    +0.000 C 
BRANCH  12  13
ATOM     13  C   UNL     1       9.535  11.135  18.683  0.00  0.00    +0.000 A 
ATOM     14  C   UNL     1      10.232  12.146  18.007  0.00  0.00    +0.000 A 
ATOM     15  C   UNL     1      10.977  13.087  18.724  0.00  0.00    +0.000 A 
ATOM     16  C   UNL     1      11.032  13.022  20.116  0.00  0.00    +0.000 A 
ATOM     17  C   UNL     1      10.346  12.017  20.798  0.00  0.00    +0.000 A 
ATOM     18  C   UNL     1       9.597  11.076  20.079  0.00  0.00    +0.000 A 
BRANCH  18  19
ATOM     19  O   UNL     1       8.919  10.097  20.755  0.00  0.00    +0.000 OA
ATOM     20  H   UNL     1       9.478   9.302  20.796  0.00  0.00    +0.000 HD
ENDBRANCH  18  19
ENDBRANCH  12  13
ENDBRANCH   9  11
ENDBRANCH   1   8
BRANCH   5  21
ATOM     21  S   UNL     1       3.206   3.922  17.945  0.00  0.00    +0.000 S 
ATOM     22  O   UNL     1       2.164   4.867  17.614  0.00  0.00    +0.000 OA
ATOM     23  O   UNL     1       3.112   2.535  17.550  0.00  0.00    +0.000 OA
BRANCH  21  24
ATOM     24  N   UNL     1       3.433   3.979  19.635  0.00  0.00    +0.000 NA
ATOM     25  C   UNL     1       3.341   2.686  20.388  0.00  0.00    +0.000 C 
ATOM     26  C   UNL     1       1.884   2.293  20.682  0.00  0.00    +0.000 C 
ATOM     27  O   UNL     1       1.161   3.341  21.344  0.00  0.00    +0.000 OA
ATOM     28  C   UNL     1       1.199   4.568  20.601  0.00  0.00    +0.000 C 
ATOM     29  C   UNL     1       2.640   5.024  20.361  0.00  0.00    +0.000 C 
ENDBRANCH  21  24
ENDBRANCH   5  21
TORSDOF 6
ENDMDL
MODEL 8
REMARK VINA RESULT:      -8.7      1.171      1.632
REMARK  Name = 
REMARK  6 active torsions:
REMARK  status: ('A' for Active; 'I' for Inactive)
REMARK    1  A    between atoms: C_2  and  C_13
REMARK    2  A    between atoms: N_3  and  N_4
REMARK    3  A    between atoms: C_5  and  C_6
REMARK    4  A    between atoms: C_11  and  O_12
REMARK    5  A    between atoms: C_17  and  S_18
REMARK    6  A    between atoms: S_18  and  N_21
REMARK                            x       y       z     vdW  Elec       q    Type
REMARK                         _______ _______ _______ _____ _____    ______ ____
ROOT
ATOM      1  C   UNL     1       6.510   6.034  17.400  0.00  0.00    +0.000 A 
ATOM      2  C   UNL     1       6.665   5.397  16.164  0.00  0.00    +0.000 A 
ATOM      3  C   UNL     1       5.653   4.560  15.683  0.00  0.00    +0.000 A 
ATOM      4  C   UNL     1       4.491   4.360  16.433  0.00  0.00    +0.000 A 
ATOM      5  C   UNL     1       4.336   4.993  17.676  0.00  0.00    +0.000 A 
ATOM      6  C   UNL     1       5.345   5.823  18.163  0.00  0.00    +0.000 A 
ENDROOT
BRANCH   1   8
ATOM      7  O   UNL     1       8.223   6.474  18.916  0.00  0.00    +0.000 OA
ATOM      8  C   UNL     1       7.564   6.917  17.982  0.00  0.00    +0.000 C 
ATOM      9  N   UNL     1       7.684   8.191  17.445  0.00  0.00    +0.000 N 
ATOM     10  H   UNL     1       7.047   8.540  16.740  0.00  0.00    +0.000 HD
BRANCH   9  11
ATOM     11  N   UNL     1       8.573   9.059  18.026  0.00  0.00    +0.000 NA
ATOM     12  C   UNL     1       8.321  10.324  17.915  0.00  0.00    +0.000 C 
BRANCH  12  13
ATOM     13  C   UNL     1       9.210  11.344  18.523  0.00  0.00    +0.000 A 
ATOM     14  C   UNL     1      10.087  10.983  19.554  0.00  0.00    +0.000 A 
ATOM     15  C   UNL     1      10.936  11.937  20.122  0.00  0.00    +0.000 A 
ATOM     16  C   UNL     1      10.912  13.255  19.666  0.00  0.00    +0.000 A 
ATOM     17  C   UNL     1      10.039  13.627  18.643  0.00  0.00    +0.000 A 
ATOM     18  C   UNL     1       9.190  12.669  18.072  0.00  0.00    +0.000 A 
BRANCH  18  19
ATOM     19  O   UNL     1       8.342  13.038  17.063  0.00  0.00    +0.000 OA
ATOM     20  H   UNL     1       8.656  13.875  16.682  0.00  0.00    +0.000 HD
ENDBRANCH  18  19
ENDBRANCH  12  13
ENDBRANCH   9  11
ENDBRANCH   1   8
BRANCH   5  21
ATOM     21  S   UNL     1       2.782   4.762  18.522  0.00  0.00    +0.000 S 
ATOM     22  O   UNL     1       2.862   5.594  19.701  0.00  0.00    +0.000 OA
ATOM     23  O   UNL     1       1.738   4.952  17.541  0.00  0.00    +0.000 OA
BRANCH  21  24
ATOM     24  N   UNL     1       2.735   3.138  19.041  0.00  0.00    +0.000 NA
ATOM     25  C   UNL     1       1.413   2.434  18.988  0.00  0.00    +0.000 C 
ATOM     26  C   UNL     1       0.538   2.761  20.210  0.00  0.00    +0.000 C 
ATOM     27  O   UNL     1       1.218   2.513  21.449  0.00  0.00    +0.000 OA
ATOM     28  C   UNL     1       2.460   3.227  21.528  0.00  0.00    +0.000 C 
ATOM     29  C   UNL     1       3.384   2.861  20.365  0.00  0.00    +0.000 C 
ENDBRANCH  21  24
ENDBRANCH   5  21
TORSDOF 6
ENDMDL
MODEL 9
REMARK VINA RESULT:      -8.2      5.279      7.677
REMARK  Name = 
REMARK  6 active torsions:
REMARK  status: ('A' for Active; 'I' for Inactive)
REMARK    1  A    between atoms: C_2  and  C_13
REMARK    2  A    between atoms: N_3  and  N_4
REMARK    3  A    between atoms: C_5  and  C_6
REMARK    4  A    between atoms: C_11  and  O_12
REMARK    5  A    between atoms: C_17  and  S_18
REMARK    6  A    between atoms: S_18  and  N_21
REMARK                            x       y       z     vdW  Elec       q    Type
REMARK                         _______ _______ _______ _____ _____    ______ ____
ROOT
ATOM      1  C   UNL     1       2.093   6.267  20.119  0.00  0.00    +0.000 A 
ATOM      2  C   UNL     1       1.411   5.241  20.782  0.00  0.00    +0.000 A 
ATOM      3  C   UNL     1       1.753   3.907  20.534  0.00  0.00    +0.000 A 
ATOM      4  C   UNL     1       2.772   3.600  19.629  0.00  0.00    +0.000 A 
ATOM      5  C   UNL     1       3.454   4.627  18.958  0.00  0.00    +0.000 A 
ATOM      6  C   UNL     1       3.111   5.958  19.196  0.00  0.00    +0.000 A 
ENDROOT
BRANCH   1   8
ATOM      7  O   UNL     1       1.841   8.450  19.346  0.00  0.00    +0.000 OA
ATOM      8  C   UNL     1       1.757   7.708  20.318  0.00  0.00    +0.000 C 
ATOM      9  N   UNL     1       1.418   8.103  21.605  0.00  0.00    +0.000 N 
ATOM     10  H   UNL     1       1.461   7.468  22.391  0.00  0.00    +0.000 HD
BRANCH   9  11
ATOM     11  N   UNL     1       1.205   9.437  21.839  0.00  0.00    +0.000 NA
ATOM     12  C   UNL     1      -0.017   9.860  21.778  0.00  0.00    +0.000 C 
BRANCH  12  13
ATOM     13  C   UNL     1      -0.356  11.281  22.032  0.00  0.00    +0.000 A 
ATOM     14  C   UNL     1      -1.330  11.610  22.984  0.00  0.00    +0.000 A 
ATOM     15  C   UNL     1      -1.644  12.948  23.236  0.00  0.00    +0.000 A 
ATOM     16  C   UNL     1      -0.991  13.964  22.538  0.00  0.00    +0.000 A 
ATOM     17  C   UNL     1      -0.023  13.648  21.584  0.00  0.00    +0.000 A 
ATOM     18  C   UNL     1       0.293  12.306  21.334  0.00  0.00    +0.000 A 
BRANCH  18  19
ATOM     19  O   UNL     1       1.250  12.003  20.403  0.00  0.00    +0.000 OA
ATOM     20  H   UNL     1       2.039  11.669  20.864  0.00  0.00    +0.000 HD
ENDBRANCH  18  19
ENDBRANCH  12  13
ENDBRANCH   9  11
ENDBRANCH   1   8
BRANCH   5  21
ATOM     21  S   UNL     1       4.805   4.153  17.894  0.00  0.00    +0.000 S 
ATOM     22  O   UNL     1       5.981   4.187  18.733  0.00  0.00    +0.000 OA
ATOM     23  O   UNL     1       4.402   2.939  17.220  0.00  0.00    +0.000 OA
BRANCH  21  24
ATOM     24  N   UNL     1       4.971   5.382  16.723  0.00  0.00    +0.000 NA
ATOM     25  C   UNL     1       5.403   4.971  15.348  0.00  0.00    +0.000 C 
ATOM     26  C   UNL     1       6.926   4.790  15.252  0.00  0.00    +0.000 C 
ATOM     27  O   UNL     1       7.642   5.950  15.705  0.00  0.00    +0.000 OA
ATOM     28  C   UNL     1       7.273   6.316  17.042  0.00  0.00    +0.000 C 
ATOM     29  C   UNL     1       5.769   6.579  17.149  0.00  0.00    +0.000 C 
ENDBRANCH  21  24
ENDBRANCH   5  21
TORSDOF 6
ENDMDL
