MODEL 1
REMARK VINA RESULT:      -8.7      0.000      0.000
REMARK  Name = 
REMARK  13 active torsions:
REMARK  status: ('A' for Active; 'I' for Inactive)
REMARK    1  A    between atoms: C_1  and  C_2
REMARK    2  A    between atoms: C_2  and  C_3
REMARK    3  A    between atoms: C_2  and  C_4
REMARK    4  A    between atoms: C_2  and  C_11
REMARK    5  A    between atoms: C_7  and  O_8
REMARK    6  A    between atoms: C_14  and  O_15
REMARK    7  A    between atoms: O_15  and  C_16
REMARK    8  A    between atoms: C_16  and  C_17
REMARK    9  A    between atoms: C_17  and  C_18
REMARK   10  A    between atoms: C_18  and  C_19
REMARK   11  A    between atoms: C_19  and  N_20
REMARK   12  A    between atoms: N_20  and  C_21
REMARK   13  A    between atoms: C_24  and  N_25
REMARK                            x       y       z     vdW  Elec       q    Type
REMARK                         _______ _______ _______ _____ _____    ______ ____
ROOT
ATOM      1  O   UNL     1       2.274   5.339  20.746  0.00  0.00    +0.000 OA
ENDROOT
BRANCH   1   5
ATOM      2  C   UNL     1       1.223   9.239  19.610  0.00  0.00    +0.000 A 
ATOM      3  C   UNL     1       1.958   8.424  18.734  0.00  0.00    +0.000 A 
ATOM      4  C   UNL     1       2.310   7.119  19.072  0.00  0.00    +0.000 A 
ATOM      5  C   UNL     1       1.953   6.591  20.308  0.00  0.00    +0.000 A 
ATOM      6  C   UNL     1       1.218   7.376  21.195  0.00  0.00    +0.000 A 
ATOM      7  C   UNL     1       0.852   8.682  20.851  0.00  0.00    +0.000 A 
BRANCH   2   9
ATOM      8  C   UNL     1       1.843  11.175  18.166  0.00  0.00    +0.000 C 
ATOM      9  C   UNL     1       0.835  10.695  19.247  0.00  0.00    +0.000 C 
ATOM     10  C   UNL     1       1.008  11.655  20.453  0.00  0.00    +0.000 C 
BRANCH   9  11
ATOM     11  C   UNL     1      -0.634  10.821  18.757  0.00  0.00    +0.000 A 
ATOM     12  C   UNL     1      -1.516  11.773  19.304  0.00  0.00    +0.000 A 
ATOM     13  C   UNL     1      -2.843  11.878  18.866  0.00  0.00    +0.000 A 
ATOM     14  C   UNL     1      -3.300  11.046  17.853  0.00  0.00    +0.000 A 
ATOM     15  C   UNL     1      -2.452  10.118  17.272  0.00  0.00    +0.000 A 
ATOM     16  C   UNL     1      -1.131  10.008  17.717  0.00  0.00    +0.000 A 
BRANCH  14  17
ATOM     17  O   UNL     1      -4.582  11.114  17.396  0.00  0.00    +0.000 OA
ATOM     18  H   UNL     1      -4.697  10.443  16.704  0.00  0.00    +0.000 HD
ENDBRANCH  14  17
ENDBRANCH   9  11
ENDBRANCH   2   9
ENDBRANCH   1   5
BRANCH   1  19
ATOM     19  C   UNL     1       1.552   4.261  20.148  0.00  0.00    +0.000 C 
BRANCH  19  20
ATOM     20  C   UNL     1       2.311   2.966  20.406  0.00  0.00    +0.000 C 
BRANCH  20  21
ATOM     21  C   UNL     1       2.355   2.052  19.179  0.00  0.00    +0.000 C 
BRANCH  21  22
ATOM     22  C   UNL     1       2.710   2.826  17.911  0.00  0.00    +0.000 C 
BRANCH  22  23
ATOM     23  N   UNL     1       4.111   2.625  17.593  0.00  0.00    +0.000 N 
ATOM     24  H   UNL     1       4.546   1.867  18.115  0.00  0.00    +0.000 HD
BRANCH  23  25
ATOM     25  C   UNL     1       4.931   3.766  17.498  0.00  0.00    +0.000 A 
ATOM     26  C   UNL     1       5.006   4.593  18.646  0.00  0.00    +0.000 A 
ATOM     27  C   UNL     1       5.855   5.717  18.767  0.00  0.00    +0.000 A 
ATOM     28  C   UNL     1       6.721   6.110  17.729  0.00  0.00    +0.000 A 
ATOM     29  C   UNL     1       6.689   5.344  16.549  0.00  0.00    +0.000 A 
ATOM     30  N   UNL     1       7.357   5.453  15.391  0.00  0.00    +0.000 NA
ATOM     31  O   UNL     1       6.933   4.416  14.592  0.00  0.00    +0.000 OA
ATOM     32  N   UNL     1       5.990   3.637  15.222  0.00  0.00    +0.000 NA
ATOM     33  C   UNL     1       5.804   4.173  16.440  0.00  0.00    +0.000 A 
BRANCH  28  34
ATOM     34  N   UNL     1       7.625   7.231  17.891  0.00  0.00    +0.000 N 
ATOM     35  O   UNL     1       8.445   7.155  18.818  0.00  0.00    +0.000 OA
ATOM     36  O   UNL     1       7.546   8.186  17.112  0.00  0.00    +0.000 OA
ENDBRANCH  28  34
ENDBRANCH  23  25
ENDBRANCH  22  23
ENDBRANCH  21  22
ENDBRANCH  20  21
ENDBRANCH  19  20
ENDBRANCH   1  19
TORSDOF 11
ENDMDL
MODEL 2
REMARK VINA RESULT:      -8.5      1.110      2.380
REMARK  Name = 
REMARK  13 active torsions:
REMARK  status: ('A' for Active; 'I' for Inactive)
REMARK    1  A    between atoms: C_1  and  C_2
REMARK    2  A    between atoms: C_2  and  C_3
REMARK    3  A    between atoms: C_2  and  C_4
REMARK    4  A    between atoms: C_2  and  C_11
REMARK    5  A    between atoms: C_7  and  O_8
REMARK    6  A    between atoms: C_14  and  O_15
REMARK    7  A    between atoms: O_15  and  C_16
REMARK    8  A    between atoms: C_16  and  C_17
REMARK    9  A    between atoms: C_17  and  C_18
REMARK   10  A    between atoms: C_18  and  C_19
REMARK   11  A    between atoms: C_19  and  N_20
REMARK   12  A    between atoms: N_20  and  C_21
REMARK   13  A    between atoms: C_24  and  N_25
REMARK                            x       y       z     vdW  Elec       q    Type
REMARK                         _______ _______ _______ _____ _____    ______ ____
ROOT
ATOM      1  O   UNL     1       2.477   5.049  20.163  0.00  0.00    +0.000 OA
ENDROOT
BRANCH   1   5
ATOM      2  C   UNL     1       1.413   9.042  19.437  0.00  0.00    +0.000 A 
ATOM      3  C   UNL     1       1.059   8.429  20.650  0.00  0.00    +0.000 A 
ATOM      4  C   UNL     1       1.411   7.110  20.931  0.00  0.00    +0.000 A 
ATOM      5  C   UNL     1       2.113   6.354  19.998  0.00  0.00    +0.000 A 
ATOM      6  C   UNL     1       2.481   6.940  18.788  0.00  0.00    +0.000 A 
ATOM      7  C   UNL     1       2.141   8.269  18.511  0.00  0.00    +0.000 A 
BRANCH   2   9
ATOM      8  C   UNL     1       2.022  11.018  18.042  0.00  0.00    +0.000 C 
ATOM      9  C   UNL     1       1.018  10.506  19.112  0.00  0.00    +0.000 C 
ATOM     10  C   UNL     1       1.191  11.435  20.342  0.00  0.00    +0.000 C 
BRANCH   9  11
ATOM     11  C   UNL     1      -0.452  10.638  18.630  0.00  0.00    +0.000 A 
ATOM     12  C   UNL     1      -0.982   9.797  17.632  0.00  0.00    +0.000 A 
ATOM     13  C   UNL     1      -2.306   9.925  17.194  0.00  0.00    +0.000 A 
ATOM     14  C   UNL     1      -3.131  10.883  17.768  0.00  0.00    +0.000 A 
ATOM     15  C   UNL     1      -2.652  11.708  18.772  0.00  0.00    +0.000 A 
ATOM     16  C   UNL     1      -1.328  11.585  19.202  0.00  0.00    +0.000 A 
BRANCH  14  17
ATOM     17  O   UNL     1      -4.425  11.042  17.372  0.00  0.00    +0.000 OA
ATOM     18  H   UNL     1      -4.435  11.571  16.559  0.00  0.00    +0.000 HD
ENDBRANCH  14  17
ENDBRANCH   9  11
ENDBRANCH   2   9
ENDBRANCH   1   5
BRANCH   1  19
ATOM     19  C   UNL     1       2.180   4.472  21.436  0.00  0.00    +0.000 C 
BRANCH  19  20
ATOM     20  C   UNL     1       2.155   2.956  21.287  0.00  0.00    +0.000 C 
BRANCH  20  21
ATOM     21  C   UNL     1       2.276   2.503  19.830  0.00  0.00    +0.000 C 
BRANCH  21  22
ATOM     22  C   UNL     1       3.641   1.879  19.544  0.00  0.00    +0.000 C 
BRANCH  22  23
ATOM     23  N   UNL     1       4.686   2.851  19.800  0.00  0.00    +0.000 N 
ATOM     24  H   UNL     1       4.531   3.409  20.638  0.00  0.00    +0.000 HD
BRANCH  23  25
ATOM     25  C   UNL     1       5.152   3.615  18.712  0.00  0.00    +0.000 A 
ATOM     26  C   UNL     1       4.521   3.395  17.463  0.00  0.00    +0.000 A 
ATOM     27  C   UNL     1       4.786   4.140  16.292  0.00  0.00    +0.000 A 
ATOM     28  C   UNL     1       5.721   5.192  16.276  0.00  0.00    +0.000 A 
ATOM     29  C   UNL     1       6.402   5.458  17.478  0.00  0.00    +0.000 A 
ATOM     30  N   UNL     1       7.344   6.357  17.795  0.00  0.00    +0.000 NA
ATOM     31  O   UNL     1       7.636   6.171  19.127  0.00  0.00    +0.000 OA
ATOM     32  N   UNL     1       6.891   5.153  19.676  0.00  0.00    +0.000 NA
ATOM     33  C   UNL     1       6.111   4.677  18.691  0.00  0.00    +0.000 A 
BRANCH  28  34
ATOM     34  N   UNL     1       5.940   5.982  15.080  0.00  0.00    +0.000 N 
ATOM     35  O   UNL     1       5.228   6.987  14.939  0.00  0.00    +0.000 OA
ATOM     36  O   UNL     1       6.811   5.632  14.278  0.00  0.00    +0.000 OA
ENDBRANCH  28  34
ENDBRANCH  23  25
ENDBRANCH  22  23
ENDBRANCH  21  22
ENDBRANCH  20  21
ENDBRANCH  19  20
ENDBRANCH   1  19
TORSDOF 11
ENDMDL
MODEL 3
REMARK VINA RESULT:      -8.4      1.076      2.257
REMARK  Name = 
REMARK  13 active torsions:
REMARK  status: ('A' for Active; 'I' for Inactive)
REMARK    1  A    between atoms: C_1  and  C_2
REMARK    2  A    between atoms: C_2  and  C_3
REMARK    3  A    between atoms: C_2  and  C_4
REMARK    4  A    between atoms: C_2  and  C_11
REMARK    5  A    between atoms: C_7  and  O_8
REMARK    6  A    between atoms: C_14  and  O_15
REMARK    7  A    between atoms: O_15  and  C_16
REMARK    8  A    between atoms: C_16  and  C_17
REMARK    9  A    between atoms: C_17  and  C_18
REMARK   10  A    between atoms: C_18  and  C_19
REMARK   11  A    between atoms: C_19  and  N_20
REMARK   12  A    between atoms: N_20  and  C_21
REMARK   13  A    between atoms: C_24  and  N_25
REMARK                            x       y       z     vdW  Elec       q    Type
REMARK                         _______ _______ _______ _____ _____    ______ ____
ROOT
ATOM      1  O   UNL     1       2.192   4.996  20.636  0.00  0.00    +0.000 OA
ENDROOT
BRANCH   1   5
ATOM      2  C   UNL     1       1.345   8.969  19.586  0.00  0.00    +0.000 A 
ATOM      3  C   UNL     1       0.916   8.461  20.823  0.00  0.00    +0.000 A 
ATOM      4  C   UNL     1       1.195   7.152  21.211  0.00  0.00    +0.000 A 
ATOM      5  C   UNL     1       1.896   6.301  20.364  0.00  0.00    +0.000 A 
ATOM      6  C   UNL     1       2.338   6.781  19.133  0.00  0.00    +0.000 A 
ATOM      7  C   UNL     1       2.071   8.100  18.748  0.00  0.00    +0.000 A 
BRANCH   2   9
ATOM      8  C   UNL     1       2.064  10.790  18.041  0.00  0.00    +0.000 C 
ATOM      9  C   UNL     1       1.032  10.421  19.143  0.00  0.00    +0.000 C 
ATOM     10  C   UNL     1       1.254  11.436  20.295  0.00  0.00    +0.000 C 
BRANCH   9  11
ATOM     11  C   UNL     1      -0.428  10.595  18.643  0.00  0.00    +0.000 A 
ATOM     12  C   UNL     1      -0.966   9.776  17.631  0.00  0.00    +0.000 A 
ATOM     13  C   UNL     1      -2.281   9.941  17.177  0.00  0.00    +0.000 A 
ATOM     14  C   UNL     1      -3.089  10.915  17.749  0.00  0.00    +0.000 A 
ATOM     15  C   UNL     1      -2.603  11.719  18.767  0.00  0.00    +0.000 A 
ATOM     16  C   UNL     1      -1.287  11.559  19.212  0.00  0.00    +0.000 A 
BRANCH  14  17
ATOM     17  O   UNL     1      -4.374  11.110  17.339  0.00  0.00    +0.000 OA
ATOM     18  H   UNL     1      -4.426  11.971  16.893  0.00  0.00    +0.000 HD
ENDBRANCH  14  17
ENDBRANCH   9  11
ENDBRANCH   2   9
ENDBRANCH   1   5
BRANCH   1  19
ATOM     19  C   UNL     1       1.078   4.144  20.906  0.00  0.00    +0.000 C 
BRANCH  19  20
ATOM     20  C   UNL     1       1.354   2.775  20.295  0.00  0.00    +0.000 C 
BRANCH  20  21
ATOM     21  C   UNL     1       0.908   2.680  18.834  0.00  0.00    +0.000 C 
BRANCH  21  22
ATOM     22  C   UNL     1       2.086   2.832  17.873  0.00  0.00    +0.000 C 
BRANCH  22  23
ATOM     23  N   UNL     1       3.325   2.893  18.624  0.00  0.00    +0.000 N 
ATOM     24  H   UNL     1       3.198   3.133  19.606  0.00  0.00    +0.000 HD
BRANCH  23  25
ATOM     25  C   UNL     1       4.417   3.560  18.034  0.00  0.00    +0.000 A 
ATOM     26  C   UNL     1       4.429   3.634  16.619  0.00  0.00    +0.000 A 
ATOM     27  C   UNL     1       5.386   4.349  15.865  0.00  0.00    +0.000 A 
ATOM     28  C   UNL     1       6.429   5.069  16.478  0.00  0.00    +0.000 A 
ATOM     29  C   UNL     1       6.491   5.027  17.883  0.00  0.00    +0.000 A 
ATOM     30  N   UNL     1       7.345   5.575  18.759  0.00  0.00    +0.000 NA
ATOM     31  O   UNL     1       6.912   5.212  20.014  0.00  0.00    +0.000 OA
ATOM     32  N   UNL     1       5.783   4.427  19.957  0.00  0.00    +0.000 NA
ATOM     33  C   UNL     1       5.484   4.283  18.655  0.00  0.00    +0.000 A 
BRANCH  28  34
ATOM     34  N   UNL     1       7.369   5.843  15.692  0.00  0.00    +0.000 N 
ATOM     35  O   UNL     1       7.815   6.875  16.215  0.00  0.00    +0.000 OA
ATOM     36  O   UNL     1       7.682   5.446  14.565  0.00  0.00    +0.000 OA
ENDBRANCH  28  34
ENDBRANCH  23  25
ENDBRANCH  22  23
ENDBRANCH  21  22
ENDBRANCH  20  21
ENDBRANCH  19  20
ENDBRANCH   1  19
TORSDOF 11
ENDMDL
MODEL 4
REMARK VINA RESULT:      -8.1      3.312      4.775
REMARK  Name = 
REMARK  13 active torsions:
REMARK  status: ('A' for Active; 'I' for Inactive)
REMARK    1  A    between atoms: C_1  and  C_2
REMARK    2  A    between atoms: C_2  and  C_3
REMARK    3  A    between atoms: C_2  and  C_4
REMARK    4  A    between atoms: C_2  and  C_11
REMARK    5  A    between atoms: C_7  and  O_8
REMARK    6  A    between atoms: C_14  and  O_15
REMARK    7  A    between atoms: O_15  and  C_16
REMARK    8  A    between atoms: C_16  and  C_17
REMARK    9  A    between atoms: C_17  and  C_18
REMARK   10  A    between atoms: C_18  and  C_19
REMARK   11  A    between atoms: C_19  and  N_20
REMARK   12  A    between atoms: N_20  and  C_21
REMARK   13  A    between atoms: C_24  and  N_25
REMARK                            x       y       z     vdW  Elec       q    Type
REMARK                         _______ _______ _______ _____ _____    ______ ____
ROOT
ATOM      1  O   UNL     1       0.412   8.458  21.287  0.00  0.00    +0.000 OA
ENDROOT
BRANCH   1   5
ATOM      2  C   UNL     1      -1.592  11.985  22.360  0.00  0.00    +0.000 A 
ATOM      3  C   UNL     1      -1.266  11.034  23.341  0.00  0.00    +0.000 A 
ATOM      4  C   UNL     1      -0.586   9.860  23.023  0.00  0.00    +0.000 A 
ATOM      5  C   UNL     1      -0.226   9.589  21.707  0.00  0.00    +0.000 A 
ATOM      6  C   UNL     1      -0.533  10.518  20.714  0.00  0.00    +0.000 A 
ATOM      7  C   UNL     1      -1.202  11.705  21.035  0.00  0.00    +0.000 A 
BRANCH   2   9
ATOM      8  C   UNL     1      -2.153  14.260  21.507  0.00  0.00    +0.000 C 
ATOM      9  C   UNL     1      -2.355  13.289  22.704  0.00  0.00    +0.000 C 
ATOM     10  C   UNL     1      -1.750  14.002  23.942  0.00  0.00    +0.000 C 
BRANCH   9  11
ATOM     11  C   UNL     1      -3.861  13.044  22.996  0.00  0.00    +0.000 A 
ATOM     12  C   UNL     1      -4.827  13.072  21.971  0.00  0.00    +0.000 A 
ATOM     13  C   UNL     1      -6.186  12.859  22.240  0.00  0.00    +0.000 A 
ATOM     14  C   UNL     1      -6.595  12.589  23.539  0.00  0.00    +0.000 A 
ATOM     15  C   UNL     1      -5.669  12.525  24.567  0.00  0.00    +0.000 A 
ATOM     16  C   UNL     1      -4.315  12.747  24.298  0.00  0.00    +0.000 A 
BRANCH  14  17
ATOM     17  O   UNL     1      -7.906  12.375  23.845  0.00  0.00    +0.000 OA
ATOM     18  H   UNL     1      -7.988  11.493  24.242  0.00  0.00    +0.000 HD
ENDBRANCH  14  17
ENDBRANCH   9  11
ENDBRANCH   2   9
ENDBRANCH   1   5
BRANCH   1  19
ATOM     19  C   UNL     1       1.262   8.604  20.149  0.00  0.00    +0.000 C 
BRANCH  19  20
ATOM     20  C   UNL     1       2.177   7.388  20.067  0.00  0.00    +0.000 C 
BRANCH  20  21
ATOM     21  C   UNL     1       1.474   6.092  20.474  0.00  0.00    +0.000 C 
BRANCH  21  22
ATOM     22  C   UNL     1       2.306   4.861  20.116  0.00  0.00    +0.000 C 
BRANCH  22  23
ATOM     23  N   UNL     1       3.716   5.194  20.164  0.00  0.00    +0.000 N 
ATOM     24  H   UNL     1       3.910   6.103  20.580  0.00  0.00    +0.000 HD
BRANCH  23  25
ATOM     25  C   UNL     1       4.489   4.943  19.013  0.00  0.00    +0.000 A 
ATOM     26  C   UNL     1       3.781   4.738  17.803  0.00  0.00    +0.000 A 
ATOM     27  C   UNL     1       4.390   4.577  16.538  0.00  0.00    +0.000 A 
ATOM     28  C   UNL     1       5.788   4.614  16.376  0.00  0.00    +0.000 A 
ATOM     29  C   UNL     1       6.559   4.796  17.539  0.00  0.00    +0.000 A 
ATOM     30  N   UNL     1       7.884   4.861  17.735  0.00  0.00    +0.000 NA
ATOM     31  O   UNL     1       8.074   5.067  19.082  0.00  0.00    +0.000 OA
ATOM     32  N   UNL     1       6.880   5.133  19.763  0.00  0.00    +0.000 NA
ATOM     33  C   UNL     1       5.910   4.968  18.849  0.00  0.00    +0.000 A 
BRANCH  28  34
ATOM     34  N   UNL     1       6.394   4.502  15.065  0.00  0.00    +0.000 N 
ATOM     35  O   UNL     1       7.023   5.489  14.657  0.00  0.00    +0.000 OA
ATOM     36  O   UNL     1       6.265   3.452  14.429  0.00  0.00    +0.000 OA
ENDBRANCH  28  34
ENDBRANCH  23  25
ENDBRANCH  22  23
ENDBRANCH  21  22
ENDBRANCH  20  21
ENDBRANCH  19  20
ENDBRANCH   1  19
TORSDOF 11
ENDMDL
MODEL 5
REMARK VINA RESULT:      -8.1      1.299      2.243
REMARK  Name = 
REMARK  13 active torsions:
REMARK  status: ('A' for Active; 'I' for Inactive)
REMARK    1  A    between atoms: C_1  and  C_2
REMARK    2  A    between atoms: C_2  and  C_3
REMARK    3  A    between atoms: C_2  and  C_4
REMARK    4  A    between atoms: C_2  and  C_11
REMARK    5  A    between atoms: C_7  and  O_8
REMARK    6  A    between atoms: C_14  and  O_15
REMARK    7  A    between atoms: O_15  and  C_16
REMARK    8  A    between atoms: C_16  and  C_17
REMARK    9  A    between atoms: C_17  and  C_18
REMARK   10  A    between atoms: C_18  and  C_19
REMARK   11  A    between atoms: C_19  and  N_20
REMARK   12  A    between atoms: N_20  and  C_21
REMARK   13  A    between atoms: C_24  and  N_25
REMARK                            x       y       z     vdW  Elec       q    Type
REMARK                         _______ _______ _______ _____ _____    ______ ____
ROOT
ATOM      1  O   UNL     1       2.800   6.004  19.138  0.00  0.00    +0.000 OA
ENDROOT
BRANCH   1   5
ATOM      2  C   UNL     1       1.042   9.807  19.370  0.00  0.00    +0.000 A 
ATOM      3  C   UNL     1       1.644   9.381  18.175  0.00  0.00    +0.000 A 
ATOM      4  C   UNL     1       2.222   8.119  18.057  0.00  0.00    +0.000 A 
ATOM      5  C   UNL     1       2.234   7.246  19.140  0.00  0.00    +0.000 A 
ATOM      6  C   UNL     1       1.639   7.641  20.337  0.00  0.00    +0.000 A 
ATOM      7  C   UNL     1       1.045   8.903  20.451  0.00  0.00    +0.000 A 
BRANCH   2   9
ATOM      8  C   UNL     1       1.293  12.196  18.701  0.00  0.00    +0.000 C 
ATOM      9  C   UNL     1       0.405  11.213  19.512  0.00  0.00    +0.000 C 
ATOM     10  C   UNL     1       0.439  11.715  20.980  0.00  0.00    +0.000 C 
BRANCH   9  11
ATOM     11  C   UNL     1      -1.074  11.252  19.040  0.00  0.00    +0.000 A 
ATOM     12  C   UNL     1      -2.009  12.138  19.611  0.00  0.00    +0.000 A 
ATOM     13  C   UNL     1      -3.345  12.165  19.188  0.00  0.00    +0.000 A 
ATOM     14  C   UNL     1      -3.760  11.320  18.168  0.00  0.00    +0.000 A 
ATOM     15  C   UNL     1      -2.861  10.456  17.564  0.00  0.00    +0.000 A 
ATOM     16  C   UNL     1      -1.531  10.424  17.993  0.00  0.00    +0.000 A 
BRANCH  14  17
ATOM     17  O   UNL     1      -5.049  11.313  17.725  0.00  0.00    +0.000 OA
ATOM     18  H   UNL     1      -5.438  12.185  17.899  0.00  0.00    +0.000 HD
ENDBRANCH  14  17
ENDBRANCH   9  11
ENDBRANCH   2   9
ENDBRANCH   1   5
BRANCH   1  19
ATOM     19  C   UNL     1       2.008   4.956  18.576  0.00  0.00    +0.000 C 
BRANCH  19  20
ATOM     20  C   UNL     1       1.475   4.090  19.711  0.00  0.00    +0.000 C 
BRANCH  20  21
ATOM     21  C   UNL     1       2.208   2.751  19.826  0.00  0.00    +0.000 C 
BRANCH  21  22
ATOM     22  C   UNL     1       3.530   2.894  20.579  0.00  0.00    +0.000 C 
BRANCH  22  23
ATOM     23  N   UNL     1       4.621   2.429  19.744  0.00  0.00    +0.000 N 
ATOM     24  H   UNL     1       5.387   2.009  20.266  0.00  0.00    +0.000 HD
BRANCH  23  25
ATOM     25  C   UNL     1       5.063   3.278  18.710  0.00  0.00    +0.000 A 
ATOM     26  C   UNL     1       4.500   3.066  17.427  0.00  0.00    +0.000 A 
ATOM     27  C   UNL     1       4.747   3.883  16.302  0.00  0.00    +0.000 A 
ATOM     28  C   UNL     1       5.591   5.008  16.370  0.00  0.00    +0.000 A 
ATOM     29  C   UNL     1       6.200   5.272  17.611  0.00  0.00    +0.000 A 
ATOM     30  N   UNL     1       7.051   6.230  18.006  0.00  0.00    +0.000 NA
ATOM     31  O   UNL     1       7.306   6.007  19.340  0.00  0.00    +0.000 OA
ATOM     32  N   UNL     1       6.628   4.907  19.812  0.00  0.00    +0.000 NA
ATOM     33  C   UNL     1       5.929   4.415  18.776  0.00  0.00    +0.000 A 
BRANCH  28  34
ATOM     34  N   UNL     1       5.789   5.868  15.221  0.00  0.00    +0.000 N 
ATOM     35  O   UNL     1       5.061   6.869  15.142  0.00  0.00    +0.000 OA
ATOM     36  O   UNL     1       6.659   5.577  14.393  0.00  0.00    +0.000 OA
ENDBRANCH  28  34
ENDBRANCH  23  25
ENDBRANCH  22  23
ENDBRANCH  21  22
ENDBRANCH  20  21
ENDBRANCH  19  20
ENDBRANCH   1  19
TORSDOF 11
ENDMDL
MODEL 6
REMARK VINA RESULT:      -8.1      2.308      3.848
REMARK  Name = 
REMARK  13 active torsions:
REMARK  status: ('A' for Active; 'I' for Inactive)
REMARK    1  A    between atoms: C_1  and  C_2
REMARK    2  A    between atoms: C_2  and  C_3
REMARK    3  A    between atoms: C_2  and  C_4
REMARK    4  A    between atoms: C_2  and  C_11
REMARK    5  A    between atoms: C_7  and  O_8
REMARK    6  A    between atoms: C_14  and  O_15
REMARK    7  A    between atoms: O_15  and  C_16
REMARK    8  A    between atoms: C_16  and  C_17
REMARK    9  A    between atoms: C_17  and  C_18
REMARK   10  A    between atoms: C_18  and  C_19
REMARK   11  A    between atoms: C_19  and  N_20
REMARK   12  A    between atoms: N_20  and  C_21
REMARK   13  A    between atoms: C_24  and  N_25
REMARK                            x       y       z     vdW  Elec       q    Type
REMARK                         _______ _______ _______ _____ _____    ______ ____
ROOT
ATOM      1  O   UNL     1       2.511   6.256  19.604  0.00  0.00    +0.000 OA
ENDROOT
BRANCH   1   5
ATOM      2  C   UNL     1       0.903  10.131  19.643  0.00  0.00    +0.000 A 
ATOM      3  C   UNL     1       0.864   9.341  20.803  0.00  0.00    +0.000 A 
ATOM      4  C   UNL     1       1.403   8.056  20.830  0.00  0.00    +0.000 A 
ATOM      5  C   UNL     1       1.984   7.512  19.690  0.00  0.00    +0.000 A 
ATOM      6  C   UNL     1       2.041   8.277  18.526  0.00  0.00    +0.000 A 
ATOM      7  C   UNL     1       1.513   9.573  18.502  0.00  0.00    +0.000 A 
BRANCH   2   9
ATOM      8  C   UNL     1      -0.570  11.719  20.880  0.00  0.00    +0.000 C 
ATOM      9  C   UNL     1       0.298  11.558  19.601  0.00  0.00    +0.000 C 
ATOM     10  C   UNL     1      -0.668  11.738  18.401  0.00  0.00    +0.000 C 
BRANCH   9  11
ATOM     11  C   UNL     1       1.381  12.667  19.499  0.00  0.00    +0.000 A 
ATOM     12  C   UNL     1       2.140  13.063  20.617  0.00  0.00    +0.000 A 
ATOM     13  C   UNL     1       3.111  14.070  20.523  0.00  0.00    +0.000 A 
ATOM     14  C   UNL     1       3.354  14.679  19.299  0.00  0.00    +0.000 A 
ATOM     15  C   UNL     1       2.646  14.293  18.172  0.00  0.00    +0.000 A 
ATOM     16  C   UNL     1       1.672  13.295  18.270  0.00  0.00    +0.000 A 
BRANCH  14  17
ATOM     17  O   UNL     1       4.288  15.661  19.162  0.00  0.00    +0.000 OA
ATOM     18  H   UNL     1       4.652  15.615  18.264  0.00  0.00    +0.000 HD
ENDBRANCH  14  17
ENDBRANCH   9  11
ENDBRANCH   2   9
ENDBRANCH   1   5
BRANCH   1  19
ATOM     19  C   UNL     1       2.268   5.397  20.718  0.00  0.00    +0.000 C 
BRANCH  19  20
ATOM     20  C   UNL     1       1.090   4.489  20.384  0.00  0.00    +0.000 C 
BRANCH  20  21
ATOM     21  C   UNL     1       1.514   3.040  20.131  0.00  0.00    +0.000 C 
BRANCH  21  22
ATOM     22  C   UNL     1       2.932   2.770  20.633  0.00  0.00    +0.000 C 
BRANCH  22  23
ATOM     23  N   UNL     1       3.730   2.203  19.563  0.00  0.00    +0.000 N 
ATOM     24  H   UNL     1       4.349   1.453  19.866  0.00  0.00    +0.000 HD
BRANCH  23  25
ATOM     25  C   UNL     1       4.347   3.093  18.663  0.00  0.00    +0.000 A 
ATOM     26  C   UNL     1       3.875   3.077  17.327  0.00  0.00    +0.000 A 
ATOM     27  C   UNL     1       4.304   3.969  16.318  0.00  0.00    +0.000 A 
ATOM     28  C   UNL     1       5.256   4.974  16.570  0.00  0.00    +0.000 A 
ATOM     29  C   UNL     1       5.784   5.040  17.872  0.00  0.00    +0.000 A 
ATOM     30  N   UNL     1       6.698   5.847  18.430  0.00  0.00    +0.000 NA
ATOM     31  O   UNL     1       6.813   5.463  19.746  0.00  0.00    +0.000 OA
ATOM     32  N   UNL     1       5.983   4.408  20.046  0.00  0.00    +0.000 NA
ATOM     33  C   UNL     1       5.324   4.108  18.915  0.00  0.00    +0.000 A 
BRANCH  28  34
ATOM     34  N   UNL     1       5.643   5.916  15.538  0.00  0.00    +0.000 N 
ATOM     35  O   UNL     1       6.625   5.610  14.845  0.00  0.00    +0.000 OA
ATOM     36  O   UNL     1       4.989   6.953  15.393  0.00  0.00    +0.000 OA
ENDBRANCH  28  34
ENDBRANCH  23  25
ENDBRANCH  22  23
ENDBRANCH  21  22
ENDBRANCH  20  21
ENDBRANCH  19  20
ENDBRANCH   1  19
TORSDOF 11
ENDMDL
MODEL 7
REMARK VINA RESULT:      -8.0      1.114      2.397
REMARK  Name = 
REMARK  13 active torsions:
REMARK  status: ('A' for Active; 'I' for Inactive)
REMARK    1  A    between atoms: C_1  and  C_2
REMARK    2  A    between atoms: C_2  and  C_3
REMARK    3  A    between atoms: C_2  and  C_4
REMARK    4  A    between atoms: C_2  and  C_11
REMARK    5  A    between atoms: C_7  and  O_8
REMARK    6  A    between atoms: C_14  and  O_15
REMARK    7  A    between atoms: O_15  and  C_16
REMARK    8  A    between atoms: C_16  and  C_17
REMARK    9  A    between atoms: C_17  and  C_18
REMARK   10  A    between atoms: C_18  and  C_19
REMARK   11  A    between atoms: C_19  and  N_20
REMARK   12  A    between atoms: N_20  and  C_21
REMARK   13  A    between atoms: C_24  and  N_25
REMARK                            x       y       z     vdW  Elec       q    Type
REMARK                         _______ _______ _______ _____ _____    ______ ____
ROOT
ATOM      1  O   UNL     1       2.608   5.762  20.082  0.00  0.00    +0.000 OA
ENDROOT
BRANCH   1   5
ATOM      2  C   UNL     1       0.943   9.584  19.600  0.00  0.00    +0.000 A 
ATOM      3  C   UNL     1       0.742   8.874  20.795  0.00  0.00    +0.000 A 
ATOM      4  C   UNL     1       1.294   7.610  20.995  0.00  0.00    +0.000 A 
ATOM      5  C   UNL     1       2.051   7.006  19.997  0.00  0.00    +0.000 A 
ATOM      6  C   UNL     1       2.271   7.690  18.803  0.00  0.00    +0.000 A 
ATOM      7  C   UNL     1       1.729   8.966  18.606  0.00  0.00    +0.000 A 
BRANCH   2   9
ATOM      8  C   UNL     1       1.376  11.816  18.575  0.00  0.00    +0.000 C 
ATOM      9  C   UNL     1       0.326  10.986  19.365  0.00  0.00    +0.000 C 
ATOM     10  C   UNL     1       0.094  11.744  20.698  0.00  0.00    +0.000 C 
BRANCH   9  11
ATOM     11  C   UNL     1      -1.036  10.925  18.620  0.00  0.00    +0.000 A 
ATOM     12  C   UNL     1      -2.100  11.785  18.954  0.00  0.00    +0.000 A 
ATOM     13  C   UNL     1      -3.330  11.722  18.285  0.00  0.00    +0.000 A 
ATOM     14  C   UNL     1      -3.504  10.812  17.251  0.00  0.00    +0.000 A 
ATOM     15  C   UNL     1      -2.470   9.971  16.876  0.00  0.00    +0.000 A 
ATOM     16  C   UNL     1      -1.246  10.029  17.551  0.00  0.00    +0.000 A 
BRANCH  14  17
ATOM     17  O   UNL     1      -4.683  10.716  16.574  0.00  0.00    +0.000 OA
ATOM     18  H   UNL     1      -5.376  10.450  17.200  0.00  0.00    +0.000 HD
ENDBRANCH  14  17
ENDBRANCH   9  11
ENDBRANCH   2   9
ENDBRANCH   1   5
BRANCH   1  19
ATOM     19  C   UNL     1       1.694   4.677  20.246  0.00  0.00    +0.000 C 
BRANCH  19  20
ATOM     20  C   UNL     1       1.524   3.978  18.903  0.00  0.00    +0.000 C 
BRANCH  20  21
ATOM     21  C   UNL     1       2.199   2.605  18.862  0.00  0.00    +0.000 C 
BRANCH  21  22
ATOM     22  C   UNL     1       3.666   2.709  18.444  0.00  0.00    +0.000 C 
BRANCH  22  23
ATOM     23  N   UNL     1       4.001   4.096  18.182  0.00  0.00    +0.000 N 
ATOM     24  H   UNL     1       3.191   4.709  18.114  0.00  0.00    +0.000 HD
BRANCH  23  25
ATOM     25  C   UNL     1       4.971   4.359  17.194  0.00  0.00    +0.000 A 
ATOM     26  C   UNL     1       4.863   3.630  15.985  0.00  0.00    +0.000 A 
ATOM     27  C   UNL     1       5.681   3.836  14.851  0.00  0.00    +0.000 A 
ATOM     28  C   UNL     1       6.693   4.815  14.833  0.00  0.00    +0.000 A 
ATOM     29  C   UNL     1       6.871   5.569  16.008  0.00  0.00    +0.000 A 
ATOM     30  N   UNL     1       7.733   6.546  16.325  0.00  0.00    +0.000 NA
ATOM     31  O   UNL     1       7.439   6.930  17.613  0.00  0.00    +0.000 OA
ATOM     32  N   UNL     1       6.393   6.205  18.137  0.00  0.00    +0.000 NA
ATOM     33  C   UNL     1       6.007   5.346  17.179  0.00  0.00    +0.000 A 
BRANCH  28  34
ATOM     34  N   UNL     1       7.485   5.052  13.643  0.00  0.00    +0.000 N 
ATOM     35  O   UNL     1       8.467   5.800  13.768  0.00  0.00    +0.000 OA
ATOM     36  O   UNL     1       7.160   4.506  12.584  0.00  0.00    +0.000 OA
ENDBRANCH  28  34
ENDBRANCH  23  25
ENDBRANCH  22  23
ENDBRANCH  21  22
ENDBRANCH  20  21
ENDBRANCH  19  20
ENDBRANCH   1  19
TORSDOF 11
ENDMDL
MODEL 8
REMARK VINA RESULT:      -8.0      2.125      3.101
REMARK  Name = 
REMARK  13 active torsions:
REMARK  status: ('A' for Active; 'I' for Inactive)
REMARK    1  A    between atoms: C_1  and  C_2
REMARK    2  A    between atoms: C_2  and  C_3
REMARK    3  A    between atoms: C_2  and  C_4
REMARK    4  A    between atoms: C_2  and  C_11
REMARK    5  A    between atoms: C_7  and  O_8
REMARK    6  A    between atoms: C_14  and  O_15
REMARK    7  A    between atoms: O_15  and  C_16
REMARK    8  A    between atoms: C_16  and  C_17
REMARK    9  A    between atoms: C_17  and  C_18
REMARK   10  A    between atoms: C_18  and  C_19
REMARK   11  A    between atoms: C_19  and  N_20
REMARK   12  A    between atoms: N_20  and  C_21
REMARK   13  A    between atoms: C_24  and  N_25
REMARK                            x       y       z     vdW  Elec       q    Type
REMARK                         _______ _______ _______ _____ _____    ______ ____
ROOT
ATOM      1  O   UNL     1       2.327   6.476  19.474  0.00  0.00    +0.000 OA
ENDROOT
BRANCH   1   5
ATOM      2  C   UNL     1       0.940  10.421  19.822  0.00  0.00    +0.000 A 
ATOM      3  C   UNL     1       1.399   9.943  18.584  0.00  0.00    +0.000 A 
ATOM      4  C   UNL     1       1.851   8.634  18.429  0.00  0.00    +0.000 A 
ATOM      5  C   UNL     1       1.876   7.764  19.513  0.00  0.00    +0.000 A 
ATOM      6  C   UNL     1       1.420   8.210  20.752  0.00  0.00    +0.000 A 
ATOM      7  C   UNL     1       0.952   9.521  20.907  0.00  0.00    +0.000 A 
BRANCH   2   9
ATOM      8  C   UNL     1       0.093  12.418  18.592  0.00  0.00    +0.000 C 
ATOM      9  C   UNL     1       0.443  11.877  20.006  0.00  0.00    +0.000 C 
ATOM     10  C   UNL     1       1.562  12.802  20.554  0.00  0.00    +0.000 C 
BRANCH   9  11
ATOM     11  C   UNL     1      -0.765  11.982  20.977  0.00  0.00    +0.000 A 
ATOM     12  C   UNL     1      -0.645  11.662  22.343  0.00  0.00    +0.000 A 
ATOM     13  C   UNL     1      -1.739  11.750  23.214  0.00  0.00    +0.000 A 
ATOM     14  C   UNL     1      -2.967  12.185  22.734  0.00  0.00    +0.000 A 
ATOM     15  C   UNL     1      -3.114  12.536  21.402  0.00  0.00    +0.000 A 
ATOM     16  C   UNL     1      -2.023  12.439  20.533  0.00  0.00    +0.000 A 
BRANCH  14  17
ATOM     17  O   UNL     1      -4.057  12.286  23.545  0.00  0.00    +0.000 OA
ATOM     18  H   UNL     1      -4.375  11.391  23.744  0.00  0.00    +0.000 HD
ENDBRANCH  14  17
ENDBRANCH   9  11
ENDBRANCH   2   9
ENDBRANCH   1   5
BRANCH   1  19
ATOM     19  C   UNL     1       1.955   5.648  20.576  0.00  0.00    +0.000 C 
BRANCH  19  20
ATOM     20  C   UNL     1       0.995   4.576  20.075  0.00  0.00    +0.000 C 
BRANCH  20  21
ATOM     21  C   UNL     1       1.363   3.175  20.570  0.00  0.00    +0.000 C 
BRANCH  21  22
ATOM     22  C   UNL     1       2.859   3.052  20.856  0.00  0.00    +0.000 C 
BRANCH  22  23
ATOM     23  N   UNL     1       3.518   2.398  19.742  0.00  0.00    +0.000 N 
ATOM     24  H   UNL     1       4.065   1.581  20.010  0.00  0.00    +0.000 HD
BRANCH  23  25
ATOM     25  C   UNL     1       4.176   3.212  18.800  0.00  0.00    +0.000 A 
ATOM     26  C   UNL     1       3.680   3.178  17.473  0.00  0.00    +0.000 A 
ATOM     27  C   UNL     1       4.148   4.001  16.424  0.00  0.00    +0.000 A 
ATOM     28  C   UNL     1       5.168   4.951  16.623  0.00  0.00    +0.000 A 
ATOM     29  C   UNL     1       5.722   5.029  17.914  0.00  0.00    +0.000 A 
ATOM     30  N   UNL     1       6.696   5.795  18.426  0.00  0.00    +0.000 NA
ATOM     31  O   UNL     1       6.810   5.453  19.754  0.00  0.00    +0.000 OA
ATOM     32  N   UNL     1       5.918   4.467  20.106  0.00  0.00    +0.000 NA
ATOM     33  C   UNL     1       5.221   4.169  18.997  0.00  0.00    +0.000 A 
BRANCH  28  34
ATOM     34  N   UNL     1       5.597   5.826  15.550  0.00  0.00    +0.000 N 
ATOM     35  O   UNL     1       6.541   5.429  14.851  0.00  0.00    +0.000 OA
ATOM     36  O   UNL     1       5.013   6.901  15.380  0.00  0.00    +0.000 OA
ENDBRANCH  28  34
ENDBRANCH  23  25
ENDBRANCH  22  23
ENDBRANCH  21  22
ENDBRANCH  20  21
ENDBRANCH  19  20
ENDBRANCH   1  19
TORSDOF 11
ENDMDL
MODEL 9
REMARK VINA RESULT:      -7.9      2.398      3.596
REMARK  Name = 
REMARK  13 active torsions:
REMARK  status: ('A' for Active; 'I' for Inactive)
REMARK    1  A    between atoms: C_1  and  C_2
REMARK    2  A    between atoms: C_2  and  C_3
REMARK    3  A    between atoms: C_2  and  C_4
REMARK    4  A    between atoms: C_2  and  C_11
REMARK    5  A    between atoms: C_7  and  O_8
REMARK    6  A    between atoms: C_14  and  O_15
REMARK    7  A    between atoms: O_15  and  C_16
REMARK    8  A    between atoms: C_16  and  C_17
REMARK    9  A    between atoms: C_17  and  C_18
REMARK   10  A    between atoms: C_18  and  C_19
REMARK   11  A    between atoms: C_19  and  N_20
REMARK   12  A    between atoms: N_20  and  C_21
REMARK   13  A    between atoms: C_24  and  N_25
REMARK                            x       y       z     vdW  Elec       q    Type
REMARK                         _______ _______ _______ _____ _____    ______ ____
ROOT
ATOM      1  O   UNL     1       2.769   6.623  19.601  0.00  0.00    +0.000 OA
ENDROOT
BRANCH   1   5
ATOM      2  C   UNL     1       0.534  10.166  19.368  0.00  0.00    +0.000 A 
ATOM      3  C   UNL     1       1.148   9.644  18.218  0.00  0.00    +0.000 A 
ATOM      4  C   UNL     1       1.883   8.461  18.256  0.00  0.00    +0.000 A 
ATOM      5  C   UNL     1       2.045   7.771  19.452  0.00  0.00    +0.000 A 
ATOM      6  C   UNL     1       1.442   8.263  20.607  0.00  0.00    +0.000 A 
ATOM      7  C   UNL     1       0.691   9.444  20.568  0.00  0.00    +0.000 A 
BRANCH   2   9
ATOM      8  C   UNL     1      -1.118  11.531  20.644  0.00  0.00    +0.000 C 
ATOM      9  C   UNL     1      -0.279  11.486  19.337  0.00  0.00    +0.000 C 
ATOM     10  C   UNL     1      -1.301  11.506  18.170  0.00  0.00    +0.000 C 
BRANCH   9  11
ATOM     11  C   UNL     1       0.623  12.743  19.190  0.00  0.00    +0.000 A 
ATOM     12  C   UNL     1       2.028  12.654  19.236  0.00  0.00    +0.000 A 
ATOM     13  C   UNL     1       2.837  13.791  19.111  0.00  0.00    +0.000 A 
ATOM     14  C   UNL     1       2.251  15.034  18.911  0.00  0.00    +0.000 A 
ATOM     15  C   UNL     1       0.874  15.154  18.831  0.00  0.00    +0.000 A 
ATOM     16  C   UNL     1       0.067  14.020  18.966  0.00  0.00    +0.000 A 
BRANCH  14  17
ATOM     17  O   UNL     1       3.000  16.165  18.784  0.00  0.00    +0.000 OA
ATOM     18  H   UNL     1       2.520  16.899  19.199  0.00  0.00    +0.000 HD
ENDBRANCH  14  17
ENDBRANCH   9  11
ENDBRANCH   2   9
ENDBRANCH   1   5
BRANCH   1  19
ATOM     19  C   UNL     1       2.014   5.417  19.722  0.00  0.00    +0.000 C 
BRANCH  19  20
ATOM     20  C   UNL     1       2.377   4.747  21.042  0.00  0.00    +0.000 C 
BRANCH  20  21
ATOM     21  C   UNL     1       2.044   3.254  21.058  0.00  0.00    +0.000 C 
BRANCH  21  22
ATOM     22  C   UNL     1       2.608   2.535  19.833  0.00  0.00    +0.000 C 
BRANCH  22  23
ATOM     23  N   UNL     1       4.052   2.666  19.814  0.00  0.00    +0.000 N 
ATOM     24  H   UNL     1       4.459   2.871  20.725  0.00  0.00    +0.000 HD
BRANCH  23  25
ATOM     25  C   UNL     1       4.628   3.422  18.774  0.00  0.00    +0.000 A 
ATOM     26  C   UNL     1       4.073   3.254  17.481  0.00  0.00    +0.000 A 
ATOM     27  C   UNL     1       4.454   4.002  16.345  0.00  0.00    +0.000 A 
ATOM     28  C   UNL     1       5.438   5.007  16.412  0.00  0.00    +0.000 A 
ATOM     29  C   UNL     1       6.047   5.219  17.662  0.00  0.00    +0.000 A 
ATOM     30  N   UNL     1       7.008   6.066  18.059  0.00  0.00    +0.000 NA
ATOM     31  O   UNL     1       7.199   5.844  19.404  0.00  0.00    +0.000 OA
ATOM     32  N   UNL     1       6.370   4.856  19.882  0.00  0.00    +0.000 NA
ATOM     33  C   UNL     1       5.636   4.435  18.838  0.00  0.00    +0.000 A 
BRANCH  28  34
ATOM     34  N   UNL     1       5.776   5.804  15.249  0.00  0.00    +0.000 N 
ATOM     35  O   UNL     1       6.660   5.355  14.505  0.00  0.00    +0.000 OA
ATOM     36  O   UNL     1       5.178   6.866  15.052  0.00  0.00    +0.000 OA
ENDBRANCH  28  34
ENDBRANCH  23  25
ENDBRANCH  22  23
ENDBRANCH  21  22
ENDBRANCH  20  21
ENDBRANCH  19  20
ENDBRANCH   1  19
TORSDOF 11
ENDMDL
