MODEL 1
REMARK VINA RESULT:      -8.3      0.000      0.000
REMARK  Name = 
REMARK  6 active torsions:
REMARK  status: ('A' for Active; 'I' for Inactive)
REMARK    1  A    between atoms: C_1  and  S_2
REMARK    2  A    between atoms: S_2  and  N_5
REMARK    3  A    between atoms: C_6  and  C_8
REMARK    4  A    between atoms: C_8  and  N_9
REMARK    5  A    between atoms: C_12  and  N_13
REMARK    6  A    between atoms: C_14  and  C_16
REMARK                            x       y       z     vdW  Elec       q    Type
REMARK                         _______ _______ _______ _____ _____    ______ ____
ROOT
ATOM      1  N   UNL     1       3.087   5.848  18.681  0.00  0.00    +0.000 N 
ATOM      2  C   UNL     1       2.438   7.066  18.890  0.00  0.00    +0.000 C 
ATOM      3  O   UNL     1       2.256   7.889  17.990  0.00  0.00    +0.000 OA
ATOM      4  C   UNL     1       2.008   7.339  20.336  0.00  0.00    +0.000 C 
ATOM      5  C   UNL     1       1.209   6.136  20.819  0.00  0.00    +0.000 C 
ATOM      6  C   UNL     1       2.043   4.892  20.669  0.00  0.00    +0.000 A 
ATOM      7  C   UNL     1       1.815   3.800  21.520  0.00  0.00    +0.000 A 
ATOM      8  C   UNL     1       2.588   2.649  21.409  0.00  0.00    +0.000 A 
ATOM      9  C   UNL     1       3.602   2.586  20.459  0.00  0.00    +0.000 A 
ATOM     10  C   UNL     1       3.803   3.648  19.574  0.00  0.00    +0.000 A 
ATOM     11  C   UNL     1       3.005   4.795  19.643  0.00  0.00    +0.000 A 
ENDROOT
BRANCH   4  12
ATOM     12  N   UNL     1       1.235   8.570  20.400  0.00  0.00    +0.000 N 
ATOM     13  C   UNL     1       1.231   9.368  21.516  0.00  0.00    +0.000 C 
ATOM     14  O   UNL     1       1.857   9.085  22.530  0.00  0.00    +0.000 OA
ATOM     15  H   UNL     1       0.872   8.930  19.527  0.00  0.00    +0.000 HD
BRANCH  13  16
ATOM     16  C   UNL     1       0.441  10.574  21.402  0.00  0.00    +0.000 A 
ATOM     17  C   UNL     1      -0.642  11.039  22.157  0.00  0.00    +0.000 A 
ATOM     18  C   UNL     1      -0.984  12.256  21.593  0.00  0.00    +0.000 A 
ATOM     19  C   UNL     1      -1.963  13.205  21.874  0.00  0.00    +0.000 A 
ATOM     20  C   UNL     1      -1.823  14.230  20.954  0.00  0.00    +0.000 A 
ATOM     21 CL   UNL     1      -2.792  15.645  20.846  0.00  0.00    +0.000 Cl
ATOM     22  S   UNL     1      -0.531  13.997  19.834  0.00  0.00    +0.000 S 
ATOM     23  C   UNL     1      -0.180  12.545  20.562  0.00  0.00    +0.000 A 
ATOM     24  N   UNL     1       0.716  11.539  20.427  0.00  0.00    +0.000 N 
ATOM     25  H   UNL     1       1.460  11.470  19.743  0.00  0.00    +0.000 HD
ENDBRANCH  13  16
ENDBRANCH   4  12
BRANCH   1  26
ATOM     26  C   UNL     1       3.720   5.624  17.377  0.00  0.00    +0.000 C 
BRANCH  26  28
ATOM     27  N   UNL     1       5.900   6.833  17.686  0.00  0.00    +0.000 N 
ATOM     28  C   UNL     1       5.252   5.637  17.342  0.00  0.00    +0.000 C 
ATOM     29  O   UNL     1       5.878   4.613  17.085  0.00  0.00    +0.000 OA
ATOM     30  H   UNL     1       5.374   7.658  17.957  0.00  0.00    +0.000 HD
BRANCH  27  32
ATOM     31  C   UNL     1       7.687   8.841  17.735  0.00  0.00    +0.000 C 
ATOM     32  S   UNL     1       7.541   7.069  17.616  0.00  0.00    +0.000 S 
ATOM     33  O   UNL     1       7.921   6.686  16.272  0.00  0.00    +0.000 OA
ATOM     34  O   UNL     1       8.157   6.446  18.764  0.00  0.00    +0.000 OA
ENDBRANCH  27  32
ENDBRANCH  26  28
ENDBRANCH   1  26
TORSDOF 5
ENDMDL
MODEL 2
REMARK VINA RESULT:      -8.1      1.536      2.000
REMARK  Name = 
REMARK  6 active torsions:
REMARK  status: ('A' for Active; 'I' for Inactive)
REMARK    1  A    between atoms: C_1  and  S_2
REMARK    2  A    between atoms: S_2  and  N_5
REMARK    3  A    between atoms: C_6  and  C_8
REMARK    4  A    between atoms: C_8  and  N_9
REMARK    5  A    between atoms: C_12  and  N_13
REMARK    6  A    between atoms: C_14  and  C_16
REMARK                            x       y       z     vdW  Elec       q    Type
REMARK                         _______ _______ _______ _____ _____    ______ ____
ROOT
ATOM      1  N   UNL     1       2.969   6.743  18.675  0.00  0.00    +0.000 N 
ATOM      2  C   UNL     1       2.145   7.742  19.196  0.00  0.00    +0.000 C 
ATOM      3  O   UNL     1       1.783   8.720  18.539  0.00  0.00    +0.000 OA
ATOM      4  C   UNL     1       1.758   7.569  20.670  0.00  0.00    +0.000 C 
ATOM      5  C   UNL     1       1.191   6.165  20.841  0.00  0.00    +0.000 C 
ATOM      6  C   UNL     1       2.205   5.158  20.367  0.00  0.00    +0.000 A 
ATOM      7  C   UNL     1       2.204   3.867  20.914  0.00  0.00    +0.000 A 
ATOM      8  C   UNL     1       3.146   2.929  20.504  0.00  0.00    +0.000 A 
ATOM      9  C   UNL     1       4.102   3.278  19.556  0.00  0.00    +0.000 A 
ATOM     10  C   UNL     1       4.079   4.545  18.968  0.00  0.00    +0.000 A 
ATOM     11  C   UNL     1       3.112   5.486  19.338  0.00  0.00    +0.000 A 
ENDROOT
BRANCH   4  12
ATOM     12  N   UNL     1       0.801   8.594  21.056  0.00  0.00    +0.000 N 
ATOM     13  C   UNL     1       1.050   9.471  22.081  0.00  0.00    +0.000 C 
ATOM     14  O   UNL     1       2.077   9.431  22.747  0.00  0.00    +0.000 OA
ATOM     15  H   UNL     1       0.044   8.782  20.410  0.00  0.00    +0.000 HD
BRANCH  13  16
ATOM     16  C   UNL     1       0.013  10.453  22.311  0.00  0.00    +0.000 A 
ATOM     17  C   UNL     1      -1.097  10.436  23.163  0.00  0.00    +0.000 A 
ATOM     18  C   UNL     1      -1.728  11.653  22.966  0.00  0.00    +0.000 A 
ATOM     19  C   UNL     1      -2.869  12.242  23.501  0.00  0.00    +0.000 A 
ATOM     20  C   UNL     1      -3.009  13.486  22.909  0.00  0.00    +0.000 A 
ATOM     21 CL   UNL     1      -4.265  14.622  23.204  0.00  0.00    +0.000 Cl
ATOM     22  S   UNL     1      -1.767  13.868  21.774  0.00  0.00    +0.000 S 
ATOM     23  C   UNL     1      -1.067  12.388  22.061  0.00  0.00    +0.000 A 
ATOM     24  N   UNL     1       0.014  11.686  21.650  0.00  0.00    +0.000 N 
ATOM     25  H   UNL     1       0.713  11.978  20.977  0.00  0.00    +0.000 HD
ENDBRANCH  13  16
ENDBRANCH   4  12
BRANCH   1  26
ATOM     26  C   UNL     1       3.556   6.962  17.349  0.00  0.00    +0.000 C 
BRANCH  26  28
ATOM     27  N   UNL     1       5.255   5.579  16.119  0.00  0.00    +0.000 N 
ATOM     28  C   UNL     1       5.003   6.499  17.149  0.00  0.00    +0.000 C 
ATOM     29  O   UNL     1       5.909   6.972  17.828  0.00  0.00    +0.000 OA
ATOM     30  H   UNL     1       4.507   5.240  15.522  0.00  0.00    +0.000 HD
BRANCH  27  32
ATOM     31  C   UNL     1       6.377   3.789  14.457  0.00  0.00    +0.000 C 
ATOM     32  S   UNL     1       6.733   4.892  15.812  0.00  0.00    +0.000 S 
ATOM     33  O   UNL     1       7.023   4.080  16.975  0.00  0.00    +0.000 OA
ATOM     34  O   UNL     1       7.652   5.919  15.380  0.00  0.00    +0.000 OA
ENDBRANCH  27  32
ENDBRANCH  26  28
ENDBRANCH   1  26
TORSDOF 5
ENDMDL
MODEL 3
REMARK VINA RESULT:      -8.1      1.335      1.435
REMARK  Name = 
REMARK  6 active torsions:
REMARK  status: ('A' for Active; 'I' for Inactive)
REMARK    1  A    between atoms: C_1  and  S_2
REMARK    2  A    between atoms: S_2  and  N_5
REMARK    3  A    between atoms: C_6  and  C_8
REMARK    4  A    between atoms: C_8  and  N_9
REMARK    5  A    between atoms: C_12  and  N_13
REMARK    6  A    between atoms: C_14  and  C_16
REMARK                            x       y       z     vdW  Elec       q    Type
REMARK                         _______ _______ _______ _____ _____    ______ ____
ROOT
ATOM      1  N   UNL     1       2.887   5.845  18.755  0.00  0.00    +0.000 N 
ATOM      2  C   UNL     1       2.218   7.040  19.030  0.00  0.00    +0.000 C 
ATOM      3  O   UNL     1       1.952   7.872  18.160  0.00  0.00    +0.000 OA
ATOM      4  C   UNL     1       1.878   7.275  20.506  0.00  0.00    +0.000 C 
ATOM      5  C   UNL     1       1.148   6.040  21.018  0.00  0.00    +0.000 C 
ATOM      6  C   UNL     1       2.006   4.825  20.790  0.00  0.00    +0.000 A 
ATOM      7  C   UNL     1       1.867   3.713  21.633  0.00  0.00    +0.000 A 
ATOM      8  C   UNL     1       2.665   2.588  21.449  0.00  0.00    +0.000 A 
ATOM      9  C   UNL     1       3.615   2.572  20.434  0.00  0.00    +0.000 A 
ATOM     10  C   UNL     1       3.725   3.654  19.557  0.00  0.00    +0.000 A 
ATOM     11  C   UNL     1       2.900   4.775  19.701  0.00  0.00    +0.000 A 
ENDROOT
BRANCH   4  12
ATOM     12  N   UNL     1       1.074   8.480  20.644  0.00  0.00    +0.000 N 
ATOM     13  C   UNL     1       1.195   9.313  21.727  0.00  0.00    +0.000 C 
ATOM     14  O   UNL     1       1.966   9.084  22.652  0.00  0.00    +0.000 OA
ATOM     15  H   UNL     1       0.581   8.800  19.821  0.00  0.00    +0.000 HD
BRANCH  13  16
ATOM     16  C   UNL     1       0.352  10.488  21.693  0.00  0.00    +0.000 A 
ATOM     17  C   UNL     1       0.238  11.510  20.744  0.00  0.00    +0.000 A 
ATOM     18  C   UNL     1      -0.738  12.360  21.238  0.00  0.00    +0.000 A 
ATOM     19  C   UNL     1      -1.304  13.544  20.778  0.00  0.00    +0.000 A 
ATOM     20  C   UNL     1      -2.241  13.947  21.716  0.00  0.00    +0.000 A 
ATOM     21 CL   UNL     1      -3.217  15.359  21.642  0.00  0.00    +0.000 Cl
ATOM     22  S   UNL     1      -2.389  12.881  23.064  0.00  0.00    +0.000 S 
ATOM     23  C   UNL     1      -1.209  11.910  22.409  0.00  0.00    +0.000 A 
ATOM     24  N   UNL     1      -0.571  10.755  22.710  0.00  0.00    +0.000 N 
ATOM     25  H   UNL     1      -0.714  10.171  23.525  0.00  0.00    +0.000 HD
ENDBRANCH  13  16
ENDBRANCH   4  12
BRANCH   1  26
ATOM     26  C   UNL     1       3.438   5.663  17.408  0.00  0.00    +0.000 C 
BRANCH  26  28
ATOM     27  N   UNL     1       5.888   5.110  17.368  0.00  0.00    +0.000 N 
ATOM     28  C   UNL     1       4.895   6.087  17.195  0.00  0.00    +0.000 C 
ATOM     29  O   UNL     1       5.165   7.224  16.823  0.00  0.00    +0.000 OA
ATOM     30  H   UNL     1       5.649   4.155  17.617  0.00  0.00    +0.000 HD
BRANCH  27  32
ATOM     31  C   UNL     1       7.841   6.305  18.777  0.00  0.00    +0.000 C 
ATOM     32  S   UNL     1       7.518   5.399  17.276  0.00  0.00    +0.000 S 
ATOM     33  O   UNL     1       7.679   6.315  16.166  0.00  0.00    +0.000 OA
ATOM     34  O   UNL     1       8.224   4.139  17.301  0.00  0.00    +0.000 OA
ENDBRANCH  27  32
ENDBRANCH  26  28
ENDBRANCH   1  26
TORSDOF 5
ENDMDL
MODEL 4
REMARK VINA RESULT:      -8.0      1.043      1.084
REMARK  Name = 
REMARK  6 active torsions:
REMARK  status: ('A' for Active; 'I' for Inactive)
REMARK    1  A    between atoms: C_1  and  S_2
REMARK    2  A    between atoms: S_2  and  N_5
REMARK    3  A    between atoms: C_6  and  C_8
REMARK    4  A    between atoms: C_8  and  N_9
REMARK    5  A    between atoms: C_12  and  N_13
REMARK    6  A    between atoms: C_14  and  C_16
REMARK                            x       y       z     vdW  Elec       q    Type
REMARK                         _______ _______ _______ _____ _____    ______ ____
ROOT
ATOM      1  N   UNL     1       2.972   5.410  18.440  0.00  0.00    +0.000 N 
ATOM      2  C   UNL     1       2.438   6.691  18.588  0.00  0.00    +0.000 C 
ATOM      3  O   UNL     1       2.204   7.433  17.631  0.00  0.00    +0.000 OA
ATOM      4  C   UNL     1       2.207   7.141  20.035  0.00  0.00    +0.000 C 
ATOM      5  C   UNL     1       1.392   6.060  20.734  0.00  0.00    +0.000 C 
ATOM      6  C   UNL     1       2.115   4.744  20.626  0.00  0.00    +0.000 A 
ATOM      7  C   UNL     1       1.918   3.765  21.610  0.00  0.00    +0.000 A 
ATOM      8  C   UNL     1       2.592   2.550  21.538  0.00  0.00    +0.000 A 
ATOM      9  C   UNL     1       3.476   2.311  20.492  0.00  0.00    +0.000 A 
ATOM     10  C   UNL     1       3.640   3.260  19.479  0.00  0.00    +0.000 A 
ATOM     11  C   UNL     1       2.936   4.469  19.514  0.00  0.00    +0.000 A 
ENDROOT
BRANCH   4  12
ATOM     12  N   UNL     1       1.532   8.430  20.053  0.00  0.00    +0.000 N 
ATOM     13  C   UNL     1       1.345   9.136  21.214  0.00  0.00    +0.000 C 
ATOM     14  O   UNL     1       1.711   8.717  22.306  0.00  0.00    +0.000 OA
ATOM     15  H   UNL     1       1.398   8.890  19.162  0.00  0.00    +0.000 HD
BRANCH  13  16
ATOM     16  C   UNL     1       0.692  10.416  21.053  0.00  0.00    +0.000 A 
ATOM     17  C   UNL     1      -0.264  11.066  21.843  0.00  0.00    +0.000 A 
ATOM     18  C   UNL     1      -0.511  12.268  21.200  0.00  0.00    +0.000 A 
ATOM     19  C   UNL     1      -1.347  13.347  21.468  0.00  0.00    +0.000 A 
ATOM     20  C   UNL     1      -1.169  14.272  20.453  0.00  0.00    +0.000 A 
ATOM     21 CL   UNL     1      -1.975  15.781  20.293  0.00  0.00    +0.000 Cl
ATOM     22  S   UNL     1      -0.010  13.797  19.265  0.00  0.00    +0.000 S 
ATOM     23  C   UNL     1       0.232  12.375  20.091  0.00  0.00    +0.000 A 
ATOM     24  N   UNL     1       0.992  11.260  19.979  0.00  0.00    +0.000 N 
ATOM     25  H   UNL     1       1.664  11.048  19.251  0.00  0.00    +0.000 HD
ENDBRANCH  13  16
ENDBRANCH   4  12
BRANCH   1  26
ATOM     26  C   UNL     1       3.425   5.008  17.104  0.00  0.00    +0.000 C 
BRANCH  26  28
ATOM     27  N   UNL     1       5.836   5.123  17.803  0.00  0.00    +0.000 N 
ATOM     28  C   UNL     1       4.898   5.265  16.768  0.00  0.00    +0.000 C 
ATOM     29  O   UNL     1       5.239   5.521  15.618  0.00  0.00    +0.000 OA
ATOM     30  H   UNL     1       5.549   4.851  18.739  0.00  0.00    +0.000 HD
BRANCH  27  32
ATOM     31  C   UNL     1       7.937   5.792  19.340  0.00  0.00    +0.000 C 
ATOM     32  S   UNL     1       7.455   5.452  17.658  0.00  0.00    +0.000 S 
ATOM     33  O   UNL     1       7.525   6.696  16.920  0.00  0.00    +0.000 OA
ATOM     34  O   UNL     1       8.135   4.271  17.180  0.00  0.00    +0.000 OA
ENDBRANCH  27  32
ENDBRANCH  26  28
ENDBRANCH   1  26
TORSDOF 5
ENDMDL
MODEL 5
REMARK VINA RESULT:      -8.0      1.151      1.340
REMARK  Name = 
REMARK  6 active torsions:
REMARK  status: ('A' for Active; 'I' for Inactive)
REMARK    1  A    between atoms: C_1  and  S_2
REMARK    2  A    between atoms: S_2  and  N_5
REMARK    3  A    between atoms: C_6  and  C_8
REMARK    4  A    between atoms: C_8  and  N_9
REMARK    5  A    between atoms: C_12  and  N_13
REMARK    6  A    between atoms: C_14  and  C_16
REMARK                            x       y       z     vdW  Elec       q    Type
REMARK                         _______ _______ _______ _____ _____    ______ ____
ROOT
ATOM      1  N   UNL     1       3.106   5.583  18.547  0.00  0.00    +0.000 N 
ATOM      2  C   UNL     1       2.603   6.879  18.683  0.00  0.00    +0.000 C 
ATOM      3  O   UNL     1       2.615   7.700  17.763  0.00  0.00    +0.000 OA
ATOM      4  C   UNL     1       2.077   7.234  20.078  0.00  0.00    +0.000 C 
ATOM      5  C   UNL     1       1.086   6.153  20.491  0.00  0.00    +0.000 C 
ATOM      6  C   UNL     1       1.763   4.810  20.432  0.00  0.00    +0.000 A 
ATOM      7  C   UNL     1       1.316   3.774  21.266  0.00  0.00    +0.000 A 
ATOM      8  C   UNL     1       1.941   2.531  21.239  0.00  0.00    +0.000 A 
ATOM      9  C   UNL     1       3.024   2.320  20.393  0.00  0.00    +0.000 A 
ATOM     10  C   UNL     1       3.444   3.329  19.522  0.00  0.00    +0.000 A 
ATOM     11  C   UNL     1       2.798   4.570  19.505  0.00  0.00    +0.000 A 
ENDROOT
BRANCH   4  12
ATOM     12  N   UNL     1       1.466   8.554  20.057  0.00  0.00    +0.000 N 
ATOM     13  C   UNL     1       1.147   9.225  21.211  0.00  0.00    +0.000 C 
ATOM     14  O   UNL     1       1.333   8.748  22.323  0.00  0.00    +0.000 OA
ATOM     15  H   UNL     1       1.482   9.054  19.177  0.00  0.00    +0.000 HD
BRANCH  13  16
ATOM     16  C   UNL     1       0.582  10.542  21.016  0.00  0.00    +0.000 A 
ATOM     17  C   UNL     1       0.525  11.360  19.881  0.00  0.00    +0.000 A 
ATOM     18  C   UNL     1      -0.144  12.502  20.288  0.00  0.00    +0.000 A 
ATOM     19  C   UNL     1      -0.515  13.679  19.645  0.00  0.00    +0.000 A 
ATOM     20  C   UNL     1      -1.164  14.472  20.576  0.00  0.00    +0.000 A 
ATOM     21 CL   UNL     1      -1.813  16.041  20.305  0.00  0.00    +0.000 Cl
ATOM     22  S   UNL     1      -1.298  13.755  22.139  0.00  0.00    +0.000 S 
ATOM     23  C   UNL     1      -0.488  12.416  21.580  0.00  0.00    +0.000 A 
ATOM     24  N   UNL     1      -0.069  11.219  22.053  0.00  0.00    +0.000 N 
ATOM     25  H   UNL     1      -0.188  10.857  22.991  0.00  0.00    +0.000 HD
ENDBRANCH  13  16
ENDBRANCH   4  12
BRANCH   1  26
ATOM     26  C   UNL     1       3.826   5.255  17.312  0.00  0.00    +0.000 C 
BRANCH  26  28
ATOM     27  N   UNL     1       5.969   5.296  18.622  0.00  0.00    +0.000 N 
ATOM     28  C   UNL     1       5.355   5.340  17.361  0.00  0.00    +0.000 C 
ATOM     29  O   UNL     1       6.011   5.379  16.325  0.00  0.00    +0.000 OA
ATOM     30  H   UNL     1       5.420   5.202  19.472  0.00  0.00    +0.000 HD
BRANCH  27  32
ATOM     31  C   UNL     1       7.928   7.092  18.222  0.00  0.00    +0.000 C 
ATOM     32  S   UNL     1       7.597   5.470  18.884  0.00  0.00    +0.000 S 
ATOM     33  O   UNL     1       8.228   4.503  18.009  0.00  0.00    +0.000 OA
ATOM     34  O   UNL     1       7.852   5.457  20.305  0.00  0.00    +0.000 OA
ENDBRANCH  27  32
ENDBRANCH  26  28
ENDBRANCH   1  26
TORSDOF 5
ENDMDL
MODEL 6
REMARK VINA RESULT:      -7.9      1.491      1.597
REMARK  Name = 
REMARK  6 active torsions:
REMARK  status: ('A' for Active; 'I' for Inactive)
REMARK    1  A    between atoms: C_1  and  S_2
REMARK    2  A    between atoms: S_2  and  N_5
REMARK    3  A    between atoms: C_6  and  C_8
REMARK    4  A    between atoms: C_8  and  N_9
REMARK    5  A    between atoms: C_12  and  N_13
REMARK    6  A    between atoms: C_14  and  C_16
REMARK                            x       y       z     vdW  Elec       q    Type
REMARK                         _______ _______ _______ _____ _____    ______ ____
ROOT
ATOM      1  N   UNL     1       3.078   4.976  18.353  0.00  0.00    +0.000 N 
ATOM      2  C   UNL     1       2.677   6.313  18.355  0.00  0.00    +0.000 C 
ATOM      3  O   UNL     1       2.562   6.977  17.322  0.00  0.00    +0.000 OA
ATOM      4  C   UNL     1       2.437   6.923  19.741  0.00  0.00    +0.000 C 
ATOM      5  C   UNL     1       1.485   6.004  20.495  0.00  0.00    +0.000 C 
ATOM      6  C   UNL     1       2.068   4.617  20.546  0.00  0.00    +0.000 A 
ATOM      7  C   UNL     1       1.729   3.764  21.607  0.00  0.00    +0.000 A 
ATOM      8  C   UNL     1       2.274   2.486  21.681  0.00  0.00    +0.000 A 
ATOM      9  C   UNL     1       3.168   2.057  20.708  0.00  0.00    +0.000 A 
ATOM     10  C   UNL     1       3.472   2.880  19.620  0.00  0.00    +0.000 A 
ATOM     11  C   UNL     1       2.900   4.153  19.507  0.00  0.00    +0.000 A 
ENDROOT
BRANCH   4  12
ATOM     12  N   UNL     1       1.902   8.269  19.605  0.00  0.00    +0.000 N 
ATOM     13  C   UNL     1       1.186   8.871  20.608  0.00  0.00    +0.000 C 
ATOM     14  O   UNL     1       0.933   8.308  21.666  0.00  0.00    +0.000 OA
ATOM     15  H   UNL     1       2.256   8.829  18.839  0.00  0.00    +0.000 HD
BRANCH  13  16
ATOM     16  C   UNL     1       0.760  10.225  20.328  0.00  0.00    +0.000 A 
ATOM     17  C   UNL     1       0.012  10.753  19.269  0.00  0.00    +0.000 A 
ATOM     18  C   UNL     1      -0.093  12.108  19.536  0.00  0.00    +0.000 A 
ATOM     19  C   UNL     1      -0.699  13.173  18.879  0.00  0.00    +0.000 A 
ATOM     20  C   UNL     1      -0.461  14.313  19.629  0.00  0.00    +0.000 A 
ATOM     21 CL   UNL     1      -0.978  15.908  19.254  0.00  0.00    +0.000 Cl
ATOM     22  S   UNL     1       0.451  14.030  21.066  0.00  0.00    +0.000 S 
ATOM     23  C   UNL     1       0.537  12.416  20.679  0.00  0.00    +0.000 A 
ATOM     24  N   UNL     1       1.059  11.279  21.197  0.00  0.00    +0.000 N 
ATOM     25  H   UNL     1       1.584  11.185  22.058  0.00  0.00    +0.000 HD
ENDBRANCH  13  16
ENDBRANCH   4  12
BRANCH   1  26
ATOM     26  C   UNL     1       3.539   4.401  17.086  0.00  0.00    +0.000 C 
BRANCH  26  28
ATOM     27  N   UNL     1       5.873   5.044  17.755  0.00  0.00    +0.000 N 
ATOM     28  C   UNL     1       5.018   4.597  16.736  0.00  0.00    +0.000 C 
ATOM     29  O   UNL     1       5.439   4.308  15.620  0.00  0.00    +0.000 OA
ATOM     30  H   UNL     1       5.526   5.222  18.693  0.00  0.00    +0.000 HD
BRANCH  27  32
ATOM     31  C   UNL     1       7.958   6.002  19.156  0.00  0.00    +0.000 C 
ATOM     32  S   UNL     1       7.479   5.405  17.546  0.00  0.00    +0.000 S 
ATOM     33  O   UNL     1       7.499   6.531  16.636  0.00  0.00    +0.000 OA
ATOM     34  O   UNL     1       8.200   4.192  17.237  0.00  0.00    +0.000 OA
ENDBRANCH  27  32
ENDBRANCH  26  28
ENDBRANCH   1  26
TORSDOF 5
ENDMDL
MODEL 7
REMARK VINA RESULT:      -7.9      1.148      1.408
REMARK  Name = 
REMARK  6 active torsions:
REMARK  status: ('A' for Active; 'I' for Inactive)
REMARK    1  A    between atoms: C_1  and  S_2
REMARK    2  A    between atoms: S_2  and  N_5
REMARK    3  A    between atoms: C_6  and  C_8
REMARK    4  A    between atoms: C_8  and  N_9
REMARK    5  A    between atoms: C_12  and  N_13
REMARK    6  A    between atoms: C_14  and  C_16
REMARK                            x       y       z     vdW  Elec       q    Type
REMARK                         _______ _______ _______ _____ _____    ______ ____
ROOT
ATOM      1  N   UNL     1       2.947   5.831  18.740  0.00  0.00    +0.000 N 
ATOM      2  C   UNL     1       2.279   7.032  18.986  0.00  0.00    +0.000 C 
ATOM      3  O   UNL     1       2.027   7.850  18.098  0.00  0.00    +0.000 OA
ATOM      4  C   UNL     1       1.920   7.293  20.453  0.00  0.00    +0.000 C 
ATOM      5  C   UNL     1       1.179   6.069  20.977  0.00  0.00    +0.000 C 
ATOM      6  C   UNL     1       2.036   4.848  20.780  0.00  0.00    +0.000 A 
ATOM      7  C   UNL     1       1.883   3.750  21.640  0.00  0.00    +0.000 A 
ATOM      8  C   UNL     1       2.679   2.620  21.485  0.00  0.00    +0.000 A 
ATOM      9  C   UNL     1       3.641   2.584  20.483  0.00  0.00    +0.000 A 
ATOM     10  C   UNL     1       3.767   3.650  19.589  0.00  0.00    +0.000 A 
ATOM     11  C   UNL     1       2.944   4.777  19.704  0.00  0.00    +0.000 A 
ENDROOT
BRANCH   4  12
ATOM     12  N   UNL     1       1.119   8.503  20.561  0.00  0.00    +0.000 N 
ATOM     13  C   UNL     1       1.190   9.326  21.656  0.00  0.00    +0.000 C 
ATOM     14  O   UNL     1       1.911   9.084  22.616  0.00  0.00    +0.000 OA
ATOM     15  H   UNL     1       0.671   8.834  19.716  0.00  0.00    +0.000 HD
BRANCH  13  16
ATOM     16  C   UNL     1       0.358  10.507  21.588  0.00  0.00    +0.000 A 
ATOM     17  C   UNL     1      -0.586  11.020  22.486  0.00  0.00    +0.000 A 
ATOM     18  C   UNL     1      -1.059  12.180  21.896  0.00  0.00    +0.000 A 
ATOM     19  C   UNL     1      -1.998  13.135  22.270  0.00  0.00    +0.000 A 
ATOM     20  C   UNL     1      -2.054  14.079  21.259  0.00  0.00    +0.000 A 
ATOM     21 CL   UNL     1      -3.068  15.467  21.213  0.00  0.00    +0.000 Cl
ATOM     22  S   UNL     1      -0.976  13.770  19.948  0.00  0.00    +0.000 S 
ATOM     23  C   UNL     1      -0.459  12.390  20.716  0.00  0.00    +0.000 A 
ATOM     24  N   UNL     1       0.427  11.389  20.504  0.00  0.00    +0.000 N 
ATOM     25  H   UNL     1       1.039  11.273  19.706  0.00  0.00    +0.000 HD
ENDBRANCH  13  16
ENDBRANCH   4  12
BRANCH   1  26
ATOM     26  C   UNL     1       3.514   5.625  17.403  0.00  0.00    +0.000 C 
BRANCH  26  28
ATOM     27  N   UNL     1       5.641   5.242  16.123  0.00  0.00    +0.000 N 
ATOM     28  C   UNL     1       5.032   5.781  17.267  0.00  0.00    +0.000 C 
ATOM     29  O   UNL     1       5.672   6.414  18.101  0.00  0.00    +0.000 OA
ATOM     30  H   UNL     1       5.094   4.772  15.407  0.00  0.00    +0.000 HD
BRANCH  27  32
ATOM     31  C   UNL     1       7.375   4.814  14.113  0.00  0.00    +0.000 C 
ATOM     32  S   UNL     1       7.276   5.227  15.845  0.00  0.00    +0.000 S 
ATOM     33  O   UNL     1       7.779   4.095  16.596  0.00  0.00    +0.000 OA
ATOM     34  O   UNL     1       7.805   6.553  16.064  0.00  0.00    +0.000 OA
ENDBRANCH  27  32
ENDBRANCH  26  28
ENDBRANCH   1  26
TORSDOF 5
ENDMDL
MODEL 8
REMARK VINA RESULT:      -7.8      0.973      1.236
REMARK  Name = 
REMARK  6 active torsions:
REMARK  status: ('A' for Active; 'I' for Inactive)
REMARK    1  A    between atoms: C_1  and  S_2
REMARK    2  A    between atoms: S_2  and  N_5
REMARK    3  A    between atoms: C_6  and  C_8
REMARK    4  A    between atoms: C_8  and  N_9
REMARK    5  A    between atoms: C_12  and  N_13
REMARK    6  A    between atoms: C_14  and  C_16
REMARK                            x       y       z     vdW  Elec       q    Type
REMARK                         _______ _______ _______ _____ _____    ______ ____
ROOT
ATOM      1  N   UNL     1       3.032   6.014  18.728  0.00  0.00    +0.000 N 
ATOM      2  C   UNL     1       2.397   7.232  18.975  0.00  0.00    +0.000 C 
ATOM      3  O   UNL     1       2.264   8.104  18.114  0.00  0.00    +0.000 OA
ATOM      4  C   UNL     1       1.914   7.438  20.416  0.00  0.00    +0.000 C 
ATOM      5  C   UNL     1       1.076   6.227  20.804  0.00  0.00    +0.000 C 
ATOM      6  C   UNL     1       1.894   4.977  20.621  0.00  0.00    +0.000 A 
ATOM      7  C   UNL     1       1.613   3.847  21.404  0.00  0.00    +0.000 A 
ATOM      8  C   UNL     1       2.371   2.689  21.263  0.00  0.00    +0.000 A 
ATOM      9  C   UNL     1       3.421   2.656  20.351  0.00  0.00    +0.000 A 
ATOM     10  C   UNL     1       3.675   3.758  19.531  0.00  0.00    +0.000 A 
ATOM     11  C   UNL     1       2.894   4.915  19.630  0.00  0.00    +0.000 A 
ENDROOT
BRANCH   4  12
ATOM     12  N   UNL     1       1.159   8.678  20.515  0.00  0.00    +0.000 N 
ATOM     13  C   UNL     1       1.177   9.451  21.648  0.00  0.00    +0.000 C 
ATOM     14  O   UNL     1       1.805   9.135  22.651  0.00  0.00    +0.000 OA
ATOM     15  H   UNL     1       0.796   9.064  19.653  0.00  0.00    +0.000 HD
BRANCH  13  16
ATOM     16  C   UNL     1       0.404  10.670  21.569  0.00  0.00    +0.000 A 
ATOM     17  C   UNL     1      -0.667  11.133  22.342  0.00  0.00    +0.000 A 
ATOM     18  C   UNL     1      -0.995  12.369  21.810  0.00  0.00    +0.000 A 
ATOM     19  C   UNL     1      -1.958  13.324  22.120  0.00  0.00    +0.000 A 
ATOM     20  C   UNL     1      -1.809  14.369  21.223  0.00  0.00    +0.000 A 
ATOM     21 CL   UNL     1      -2.757  15.800  21.156  0.00  0.00    +0.000 Cl
ATOM     22  S   UNL     1      -0.527  14.144  20.089  0.00  0.00    +0.000 S 
ATOM     23  C   UNL     1      -0.193  12.669  20.780  0.00  0.00    +0.000 A 
ATOM     24  N   UNL     1       0.687  11.654  20.615  0.00  0.00    +0.000 N 
ATOM     25  H   UNL     1       1.425  11.591  19.924  0.00  0.00    +0.000 HD
ENDBRANCH  13  16
ENDBRANCH   4  12
BRANCH   1  26
ATOM     26  C   UNL     1       3.713   5.847  17.440  0.00  0.00    +0.000 C 
BRANCH  26  28
ATOM     27  N   UNL     1       5.893   5.669  18.675  0.00  0.00    +0.000 N 
ATOM     28  C   UNL     1       5.244   5.910  17.454  0.00  0.00    +0.000 C 
ATOM     29  O   UNL     1       5.870   6.100  16.417  0.00  0.00    +0.000 OA
ATOM     30  H   UNL     1       5.367   5.453  19.517  0.00  0.00    +0.000 HD
BRANCH  27  32
ATOM     31  C   UNL     1       8.167   4.467  17.896  0.00  0.00    +0.000 C 
ATOM     32  S   UNL     1       7.530   5.787  18.910  0.00  0.00    +0.000 S 
ATOM     33  O   UNL     1       7.743   5.419  20.295  0.00  0.00    +0.000 OA
ATOM     34  O   UNL     1       7.990   7.060  18.406  0.00  0.00    +0.000 OA
ENDBRANCH  27  32
ENDBRANCH  26  28
ENDBRANCH   1  26
TORSDOF 5
ENDMDL
MODEL 9
REMARK VINA RESULT:      -7.7      4.694     10.241
REMARK  Name = 
REMARK  6 active torsions:
REMARK  status: ('A' for Active; 'I' for Inactive)
REMARK    1  A    between atoms: C_1  and  S_2
REMARK    2  A    between atoms: S_2  and  N_5
REMARK    3  A    between atoms: C_6  and  C_8
REMARK    4  A    between atoms: C_8  and  N_9
REMARK    5  A    between atoms: C_12  and  N_13
REMARK    6  A    between atoms: C_14  and  C_16
REMARK                            x       y       z     vdW  Elec       q    Type
REMARK                         _______ _______ _______ _____ _____    ______ ____
ROOT
ATOM      1  N   UNL     1      -0.863  12.158  18.834  0.00  0.00    +0.000 N 
ATOM      2  C   UNL     1      -0.396  10.843  18.811  0.00  0.00    +0.000 C 
ATOM      3  O   UNL     1      -1.110   9.885  18.506  0.00  0.00    +0.000 OA
ATOM      4  C   UNL     1       1.064  10.659  19.243  0.00  0.00    +0.000 C 
ATOM      5  C   UNL     1       1.917  11.619  18.424  0.00  0.00    +0.000 C 
ATOM      6  C   UNL     1       1.409  13.023  18.617  0.00  0.00    +0.000 A 
ATOM      7  C   UNL     1       2.293  14.103  18.475  0.00  0.00    +0.000 A 
ATOM      8  C   UNL     1       1.847  15.407  18.669  0.00  0.00    +0.000 A 
ATOM      9  C   UNL     1       0.522  15.639  19.019  0.00  0.00    +0.000 A 
ATOM     10  C   UNL     1      -0.378  14.575  19.112  0.00  0.00    +0.000 A 
ATOM     11  C   UNL     1       0.044  13.261  18.877  0.00  0.00    +0.000 A 
ENDROOT
BRANCH   4  12
ATOM     12  N   UNL     1       1.467   9.274  19.053  0.00  0.00    +0.000 N 
ATOM     13  C   UNL     1       1.664   8.423  20.111  0.00  0.00    +0.000 C 
ATOM     14  O   UNL     1       1.536   8.780  21.276  0.00  0.00    +0.000 OA
ATOM     15  H   UNL     1       1.388   8.897  18.117  0.00  0.00    +0.000 HD
BRANCH  13  16
ATOM     16  C   UNL     1       2.024   7.070  19.749  0.00  0.00    +0.000 A 
ATOM     17  C   UNL     1       2.391   6.514  18.518  0.00  0.00    +0.000 A 
ATOM     18  C   UNL     1       2.634   5.176  18.780  0.00  0.00    +0.000 A 
ATOM     19  C   UNL     1       3.025   4.098  17.992  0.00  0.00    +0.000 A 
ATOM     20  C   UNL     1       3.099   2.988  18.817  0.00  0.00    +0.000 A 
ATOM     21 CL   UNL     1       3.522   1.391  18.343  0.00  0.00    +0.000 Cl
ATOM     22  S   UNL     1       2.714   3.312  20.467  0.00  0.00    +0.000 S 
ATOM     23  C   UNL     1       2.439   4.903  20.077  0.00  0.00    +0.000 A 
ATOM     24  N   UNL     1       2.078   6.048  20.703  0.00  0.00    +0.000 N 
ATOM     25  H   UNL     1       1.870   6.168  21.687  0.00  0.00    +0.000 HD
ENDBRANCH  13  16
ENDBRANCH   4  12
BRANCH   1  26
ATOM     26  C   UNL     1      -2.302  12.377  18.651  0.00  0.00    +0.000 C 
BRANCH  26  28
ATOM     27  N   UNL     1      -4.464  12.997  19.771  0.00  0.00    +0.000 N 
ATOM     28  C   UNL     1      -3.139  12.558  19.922  0.00  0.00    +0.000 C 
ATOM     29  O   UNL     1      -2.678  12.263  21.020  0.00  0.00    +0.000 OA
ATOM     30  H   UNL     1      -4.856  13.180  18.852  0.00  0.00    +0.000 HD
BRANCH  27  32
ATOM     31  C   UNL     1      -6.953  13.921  20.189  0.00  0.00    +0.000 C 
ATOM     32  S   UNL     1      -5.490  13.341  21.027  0.00  0.00    +0.000 S 
ATOM     33  O   UNL     1      -4.894  14.473  21.705  0.00  0.00    +0.000 OA
ATOM     34  O   UNL     1      -5.785  12.122  21.744  0.00  0.00    +0.000 OA
ENDBRANCH  27  32
ENDBRANCH  26  28
ENDBRANCH   1  26
TORSDOF 5
ENDMDL
