MODEL 1
REMARK VINA RESULT:      -7.8      0.000      0.000
REMARK  Name = 
REMARK  3 active torsions:
REMARK  status: ('A' for Active; 'I' for Inactive)
REMARK    1  A    between atoms: C_5  and  C_7
REMARK    2  A    between atoms: C_12  and  N_13
REMARK    3  A    between atoms: C_14  and  C_16
REMARK                            x       y       z     vdW  Elec       q    Type
REMARK                         _______ _______ _______ _____ _____    ______ ____
ROOT
ATOM      1  C   UNL     1       6.452   4.501  15.955  0.00  0.00    +0.000 A 
ATOM      2  C   UNL     1       7.364   4.861  16.953  0.00  0.00    +0.000 A 
ATOM      3  C   UNL     1       6.955   4.864  18.286  0.00  0.00    +0.000 A 
ATOM      4  C   UNL     1       5.649   4.507  18.629  0.00  0.00    +0.000 A 
ATOM      5  F   UNL     1       5.306   4.637  19.916  0.00  0.00    +0.000 F 
ATOM      6  C   UNL     1       4.725   4.125  17.650  0.00  0.00    +0.000 A 
ATOM      7  C   UNL     1       5.135   4.153  16.308  0.00  0.00    +0.000 A 
ENDROOT
BRANCH   1  12
ATOM      8  N   UNL     1       7.231   4.145  11.732  0.00  0.00    +0.000 N 
ATOM      9  C   UNL     1       6.314   3.386  12.363  0.00  0.00    +0.000 C 
ATOM     10  O   UNL     1       5.660   2.534  11.774  0.00  0.00    +0.000 OA
ATOM     11  N   UNL     1       6.141   3.607  13.701  0.00  0.00    +0.000 N 
ATOM     12  C   UNL     1       6.805   4.514  14.509  0.00  0.00    +0.000 C 
ATOM     13  O   UNL     1       7.632   5.328  14.105  0.00  0.00    +0.000 OA
ATOM     14  H   UNL     1       7.403   4.007  10.747  0.00  0.00    +0.000 HD
ATOM     15  H   UNL     1       7.783   4.822  12.252  0.00  0.00    +0.000 HD
ATOM     16  H   UNL     1       5.414   3.023  14.086  0.00  0.00    +0.000 HD
ENDBRANCH   1  12
BRANCH   6  17
ATOM     17  N   UNL     1       3.387   3.731  17.890  0.00  0.00    +0.000 N 
ATOM     18  C   UNL     1       2.939   2.466  18.247  0.00  0.00    +0.000 C 
ATOM     19  O   UNL     1       3.626   1.460  18.381  0.00  0.00    +0.000 OA
ATOM     20  H   UNL     1       2.666   4.373  17.579  0.00  0.00    +0.000 HD
BRANCH  18  21
ATOM     21  C   UNL     1       1.442   2.405  18.470  0.00  0.00    +0.000 C 
ATOM     22 BR   UNL     1       1.051   3.212  20.195  0.00  0.00    +0.000 Br
ENDBRANCH  18  21
ENDBRANCH   6  17
TORSDOF 3
ENDMDL
MODEL 2
REMARK VINA RESULT:      -7.6      1.154      1.154
REMARK  Name = 
REMARK  3 active torsions:
REMARK  status: ('A' for Active; 'I' for Inactive)
REMARK    1  A    between atoms: C_5  and  C_7
REMARK    2  A    between atoms: C_12  and  N_13
REMARK    3  A    between atoms: C_14  and  C_16
REMARK                            x       y       z     vdW  Elec       q    Type
REMARK                         _______ _______ _______ _____ _____    ______ ____
ROOT
ATOM      1  C   UNL     1       6.441   4.917  15.907  0.00  0.00    +0.000 A 
ATOM      2  C   UNL     1       7.150   5.749  16.780  0.00  0.00    +0.000 A 
ATOM      3  C   UNL     1       6.713   5.893  18.096  0.00  0.00    +0.000 A 
ATOM      4  C   UNL     1       5.580   5.211  18.546  0.00  0.00    +0.000 A 
ATOM      5  F   UNL     1       5.166   5.485  19.788  0.00  0.00    +0.000 F 
ATOM      6  C   UNL     1       4.865   4.359  17.696  0.00  0.00    +0.000 A 
ATOM      7  C   UNL     1       5.295   4.243  16.365  0.00  0.00    +0.000 A 
ENDROOT
BRANCH   1  12
ATOM      8  N   UNL     1       7.281   4.047  11.771  0.00  0.00    +0.000 N 
ATOM      9  C   UNL     1       6.294   3.433  12.451  0.00  0.00    +0.000 C 
ATOM     10  O   UNL     1       5.589   2.573  11.936  0.00  0.00    +0.000 OA
ATOM     11  N   UNL     1       6.110   3.810  13.752  0.00  0.00    +0.000 N 
ATOM     12  C   UNL     1       6.826   4.746  14.478  0.00  0.00    +0.000 C 
ATOM     13  O   UNL     1       7.722   5.447  14.015  0.00  0.00    +0.000 OA
ATOM     14  H   UNL     1       7.462   3.791  10.811  0.00  0.00    +0.000 HD
ATOM     15  H   UNL     1       7.872   4.733  12.232  0.00  0.00    +0.000 HD
ATOM     16  H   UNL     1       5.331   3.327  14.175  0.00  0.00    +0.000 HD
ENDBRANCH   1  12
BRANCH   6  17
ATOM     17  N   UNL     1       3.718   3.613  18.055  0.00  0.00    +0.000 N 
ATOM     18  C   UNL     1       2.405   4.061  18.086  0.00  0.00    +0.000 C 
ATOM     19  O   UNL     1       2.016   5.197  17.840  0.00  0.00    +0.000 OA
ATOM     20  H   UNL     1       3.885   2.731  18.528  0.00  0.00    +0.000 HD
BRANCH  18  21
ATOM     21  C   UNL     1       1.416   2.982  18.474  0.00  0.00    +0.000 C 
ATOM     22 BR   UNL     1       1.074   3.130  20.383  0.00  0.00    +0.000 Br
ENDBRANCH  18  21
ENDBRANCH   6  17
TORSDOF 3
ENDMDL
MODEL 3
REMARK VINA RESULT:      -7.5      1.707      1.793
REMARK  Name = 
REMARK  3 active torsions:
REMARK  status: ('A' for Active; 'I' for Inactive)
REMARK    1  A    between atoms: C_5  and  C_7
REMARK    2  A    between atoms: C_12  and  N_13
REMARK    3  A    between atoms: C_14  and  C_16
REMARK                            x       y       z     vdW  Elec       q    Type
REMARK                         _______ _______ _______ _____ _____    ______ ____
ROOT
ATOM      1  C   UNL     1       5.295   4.990  15.643  0.00  0.00    +0.000 A 
ATOM      2  C   UNL     1       5.274   6.365  15.903  0.00  0.00    +0.000 A 
ATOM      3  C   UNL     1       4.577   6.842  17.012  0.00  0.00    +0.000 A 
ATOM      4  C   UNL     1       3.907   5.960  17.863  0.00  0.00    +0.000 A 
ATOM      5  F   UNL     1       3.175   6.504  18.841  0.00  0.00    +0.000 F 
ATOM      6  C   UNL     1       3.929   4.579  17.633  0.00  0.00    +0.000 A 
ATOM      7  C   UNL     1       4.609   4.110  16.498  0.00  0.00    +0.000 A 
ENDROOT
BRANCH   1  12
ATOM      8  N   UNL     1       6.880   3.154  12.081  0.00  0.00    +0.000 N 
ATOM      9  C   UNL     1       5.556   3.278  12.301  0.00  0.00    +0.000 C 
ATOM     10  O   UNL     1       4.725   2.856  11.508  0.00  0.00    +0.000 OA
ATOM     11  N   UNL     1       5.176   3.899  13.458  0.00  0.00    +0.000 N 
ATOM     12  C   UNL     1       5.985   4.413  14.457  0.00  0.00    +0.000 C 
ATOM     13  O   UNL     1       7.213   4.445  14.408  0.00  0.00    +0.000 OA
ATOM     14  H   UNL     1       7.207   2.689  11.247  0.00  0.00    +0.000 HD
ATOM     15  H   UNL     1       7.548   3.484  12.772  0.00  0.00    +0.000 HD
ATOM     16  H   UNL     1       4.172   3.980  13.527  0.00  0.00    +0.000 HD
ENDBRANCH   1  12
BRANCH   6  17
ATOM     17  N   UNL     1       3.300   3.601  18.439  0.00  0.00    +0.000 N 
ATOM     18  C   UNL     1       1.973   3.196  18.380  0.00  0.00    +0.000 C 
ATOM     19  O   UNL     1       1.106   3.645  17.639  0.00  0.00    +0.000 OA
ATOM     20  H   UNL     1       3.803   3.311  19.271  0.00  0.00    +0.000 HD
BRANCH  18  21
ATOM     21  C   UNL     1       1.643   2.092  19.362  0.00  0.00    +0.000 C 
ATOM     22 BR   UNL     1       1.446   2.886  21.126  0.00  0.00    +0.000 Br
ENDBRANCH  18  21
ENDBRANCH   6  17
TORSDOF 3
ENDMDL
MODEL 4
REMARK VINA RESULT:      -7.3      2.972      6.443
REMARK  Name = 
REMARK  3 active torsions:
REMARK  status: ('A' for Active; 'I' for Inactive)
REMARK    1  A    between atoms: C_5  and  C_7
REMARK    2  A    between atoms: C_12  and  N_13
REMARK    3  A    between atoms: C_14  and  C_16
REMARK                            x       y       z     vdW  Elec       q    Type
REMARK                         _______ _______ _______ _____ _____    ______ ____
ROOT
ATOM      1  C   UNL     1       4.219   4.056  18.244  0.00  0.00    +0.000 A 
ATOM      2  C   UNL     1       5.227   4.616  19.037  0.00  0.00    +0.000 A 
ATOM      3  C   UNL     1       6.498   4.808  18.496  0.00  0.00    +0.000 A 
ATOM      4  C   UNL     1       6.767   4.450  17.173  0.00  0.00    +0.000 A 
ATOM      5  F   UNL     1       8.035   4.566  16.763  0.00  0.00    +0.000 F 
ATOM      6  C   UNL     1       5.770   3.905  16.355  0.00  0.00    +0.000 A 
ATOM      7  C   UNL     1       4.502   3.689  16.917  0.00  0.00    +0.000 A 
ENDROOT
BRANCH   1  12
ATOM      8  N   UNL     1       0.465   3.102  20.131  0.00  0.00    +0.000 N 
ATOM      9  C   UNL     1       1.637   3.062  20.795  0.00  0.00    +0.000 C 
ATOM     10  O   UNL     1       1.704   2.731  21.972  0.00  0.00    +0.000 OA
ATOM     11  N   UNL     1       2.758   3.408  20.094  0.00  0.00    +0.000 N 
ATOM     12  C   UNL     1       2.851   3.786  18.766  0.00  0.00    +0.000 C 
ATOM     13  O   UNL     1       1.888   3.936  18.017  0.00  0.00    +0.000 OA
ATOM     14  H   UNL     1      -0.388   2.841  20.605  0.00  0.00    +0.000 HD
ATOM     15  H   UNL     1       0.441   3.348  19.146  0.00  0.00    +0.000 HD
ATOM     16  H   UNL     1       3.584   3.384  20.674  0.00  0.00    +0.000 HD
ENDBRANCH   1  12
BRANCH   6  17
ATOM     17  N   UNL     1       5.933   3.525  15.002  0.00  0.00    +0.000 N 
ATOM     18  C   UNL     1       6.479   4.287  13.979  0.00  0.00    +0.000 C 
ATOM     19  O   UNL     1       6.884   5.440  14.065  0.00  0.00    +0.000 OA
ATOM     20  H   UNL     1       5.422   2.701  14.702  0.00  0.00    +0.000 HD
BRANCH  18  21
ATOM     21  C   UNL     1       6.541   3.552  12.656  0.00  0.00    +0.000 C 
ATOM     22 BR   UNL     1       4.726   3.350  11.987  0.00  0.00    +0.000 Br
ENDBRANCH  18  21
ENDBRANCH   6  17
TORSDOF 3
ENDMDL
MODEL 5
REMARK VINA RESULT:      -7.3      4.220      5.176
REMARK  Name = 
REMARK  3 active torsions:
REMARK  status: ('A' for Active; 'I' for Inactive)
REMARK    1  A    between atoms: C_5  and  C_7
REMARK    2  A    between atoms: C_12  and  N_13
REMARK    3  A    between atoms: C_14  and  C_16
REMARK                            x       y       z     vdW  Elec       q    Type
REMARK                         _______ _______ _______ _____ _____    ______ ____
ROOT
ATOM      1  C   UNL     1       3.685   5.130  18.044  0.00  0.00    +0.000 A 
ATOM      2  C   UNL     1       2.943   3.959  17.853  0.00  0.00    +0.000 A 
ATOM      3  C   UNL     1       1.852   3.696  18.681  0.00  0.00    +0.000 A 
ATOM      4  C   UNL     1       1.495   4.592  19.690  0.00  0.00    +0.000 A 
ATOM      5  F   UNL     1       0.505   4.217  20.507  0.00  0.00    +0.000 F 
ATOM      6  C   UNL     1       2.210   5.780  19.888  0.00  0.00    +0.000 A 
ATOM      7  C   UNL     1       3.324   6.022  19.070  0.00  0.00    +0.000 A 
ENDROOT
BRANCH   1  12
ATOM      8  N   UNL     1       7.398   5.814  15.967  0.00  0.00    +0.000 N 
ATOM      9  C   UNL     1       7.267   4.870  16.920  0.00  0.00    +0.000 C 
ATOM     10  O   UNL     1       8.206   4.164  17.267  0.00  0.00    +0.000 OA
ATOM     11  N   UNL     1       6.033   4.734  17.492  0.00  0.00    +0.000 N 
ATOM     12  C   UNL     1       4.884   5.458  17.225  0.00  0.00    +0.000 C 
ATOM     13  O   UNL     1       4.792   6.317  16.351  0.00  0.00    +0.000 OA
ATOM     14  H   UNL     1       8.294   5.960  15.527  0.00  0.00    +0.000 HD
ATOM     15  H   UNL     1       6.611   6.408  15.721  0.00  0.00    +0.000 HD
ATOM     16  H   UNL     1       6.015   3.985  18.168  0.00  0.00    +0.000 HD
ENDBRANCH   1  12
BRANCH   6  17
ATOM     17  N   UNL     1       1.923   6.760  20.867  0.00  0.00    +0.000 N 
ATOM     18  C   UNL     1       1.542   8.076  20.647  0.00  0.00    +0.000 C 
ATOM     19  O   UNL     1       1.423   8.628  19.559  0.00  0.00    +0.000 OA
ATOM     20  H   UNL     1       2.216   6.548  21.815  0.00  0.00    +0.000 HD
BRANCH  18  21
ATOM     21  C   UNL     1       1.270   8.840  21.926  0.00  0.00    +0.000 C 
ATOM     22 BR   UNL     1       0.295  10.460  21.471  0.00  0.00    +0.000 Br
ENDBRANCH  18  21
ENDBRANCH   6  17
TORSDOF 3
ENDMDL
MODEL 6
REMARK VINA RESULT:      -7.2      1.160      1.576
REMARK  Name = 
REMARK  3 active torsions:
REMARK  status: ('A' for Active; 'I' for Inactive)
REMARK    1  A    between atoms: C_5  and  C_7
REMARK    2  A    between atoms: C_12  and  N_13
REMARK    3  A    between atoms: C_14  and  C_16
REMARK                            x       y       z     vdW  Elec       q    Type
REMARK                         _______ _______ _______ _____ _____    ______ ____
ROOT
ATOM      1  C   UNL     1       6.156   4.611  16.065  0.00  0.00    +0.000 A 
ATOM      2  C   UNL     1       7.004   5.213  17.001  0.00  0.00    +0.000 A 
ATOM      3  C   UNL     1       6.575   5.361  18.320  0.00  0.00    +0.000 A 
ATOM      4  C   UNL     1       5.312   4.909  18.709  0.00  0.00    +0.000 A 
ATOM      5  F   UNL     1       4.933   5.183  19.963  0.00  0.00    +0.000 F 
ATOM      6  C   UNL     1       4.454   4.287  17.795  0.00  0.00    +0.000 A 
ATOM      7  C   UNL     1       4.882   4.169  16.463  0.00  0.00    +0.000 A 
ENDROOT
BRANCH   1  12
ATOM      8  N   UNL     1       7.478   4.558  11.964  0.00  0.00    +0.000 N 
ATOM      9  C   UNL     1       7.988   5.409  12.875  0.00  0.00    +0.000 C 
ATOM     10  O   UNL     1       8.846   6.234  12.584  0.00  0.00    +0.000 OA
ATOM     11  N   UNL     1       7.504   5.315  14.150  0.00  0.00    +0.000 N 
ATOM     12  C   UNL     1       6.532   4.456  14.633  0.00  0.00    +0.000 C 
ATOM     13  O   UNL     1       5.994   3.573  13.969  0.00  0.00    +0.000 OA
ATOM     14  H   UNL     1       7.795   4.601  11.007  0.00  0.00    +0.000 HD
ATOM     15  H   UNL     1       6.743   3.906  12.225  0.00  0.00    +0.000 HD
ATOM     16  H   UNL     1       7.963   5.963  14.774  0.00  0.00    +0.000 HD
ENDBRANCH   1  12
BRANCH   6  17
ATOM     17  N   UNL     1       3.165   3.781  18.088  0.00  0.00    +0.000 N 
ATOM     18  C   UNL     1       2.821   2.459  18.332  0.00  0.00    +0.000 C 
ATOM     19  O   UNL     1       3.574   1.492  18.300  0.00  0.00    +0.000 OA
ATOM     20  H   UNL     1       2.385   4.404  17.906  0.00  0.00    +0.000 HD
BRANCH  18  21
ATOM     21  C   UNL     1       1.354   2.274  18.658  0.00  0.00    +0.000 C 
ATOM     22 BR   UNL     1       0.951   3.309  20.254  0.00  0.00    +0.000 Br
ENDBRANCH  18  21
ENDBRANCH   6  17
TORSDOF 3
ENDMDL
MODEL 7
REMARK VINA RESULT:      -7.1      3.977      4.989
REMARK  Name = 
REMARK  3 active torsions:
REMARK  status: ('A' for Active; 'I' for Inactive)
REMARK    1  A    between atoms: C_5  and  C_7
REMARK    2  A    between atoms: C_12  and  N_13
REMARK    3  A    between atoms: C_14  and  C_16
REMARK                            x       y       z     vdW  Elec       q    Type
REMARK                         _______ _______ _______ _____ _____    ______ ____
ROOT
ATOM      1  C   UNL     1       4.090   4.356  18.752  0.00  0.00    +0.000 A 
ATOM      2  C   UNL     1       3.243   3.284  18.448  0.00  0.00    +0.000 A 
ATOM      3  C   UNL     1       1.950   3.264  18.968  0.00  0.00    +0.000 A 
ATOM      4  C   UNL     1       1.496   4.303  19.784  0.00  0.00    +0.000 A 
ATOM      5  F   UNL     1       0.283   4.157  20.329  0.00  0.00    +0.000 F 
ATOM      6  C   UNL     1       2.319   5.394  20.086  0.00  0.00    +0.000 A 
ATOM      7  C   UNL     1       3.629   5.393  19.582  0.00  0.00    +0.000 A 
ENDROOT
BRANCH   1  12
ATOM      8  N   UNL     1       7.989   4.459  16.920  0.00  0.00    +0.000 N 
ATOM      9  C   UNL     1       6.852   4.423  16.197  0.00  0.00    +0.000 C 
ATOM     10  O   UNL     1       6.863   4.396  14.972  0.00  0.00    +0.000 OA
ATOM     11  N   UNL     1       5.675   4.415  16.892  0.00  0.00    +0.000 N 
ATOM     12  C   UNL     1       5.495   4.426  18.264  0.00  0.00    +0.000 C 
ATOM     13  O   UNL     1       6.406   4.516  19.084  0.00  0.00    +0.000 OA
ATOM     14  H   UNL     1       8.882   4.452  16.449  0.00  0.00    +0.000 HD
ATOM     15  H   UNL     1       7.952   4.447  17.935  0.00  0.00    +0.000 HD
ATOM     16  H   UNL     1       4.876   4.422  16.275  0.00  0.00    +0.000 HD
ENDBRANCH   1  12
BRANCH   6  17
ATOM     17  N   UNL     1       1.953   6.503  20.886  0.00  0.00    +0.000 N 
ATOM     18  C   UNL     1       1.717   7.802  20.457  0.00  0.00    +0.000 C 
ATOM     19  O   UNL     1       1.819   8.221  19.310  0.00  0.00    +0.000 OA
ATOM     20  H   UNL     1       2.071   6.394  21.888  0.00  0.00    +0.000 HD
BRANCH  18  21
ATOM     21  C   UNL     1       1.301   8.733  21.577  0.00  0.00    +0.000 C 
ATOM     22 BR   UNL     1      -0.064   9.937  20.891  0.00  0.00    +0.000 Br
ENDBRANCH  18  21
ENDBRANCH   6  17
TORSDOF 3
ENDMDL
MODEL 8
REMARK VINA RESULT:      -7.1      5.132      7.671
REMARK  Name = 
REMARK  3 active torsions:
REMARK  status: ('A' for Active; 'I' for Inactive)
REMARK    1  A    between atoms: C_5  and  C_7
REMARK    2  A    between atoms: C_12  and  N_13
REMARK    3  A    between atoms: C_14  and  C_16
REMARK                            x       y       z     vdW  Elec       q    Type
REMARK                         _______ _______ _______ _____ _____    ______ ____
ROOT
ATOM      1  C   UNL     1       2.273   6.411  20.106  0.00  0.00    +0.000 A 
ATOM      2  C   UNL     1       1.618   5.321  20.689  0.00  0.00    +0.000 A 
ATOM      3  C   UNL     1       2.089   4.031  20.453  0.00  0.00    +0.000 A 
ATOM      4  C   UNL     1       3.209   3.822  19.644  0.00  0.00    +0.000 A 
ATOM      5  F   UNL     1       3.534   2.551  19.380  0.00  0.00    +0.000 F 
ATOM      6  C   UNL     1       3.893   4.898  19.066  0.00  0.00    +0.000 A 
ATOM      7  C   UNL     1       3.393   6.191  19.285  0.00  0.00    +0.000 A 
ENDROOT
BRANCH   1  12
ATOM      8  N   UNL     1       0.830  10.357  21.061  0.00  0.00    +0.000 N 
ATOM      9  C   UNL     1       1.105   9.441  22.009  0.00  0.00    +0.000 C 
ATOM     10  O   UNL     1       0.940   9.671  23.201  0.00  0.00    +0.000 OA
ATOM     11  N   UNL     1       1.578   8.231  21.583  0.00  0.00    +0.000 N 
ATOM     12  C   UNL     1       1.803   7.813  20.283  0.00  0.00    +0.000 C 
ATOM     13  O   UNL     1       1.666   8.524  19.291  0.00  0.00    +0.000 OA
ATOM     14  H   UNL     1       0.465  11.260  21.328  0.00  0.00    +0.000 HD
ATOM     15  H   UNL     1       0.945  10.129  20.077  0.00  0.00    +0.000 HD
ATOM     16  H   UNL     1       1.789   7.619  22.357  0.00  0.00    +0.000 HD
ENDBRANCH   1  12
BRANCH   6  17
ATOM     17  N   UNL     1       5.042   4.798  18.247  0.00  0.00    +0.000 N 
ATOM     18  C   UNL     1       6.366   4.930  18.644  0.00  0.00    +0.000 C 
ATOM     19  O   UNL     1       6.766   5.192  19.773  0.00  0.00    +0.000 OA
ATOM     20  H   UNL     1       4.886   4.835  17.245  0.00  0.00    +0.000 HD
BRANCH  18  21
ATOM     21  C   UNL     1       7.351   4.719  17.514  0.00  0.00    +0.000 C 
ATOM     22 BR   UNL     1       6.350   4.253  15.913  0.00  0.00    +0.000 Br
ENDBRANCH  18  21
ENDBRANCH   6  17
TORSDOF 3
ENDMDL
MODEL 9
REMARK VINA RESULT:      -7.1      1.499      1.548
REMARK  Name = 
REMARK  3 active torsions:
REMARK  status: ('A' for Active; 'I' for Inactive)
REMARK    1  A    between atoms: C_5  and  C_7
REMARK    2  A    between atoms: C_12  and  N_13
REMARK    3  A    between atoms: C_14  and  C_16
REMARK                            x       y       z     vdW  Elec       q    Type
REMARK                         _______ _______ _______ _____ _____    ______ ____
ROOT
ATOM      1  C   UNL     1       5.605   5.272  15.666  0.00  0.00    +0.000 A 
ATOM      2  C   UNL     1       5.702   6.577  16.162  0.00  0.00    +0.000 A 
ATOM      3  C   UNL     1       4.993   6.929  17.309  0.00  0.00    +0.000 A 
ATOM      4  C   UNL     1       4.195   5.990  17.967  0.00  0.00    +0.000 A 
ATOM      5  F   UNL     1       3.465   6.434  18.996  0.00  0.00    +0.000 F 
ATOM      6  C   UNL     1       4.097   4.674  17.500  0.00  0.00    +0.000 A 
ATOM      7  C   UNL     1       4.791   4.336  16.328  0.00  0.00    +0.000 A 
ENDROOT
BRANCH   1  12
ATOM      8  N   UNL     1       7.275   3.709  12.015  0.00  0.00    +0.000 N 
ATOM      9  C   UNL     1       6.022   3.420  12.416  0.00  0.00    +0.000 C 
ATOM     10  O   UNL     1       5.290   2.677  11.775  0.00  0.00    +0.000 OA
ATOM     11  N   UNL     1       5.597   3.994  13.582  0.00  0.00    +0.000 N 
ATOM     12  C   UNL     1       6.302   4.836  14.425  0.00  0.00    +0.000 C 
ATOM     13  O   UNL     1       7.434   5.258  14.198  0.00  0.00    +0.000 OA
ATOM     14  H   UNL     1       7.636   3.296  11.167  0.00  0.00    +0.000 HD
ATOM     15  H   UNL     1       7.873   4.302  12.583  0.00  0.00    +0.000 HD
ATOM     16  H   UNL     1       4.639   3.753  13.791  0.00  0.00    +0.000 HD
ENDBRANCH   1  12
BRANCH   6  17
ATOM     17  N   UNL     1       3.333   3.644  18.098  0.00  0.00    +0.000 N 
ATOM     18  C   UNL     1       3.712   2.825  19.153  0.00  0.00    +0.000 C 
ATOM     19  O   UNL     1       4.795   2.831  19.727  0.00  0.00    +0.000 OA
ATOM     20  H   UNL     1       2.514   3.335  17.584  0.00  0.00    +0.000 HD
BRANCH  18  21
ATOM     21  C   UNL     1       2.628   1.854  19.573  0.00  0.00    +0.000 C 
ATOM     22 BR   UNL     1       0.932   2.495  18.870  0.00  0.00    +0.000 Br
ENDBRANCH  18  21
ENDBRANCH   6  17
TORSDOF 3
ENDMDL
