MODEL 1
REMARK VINA RESULT:      -7.8      0.000      0.000
REMARK  Name = 
REMARK  8 active torsions:
REMARK  status: ('A' for Active; 'I' for Inactive)
REMARK    1  A    between atoms: C_1  and  O_2
REMARK    2  A    between atoms: O_2  and  C_3
REMARK    3  A    between atoms: C_8  and  N_9
REMARK    4  A    between atoms: N_12  and  C_13
REMARK    5  A    between atoms: C_13  and  C_14
REMARK    6  A    between atoms: C_14  and  C_15
REMARK    7  A    between atoms: C_15  and  N_16
REMARK    8  A    between atoms: C_17  and  C_19
REMARK                            x       y       z     vdW  Elec       q    Type
REMARK                         _______ _______ _______ _____ _____    ______ ____
ROOT
ATOM      1  N   UNL     1       4.777   4.942  18.409  0.00  0.00    +0.000 N 
ATOM      2  C   UNL     1       6.110   4.495  18.823  0.00  0.00    +0.000 C 
ATOM      3  C   UNL     1       7.119   4.763  17.685  0.00  0.00    +0.000 C 
ATOM      4  N   UNL     1       7.187   6.182  17.246  0.00  0.00    +0.000 NA
ATOM      5  C   UNL     1       5.813   6.612  16.884  0.00  0.00    +0.000 C 
ATOM      6  C   UNL     1       4.718   6.340  17.948  0.00  0.00    +0.000 C 
ENDROOT
BRANCH   1  12
ATOM      7  C   UNL     1       2.629   4.277  19.469  0.00  0.00    +0.000 A 
ATOM      8  C   UNL     1       1.533   3.394  19.492  0.00  0.00    +0.000 A 
ATOM      9  C   UNL     1       1.407   2.382  18.546  0.00  0.00    +0.000 A 
ATOM     10  C   UNL     1       2.377   2.239  17.568  0.00  0.00    +0.000 A 
ATOM     11  C   UNL     1       3.471   3.107  17.543  0.00  0.00    +0.000 A 
ATOM     12  C   UNL     1       3.646   4.142  18.487  0.00  0.00    +0.000 A 
BRANCH   7  14
ATOM     13  C   UNL     1       1.868   6.301  20.452  0.00  0.00    +0.000 C 
ATOM     14  O   UNL     1       2.792   5.216  20.466  0.00  0.00    +0.000 OA
ENDBRANCH   7  14
ENDBRANCH   1  12
BRANCH   4  15
ATOM     15  C   UNL     1       7.770   7.080  18.254  0.00  0.00    +0.000 C 
BRANCH  15  16
ATOM     16  C   UNL     1       8.042   8.489  17.720  0.00  0.00    +0.000 C 
BRANCH  16  17
ATOM     17  C   UNL     1       8.750   9.362  18.752  0.00  0.00    +0.000 C 
BRANCH  17  18
ATOM     18  N   UNL     1       9.325  10.530  18.127  0.00  0.00    +0.000 N 
ATOM     19  C   UNL     1      10.285  11.290  18.746  0.00  0.00    +0.000 C 
ATOM     20  O   UNL     1      10.677  11.066  19.890  0.00  0.00    +0.000 OA
ATOM     21  H   UNL     1       9.097  10.713  17.163  0.00  0.00    +0.000 HD
BRANCH  19  22
ATOM     22  C   UNL     1      10.815  12.374  17.953  0.00  0.00    +0.000 A 
ATOM     23  C   UNL     1      10.326  13.631  17.632  0.00  0.00    +0.000 A 
ATOM     24  C   UNL     1      11.280  14.276  16.807  0.00  0.00    +0.000 A 
ATOM     25  C   UNL     1      12.333  13.407  16.645  0.00  0.00    +0.000 A 
ATOM     26  N   UNL     1      12.045  12.266  17.338  0.00  0.00    +0.000 N 
ATOM     27  H   UNL     1      12.631  11.442  17.412  0.00  0.00    +0.000 HD
ENDBRANCH  19  22
ENDBRANCH  17  18
ENDBRANCH  16  17
ENDBRANCH  15  16
ENDBRANCH   4  15
TORSDOF 7
ENDMDL
MODEL 2
REMARK VINA RESULT:      -7.6      1.729      2.477
REMARK  Name = 
REMARK  8 active torsions:
REMARK  status: ('A' for Active; 'I' for Inactive)
REMARK    1  A    between atoms: C_1  and  O_2
REMARK    2  A    between atoms: O_2  and  C_3
REMARK    3  A    between atoms: C_8  and  N_9
REMARK    4  A    between atoms: N_12  and  C_13
REMARK    5  A    between atoms: C_13  and  C_14
REMARK    6  A    between atoms: C_14  and  C_15
REMARK    7  A    between atoms: C_15  and  N_16
REMARK    8  A    between atoms: C_17  and  C_19
REMARK                            x       y       z     vdW  Elec       q    Type
REMARK                         _______ _______ _______ _____ _____    ______ ____
ROOT
ATOM      1  N   UNL     1       4.160   4.966  18.722  0.00  0.00    +0.000 N 
ATOM      2  C   UNL     1       5.380   5.490  19.343  0.00  0.00    +0.000 C 
ATOM      3  C   UNL     1       6.613   4.957  18.582  0.00  0.00    +0.000 C 
ATOM      4  N   UNL     1       6.622   5.274  17.130  0.00  0.00    +0.000 NA
ATOM      5  C   UNL     1       5.352   4.775  16.547  0.00  0.00    +0.000 C 
ATOM      6  C   UNL     1       4.056   5.219  17.274  0.00  0.00    +0.000 C 
ENDROOT
BRANCH   1  12
ATOM      7  C   UNL     1       3.138   2.943  19.745  0.00  0.00    +0.000 A 
ATOM      8  C   UNL     1       2.054   2.377  20.442  0.00  0.00    +0.000 A 
ATOM      9  C   UNL     1       0.984   3.159  20.861  0.00  0.00    +0.000 A 
ATOM     10  C   UNL     1       0.982   4.516  20.585  0.00  0.00    +0.000 A 
ATOM     11  C   UNL     1       2.050   5.084  19.888  0.00  0.00    +0.000 A 
ATOM     12  C   UNL     1       3.154   4.329  19.434  0.00  0.00    +0.000 A 
BRANCH   7  14
ATOM     13  C   UNL     1       3.812   1.350  18.118  0.00  0.00    +0.000 C 
ATOM     14  O   UNL     1       4.149   2.144  19.252  0.00  0.00    +0.000 OA
ENDBRANCH   7  14
ENDBRANCH   1  12
BRANCH   4  15
ATOM     15  C   UNL     1       6.805   6.705  16.843  0.00  0.00    +0.000 C 
BRANCH  15  16
ATOM     16  C   UNL     1       7.839   7.374  17.752  0.00  0.00    +0.000 C 
BRANCH  16  17
ATOM     17  C   UNL     1       7.616   8.880  17.855  0.00  0.00    +0.000 C 
BRANCH  17  18
ATOM     18  N   UNL     1       8.809   9.543  18.330  0.00  0.00    +0.000 N 
ATOM     19  C   UNL     1       9.019  10.886  18.147  0.00  0.00    +0.000 C 
ATOM     20  O   UNL     1       8.241  11.602  17.519  0.00  0.00    +0.000 OA
ATOM     21  H   UNL     1       9.440   9.020  18.917  0.00  0.00    +0.000 HD
BRANCH  19  22
ATOM     22  C   UNL     1      10.220  11.408  18.755  0.00  0.00    +0.000 A 
ATOM     23  C   UNL     1      10.658  11.470  20.069  0.00  0.00    +0.000 A 
ATOM     24  C   UNL     1      11.926  12.101  20.080  0.00  0.00    +0.000 A 
ATOM     25  C   UNL     1      12.240  12.408  18.777  0.00  0.00    +0.000 A 
ATOM     26  N   UNL     1      11.209  11.987  17.987  0.00  0.00    +0.000 N 
ATOM     27  H   UNL     1      11.150  12.071  16.979  0.00  0.00    +0.000 HD
ENDBRANCH  19  22
ENDBRANCH  17  18
ENDBRANCH  16  17
ENDBRANCH  15  16
ENDBRANCH   4  15
TORSDOF 7
ENDMDL
MODEL 3
REMARK VINA RESULT:      -7.4      1.720      2.128
REMARK  Name = 
REMARK  8 active torsions:
REMARK  status: ('A' for Active; 'I' for Inactive)
REMARK    1  A    between atoms: C_1  and  O_2
REMARK    2  A    between atoms: O_2  and  C_3
REMARK    3  A    between atoms: C_8  and  N_9
REMARK    4  A    between atoms: N_12  and  C_13
REMARK    5  A    between atoms: C_13  and  C_14
REMARK    6  A    between atoms: C_14  and  C_15
REMARK    7  A    between atoms: C_15  and  N_16
REMARK    8  A    between atoms: C_17  and  C_19
REMARK                            x       y       z     vdW  Elec       q    Type
REMARK                         _______ _______ _______ _____ _____    ______ ____
ROOT
ATOM      1  N   UNL     1       4.489   4.832  18.053  0.00  0.00    +0.000 N 
ATOM      2  C   UNL     1       5.130   5.696  19.049  0.00  0.00    +0.000 C 
ATOM      3  C   UNL     1       6.654   5.449  19.037  0.00  0.00    +0.000 C 
ATOM      4  N   UNL     1       7.300   5.656  17.714  0.00  0.00    +0.000 NA
ATOM      5  C   UNL     1       6.592   4.806  16.725  0.00  0.00    +0.000 C 
ATOM      6  C   UNL     1       5.048   4.948  16.695  0.00  0.00    +0.000 C 
ENDROOT
BRANCH   1  12
ATOM      7  C   UNL     1       3.485   2.824  19.122  0.00  0.00    +0.000 A 
ATOM      8  C   UNL     1       2.342   2.028  19.329  0.00  0.00    +0.000 A 
ATOM      9  C   UNL     1       1.111   2.389  18.793  0.00  0.00    +0.000 A 
ATOM     10  C   UNL     1       1.008   3.546  18.041  0.00  0.00    +0.000 A 
ATOM     11  C   UNL     1       2.138   4.336  17.824  0.00  0.00    +0.000 A 
ATOM     12  C   UNL     1       3.411   4.007  18.340  0.00  0.00    +0.000 A 
BRANCH   7  14
ATOM     13  C   UNL     1       4.708   1.630  20.771  0.00  0.00    +0.000 C 
ATOM     14  O   UNL     1       4.719   2.409  19.578  0.00  0.00    +0.000 OA
ENDBRANCH   7  14
ENDBRANCH   1  12
BRANCH   4  15
ATOM     15  C   UNL     1       7.315   7.062  17.283  0.00  0.00    +0.000 C 
BRANCH  15  16
ATOM     16  C   UNL     1       8.299   7.925  18.077  0.00  0.00    +0.000 C 
BRANCH  16  17
ATOM     17  C   UNL     1       8.024   9.415  17.894  0.00  0.00    +0.000 C 
BRANCH  17  18
ATOM     18  N   UNL     1       9.175  10.199  18.279  0.00  0.00    +0.000 N 
ATOM     19  C   UNL     1       9.227  11.557  18.095  0.00  0.00    +0.000 C 
ATOM     20  O   UNL     1       8.329  12.189  17.541  0.00  0.00    +0.000 OA
ATOM     21  H   UNL     1       9.904   9.744  18.807  0.00  0.00    +0.000 HD
BRANCH  19  22
ATOM     22  C   UNL     1      10.413  12.202  18.610  0.00  0.00    +0.000 A 
ATOM     23  C   UNL     1      11.302  11.865  19.618  0.00  0.00    +0.000 A 
ATOM     24  C   UNL     1      12.287  12.881  19.690  0.00  0.00    +0.000 A 
ATOM     25  C   UNL     1      11.985  13.812  18.725  0.00  0.00    +0.000 A 
ATOM     26  N   UNL     1      10.856  13.395  18.079  0.00  0.00    +0.000 N 
ATOM     27  H   UNL     1      10.389  13.870  17.316  0.00  0.00    +0.000 HD
ENDBRANCH  19  22
ENDBRANCH  17  18
ENDBRANCH  16  17
ENDBRANCH  15  16
ENDBRANCH   4  15
TORSDOF 7
ENDMDL
MODEL 4
REMARK VINA RESULT:      -7.1      1.845      2.113
REMARK  Name = 
REMARK  8 active torsions:
REMARK  status: ('A' for Active; 'I' for Inactive)
REMARK    1  A    between atoms: C_1  and  O_2
REMARK    2  A    between atoms: O_2  and  C_3
REMARK    3  A    between atoms: C_8  and  N_9
REMARK    4  A    between atoms: N_12  and  C_13
REMARK    5  A    between atoms: C_13  and  C_14
REMARK    6  A    between atoms: C_14  and  C_15
REMARK    7  A    between atoms: C_15  and  N_16
REMARK    8  A    between atoms: C_17  and  C_19
REMARK                            x       y       z     vdW  Elec       q    Type
REMARK                         _______ _______ _______ _____ _____    ______ ____
ROOT
ATOM      1  N   UNL     1       4.267   4.800  18.524  0.00  0.00    +0.000 N 
ATOM      2  C   UNL     1       5.336   5.454  19.287  0.00  0.00    +0.000 C 
ATOM      3  C   UNL     1       6.702   4.882  18.851  0.00  0.00    +0.000 C 
ATOM      4  N   UNL     1       6.984   5.007  17.396  0.00  0.00    +0.000 NA
ATOM      5  C   UNL     1       5.859   4.381  16.658  0.00  0.00    +0.000 C 
ATOM      6  C   UNL     1       4.439   4.858  17.061  0.00  0.00    +0.000 C 
ENDROOT
BRANCH   1  12
ATOM      7  C   UNL     1       2.028   4.935  19.597  0.00  0.00    +0.000 A 
ATOM      8  C   UNL     1       0.959   4.260  20.216  0.00  0.00    +0.000 A 
ATOM      9  C   UNL     1       0.969   2.876  20.354  0.00  0.00    +0.000 A 
ATOM     10  C   UNL     1       2.049   2.152  19.878  0.00  0.00    +0.000 A 
ATOM     11  C   UNL     1       3.116   2.815  19.269  0.00  0.00    +0.000 A 
ATOM     12  C   UNL     1       3.156   4.218  19.114  0.00  0.00    +0.000 A 
BRANCH   7  14
ATOM     13  C   UNL     1       1.773   6.981  20.776  0.00  0.00    +0.000 C 
ATOM     14  O   UNL     1       2.052   6.314  19.548  0.00  0.00    +0.000 OA
ENDBRANCH   7  14
ENDBRANCH   1  12
BRANCH   4  15
ATOM     15  C   UNL     1       7.192   6.396  16.957  0.00  0.00    +0.000 C 
BRANCH  15  16
ATOM     16  C   UNL     1       7.871   7.267  18.017  0.00  0.00    +0.000 C 
BRANCH  16  17
ATOM     17  C   UNL     1       7.788   8.751  17.672  0.00  0.00    +0.000 C 
BRANCH  17  18
ATOM     18  N   UNL     1       8.830   9.493  18.343  0.00  0.00    +0.000 N 
ATOM     19  C   UNL     1       8.958  10.852  18.212  0.00  0.00    +0.000 C 
ATOM     20  O   UNL     1       8.237  11.521  17.474  0.00  0.00    +0.000 OA
ATOM     21  H   UNL     1       9.398   9.006  19.019  0.00  0.00    +0.000 HD
BRANCH  19  22
ATOM     22  C   UNL     1      10.000  11.451  19.014  0.00  0.00    +0.000 A 
ATOM     23  C   UNL     1      11.383  11.388  18.957  0.00  0.00    +0.000 A 
ATOM     24  C   UNL     1      11.902  12.180  20.011  0.00  0.00    +0.000 A 
ATOM     25  C   UNL     1      10.830  12.714  20.687  0.00  0.00    +0.000 A 
ATOM     26  N   UNL     1       9.689  12.270  20.080  0.00  0.00    +0.000 N 
ATOM     27  H   UNL     1       8.739  12.495  20.348  0.00  0.00    +0.000 HD
ENDBRANCH  19  22
ENDBRANCH  17  18
ENDBRANCH  16  17
ENDBRANCH  15  16
ENDBRANCH   4  15
TORSDOF 7
ENDMDL
MODEL 5
REMARK VINA RESULT:      -7.1      2.100      2.601
REMARK  Name = 
REMARK  8 active torsions:
REMARK  status: ('A' for Active; 'I' for Inactive)
REMARK    1  A    between atoms: C_1  and  O_2
REMARK    2  A    between atoms: O_2  and  C_3
REMARK    3  A    between atoms: C_8  and  N_9
REMARK    4  A    between atoms: N_12  and  C_13
REMARK    5  A    between atoms: C_13  and  C_14
REMARK    6  A    between atoms: C_14  and  C_15
REMARK    7  A    between atoms: C_15  and  N_16
REMARK    8  A    between atoms: C_17  and  C_19
REMARK                            x       y       z     vdW  Elec       q    Type
REMARK                         _______ _______ _______ _____ _____    ______ ____
ROOT
ATOM      1  N   UNL     1       4.434   4.670  18.054  0.00  0.00    +0.000 N 
ATOM      2  C   UNL     1       5.021   5.592  19.031  0.00  0.00    +0.000 C 
ATOM      3  C   UNL     1       6.526   5.284  19.189  0.00  0.00    +0.000 C 
ATOM      4  N   UNL     1       7.301   5.347  17.922  0.00  0.00    +0.000 NA
ATOM      5  C   UNL     1       6.649   4.441  16.944  0.00  0.00    +0.000 C 
ATOM      6  C   UNL     1       5.123   4.642  16.752  0.00  0.00    +0.000 C 
ENDROOT
BRANCH   1  12
ATOM      7  C   UNL     1       3.286   2.660  18.962  0.00  0.00    +0.000 A 
ATOM      8  C   UNL     1       2.083   1.951  19.138  0.00  0.00    +0.000 A 
ATOM      9  C   UNL     1       0.873   2.470  18.691  0.00  0.00    +0.000 A 
ATOM     10  C   UNL     1       0.852   3.702  18.059  0.00  0.00    +0.000 A 
ATOM     11  C   UNL     1       2.042   4.408  17.875  0.00  0.00    +0.000 A 
ATOM     12  C   UNL     1       3.295   3.919  18.303  0.00  0.00    +0.000 A 
BRANCH   7  14
ATOM     13  C   UNL     1       4.708   1.946  20.726  0.00  0.00    +0.000 C 
ATOM     14  O   UNL     1       4.492   2.096  19.325  0.00  0.00    +0.000 OA
ENDBRANCH   7  14
ENDBRANCH   1  12
BRANCH   4  15
ATOM     15  C   UNL     1       7.425   6.707  17.377  0.00  0.00    +0.000 C 
BRANCH  15  16
ATOM     16  C   UNL     1       8.111   7.681  18.338  0.00  0.00    +0.000 C 
BRANCH  16  17
ATOM     17  C   UNL     1       8.278   9.066  17.721  0.00  0.00    +0.000 C 
BRANCH  17  18
ATOM     18  N   UNL     1       8.530  10.056  18.744  0.00  0.00    +0.000 N 
ATOM     19  C   UNL     1       9.486  11.029  18.598  0.00  0.00    +0.000 C 
ATOM     20  O   UNL     1      10.229  11.091  17.620  0.00  0.00    +0.000 OA
ATOM     21  H   UNL     1       7.899  10.098  19.529  0.00  0.00    +0.000 HD
BRANCH  19  22
ATOM     22  C   UNL     1       9.554  11.989  19.674  0.00  0.00    +0.000 A 
ATOM     23  C   UNL     1      10.063  11.923  20.961  0.00  0.00    +0.000 A 
ATOM     24  C   UNL     1       9.849  13.178  21.583  0.00  0.00    +0.000 A 
ATOM     25  C   UNL     1       9.220  13.986  20.665  0.00  0.00    +0.000 A 
ATOM     26  N   UNL     1       9.047  13.263  19.520  0.00  0.00    +0.000 N 
ATOM     27  H   UNL     1       8.614  13.587  18.663  0.00  0.00    +0.000 HD
ENDBRANCH  19  22
ENDBRANCH  17  18
ENDBRANCH  16  17
ENDBRANCH  15  16
ENDBRANCH   4  15
TORSDOF 7
ENDMDL
MODEL 6
REMARK VINA RESULT:      -7.0      5.196      7.944
REMARK  Name = 
REMARK  8 active torsions:
REMARK  status: ('A' for Active; 'I' for Inactive)
REMARK    1  A    between atoms: C_1  and  O_2
REMARK    2  A    between atoms: O_2  and  C_3
REMARK    3  A    between atoms: C_8  and  N_9
REMARK    4  A    between atoms: N_12  and  C_13
REMARK    5  A    between atoms: C_13  and  C_14
REMARK    6  A    between atoms: C_14  and  C_15
REMARK    7  A    between atoms: C_15  and  N_16
REMARK    8  A    between atoms: C_17  and  C_19
REMARK                            x       y       z     vdW  Elec       q    Type
REMARK                         _______ _______ _______ _____ _____    ______ ____
ROOT
ATOM      1  N   UNL     1       4.229   3.797  17.345  0.00  0.00    +0.000 N 
ATOM      2  C   UNL     1       3.317   4.806  17.892  0.00  0.00    +0.000 C 
ATOM      3  C   UNL     1       1.858   4.337  17.702  0.00  0.00    +0.000 C 
ATOM      4  N   UNL     1       1.554   3.015  18.310  0.00  0.00    +0.000 NA
ATOM      5  C   UNL     1       2.529   2.032  17.772  0.00  0.00    +0.000 C 
ATOM      6  C   UNL     1       4.022   2.438  17.874  0.00  0.00    +0.000 C 
ENDROOT
BRANCH   1  12
ATOM      7  C   UNL     1       6.572   4.431  16.806  0.00  0.00    +0.000 A 
ATOM      8  C   UNL     1       7.525   4.752  15.821  0.00  0.00    +0.000 A 
ATOM      9  C   UNL     1       7.195   4.728  14.470  0.00  0.00    +0.000 A 
ATOM     10  C   UNL     1       5.909   4.386  14.089  0.00  0.00    +0.000 A 
ATOM     11  C   UNL     1       4.956   4.073  15.061  0.00  0.00    +0.000 A 
ATOM     12  C   UNL     1       5.241   4.093  16.444  0.00  0.00    +0.000 A 
BRANCH   7  14
ATOM     13  C   UNL     1       7.402   5.812  18.551  0.00  0.00    +0.000 C 
ATOM     14  O   UNL     1       6.883   4.548  18.145  0.00  0.00    +0.000 OA
ENDBRANCH   7  14
ENDBRANCH   1  12
BRANCH   4  15
ATOM     15  C   UNL     1       1.578   3.026  19.781  0.00  0.00    +0.000 C 
BRANCH  15  16
ATOM     16  C   UNL     1       0.937   4.279  20.383  0.00  0.00    +0.000 C 
BRANCH  16  17
ATOM     17  C   UNL     1       1.978   5.214  20.991  0.00  0.00    +0.000 C 
BRANCH  17  18
ATOM     18  N   UNL     1       1.406   6.513  21.259  0.00  0.00    +0.000 N 
ATOM     19  C   UNL     1       1.651   7.597  20.455  0.00  0.00    +0.000 C 
ATOM     20  O   UNL     1       2.415   7.553  19.492  0.00  0.00    +0.000 OA
ATOM     21  H   UNL     1       0.714   6.586  21.988  0.00  0.00    +0.000 HD
BRANCH  19  22
ATOM     22  C   UNL     1       0.937   8.801  20.813  0.00  0.00    +0.000 A 
ATOM     23  C   UNL     1       0.421   9.845  20.062  0.00  0.00    +0.000 A 
ATOM     24  C   UNL     1      -0.181  10.769  20.952  0.00  0.00    +0.000 A 
ATOM     25  C   UNL     1      -0.025  10.271  22.224  0.00  0.00    +0.000 A 
ATOM     26  N   UNL     1       0.647   9.086  22.131  0.00  0.00    +0.000 N 
ATOM     27  H   UNL     1       0.909   8.480  22.900  0.00  0.00    +0.000 HD
ENDBRANCH  19  22
ENDBRANCH  17  18
ENDBRANCH  16  17
ENDBRANCH  15  16
ENDBRANCH   4  15
TORSDOF 7
ENDMDL
MODEL 7
REMARK VINA RESULT:      -7.0      1.412      1.782
REMARK  Name = 
REMARK  8 active torsions:
REMARK  status: ('A' for Active; 'I' for Inactive)
REMARK    1  A    between atoms: C_1  and  O_2
REMARK    2  A    between atoms: O_2  and  C_3
REMARK    3  A    between atoms: C_8  and  N_9
REMARK    4  A    between atoms: N_12  and  C_13
REMARK    5  A    between atoms: C_13  and  C_14
REMARK    6  A    between atoms: C_14  and  C_15
REMARK    7  A    between atoms: C_15  and  N_16
REMARK    8  A    between atoms: C_17  and  C_19
REMARK                            x       y       z     vdW  Elec       q    Type
REMARK                         _______ _______ _______ _____ _____    ______ ____
ROOT
ATOM      1  N   UNL     1       4.903   5.130  18.242  0.00  0.00    +0.000 N 
ATOM      2  C   UNL     1       6.165   4.743  18.881  0.00  0.00    +0.000 C 
ATOM      3  C   UNL     1       7.315   4.858  17.857  0.00  0.00    +0.000 C 
ATOM      4  N   UNL     1       7.462   6.207  17.249  0.00  0.00    +0.000 NA
ATOM      5  C   UNL     1       6.154   6.586  16.659  0.00  0.00    +0.000 C 
ATOM      6  C   UNL     1       4.927   6.456  17.599  0.00  0.00    +0.000 C 
ENDROOT
BRANCH   1  12
ATOM      7  C   UNL     1       2.546   4.718  18.919  0.00  0.00    +0.000 A 
ATOM      8  C   UNL     1       1.445   3.841  18.935  0.00  0.00    +0.000 A 
ATOM      9  C   UNL     1       1.508   2.601  18.308  0.00  0.00    +0.000 A 
ATOM     10  C   UNL     1       2.672   2.223  17.661  0.00  0.00    +0.000 A 
ATOM     11  C   UNL     1       3.771   3.084  17.648  0.00  0.00    +0.000 A 
ATOM     12  C   UNL     1       3.758   4.348  18.277  0.00  0.00    +0.000 A 
BRANCH   7  14
ATOM     13  C   UNL     1       1.641   5.924  20.755  0.00  0.00    +0.000 C 
ATOM     14  O   UNL     1       2.507   5.904  19.623  0.00  0.00    +0.000 OA
ENDBRANCH   7  14
ENDBRANCH   1  12
BRANCH   4  15
ATOM     15  C   UNL     1       7.926   7.231  18.197  0.00  0.00    +0.000 C 
BRANCH  15  16
ATOM     16  C   UNL     1       7.796   8.657  17.656  0.00  0.00    +0.000 C 
BRANCH  16  17
ATOM     17  C   UNL     1       8.910   9.564  18.169  0.00  0.00    +0.000 C 
BRANCH  17  18
ATOM     18  N   UNL     1       8.492  10.947  18.155  0.00  0.00    +0.000 N 
ATOM     19  C   UNL     1       9.391  11.981  18.214  0.00  0.00    +0.000 C 
ATOM     20  O   UNL     1      10.602  11.805  18.341  0.00  0.00    +0.000 OA
ATOM     21  H   UNL     1       7.521  11.147  17.975  0.00  0.00    +0.000 HD
BRANCH  19  22
ATOM     22  C   UNL     1       8.816  13.302  18.106  0.00  0.00    +0.000 A 
ATOM     23  C   UNL     1       9.242  14.550  18.533  0.00  0.00    +0.000 A 
ATOM     24  C   UNL     1       8.263  15.501  18.153  0.00  0.00    +0.000 A 
ATOM     25  C   UNL     1       7.264  14.819  17.499  0.00  0.00    +0.000 A 
ATOM     26  N   UNL     1       7.605  13.497  17.475  0.00  0.00    +0.000 N 
ATOM     27  H   UNL     1       7.069  12.744  17.059  0.00  0.00    +0.000 HD
ENDBRANCH  19  22
ENDBRANCH  17  18
ENDBRANCH  16  17
ENDBRANCH  15  16
ENDBRANCH   4  15
TORSDOF 7
ENDMDL
MODEL 8
REMARK VINA RESULT:      -7.0      1.415      2.169
REMARK  Name = 
REMARK  8 active torsions:
REMARK  status: ('A' for Active; 'I' for Inactive)
REMARK    1  A    between atoms: C_1  and  O_2
REMARK    2  A    between atoms: O_2  and  C_3
REMARK    3  A    between atoms: C_8  and  N_9
REMARK    4  A    between atoms: N_12  and  C_13
REMARK    5  A    between atoms: C_13  and  C_14
REMARK    6  A    between atoms: C_14  and  C_15
REMARK    7  A    between atoms: C_15  and  N_16
REMARK    8  A    between atoms: C_17  and  C_19
REMARK                            x       y       z     vdW  Elec       q    Type
REMARK                         _______ _______ _______ _____ _____    ______ ____
ROOT
ATOM      1  N   UNL     1       4.148   5.249  18.984  0.00  0.00    +0.000 N 
ATOM      2  C   UNL     1       5.586   5.285  19.269  0.00  0.00    +0.000 C 
ATOM      3  C   UNL     1       6.373   5.233  17.942  0.00  0.00    +0.000 C 
ATOM      4  N   UNL     1       6.032   6.317  16.982  0.00  0.00    +0.000 NA
ATOM      5  C   UNL     1       4.565   6.281  16.759  0.00  0.00    +0.000 C 
ATOM      6  C   UNL     1       3.688   6.281  18.038  0.00  0.00    +0.000 C 
ENDROOT
BRANCH   1  12
ATOM      7  C   UNL     1       3.016   3.039  19.123  0.00  0.00    +0.000 A 
ATOM      8  C   UNL     1       2.082   2.216  19.779  0.00  0.00    +0.000 A 
ATOM      9  C   UNL     1       1.402   2.663  20.908  0.00  0.00    +0.000 A 
ATOM     10  C   UNL     1       1.645   3.937  21.390  0.00  0.00    +0.000 A 
ATOM     11  C   UNL     1       2.566   4.762  20.740  0.00  0.00    +0.000 A 
ATOM     12  C   UNL     1       3.273   4.357  19.587  0.00  0.00    +0.000 A 
BRANCH   7  14
ATOM     13  C   UNL     1       2.882   2.879  16.756  0.00  0.00    +0.000 C 
ATOM     14  O   UNL     1       3.615   2.623  17.952  0.00  0.00    +0.000 OA
ENDBRANCH   7  14
ENDBRANCH   1  12
BRANCH   4  15
ATOM     15  C   UNL     1       6.463   7.651  17.427  0.00  0.00    +0.000 C 
BRANCH  15  16
ATOM     16  C   UNL     1       7.985   7.808  17.472  0.00  0.00    +0.000 C 
BRANCH  16  17
ATOM     17  C   UNL     1       8.433   8.682  18.639  0.00  0.00    +0.000 C 
BRANCH  17  18
ATOM     18  N   UNL     1       8.899   9.966  18.168  0.00  0.00    +0.000 N 
ATOM     19  C   UNL     1       9.473  10.887  19.008  0.00  0.00    +0.000 C 
ATOM     20  O   UNL     1       9.576  10.708  20.220  0.00  0.00    +0.000 OA
ATOM     21  H   UNL     1       8.909  10.131  17.174  0.00  0.00    +0.000 HD
BRANCH  19  22
ATOM     22  C   UNL     1       9.960  12.085  18.365  0.00  0.00    +0.000 A 
ATOM     23  C   UNL     1      11.023  12.325  17.509  0.00  0.00    +0.000 A 
ATOM     24  C   UNL     1      11.028  13.706  17.193  0.00  0.00    +0.000 A 
ATOM     25  C   UNL     1       9.969  14.280  17.856  0.00  0.00    +0.000 A 
ATOM     26  N   UNL     1       9.331  13.297  18.557  0.00  0.00    +0.000 N 
ATOM     27  H   UNL     1       8.512  13.410  19.142  0.00  0.00    +0.000 HD
ENDBRANCH  19  22
ENDBRANCH  17  18
ENDBRANCH  16  17
ENDBRANCH  15  16
ENDBRANCH   4  15
TORSDOF 7
ENDMDL
MODEL 9
REMARK VINA RESULT:      -6.8      2.143      2.800
REMARK  Name = 
REMARK  8 active torsions:
REMARK  status: ('A' for Active; 'I' for Inactive)
REMARK    1  A    between atoms: C_1  and  O_2
REMARK    2  A    between atoms: O_2  and  C_3
REMARK    3  A    between atoms: C_8  and  N_9
REMARK    4  A    between atoms: N_12  and  C_13
REMARK    5  A    between atoms: C_13  and  C_14
REMARK    6  A    between atoms: C_14  and  C_15
REMARK    7  A    between atoms: C_15  and  N_16
REMARK    8  A    between atoms: C_17  and  C_19
REMARK                            x       y       z     vdW  Elec       q    Type
REMARK                         _______ _______ _______ _____ _____    ______ ____
ROOT
ATOM      1  N   UNL     1       4.363   4.987  18.734  0.00  0.00    +0.000 N 
ATOM      2  C   UNL     1       5.534   5.535  19.424  0.00  0.00    +0.000 C 
ATOM      3  C   UNL     1       6.820   4.975  18.777  0.00  0.00    +0.000 C 
ATOM      4  N   UNL     1       6.938   5.237  17.318  0.00  0.00    +0.000 NA
ATOM      5  C   UNL     1       5.713   4.715  16.662  0.00  0.00    +0.000 C 
ATOM      6  C   UNL     1       4.367   5.185  17.273  0.00  0.00    +0.000 C 
ENDROOT
BRANCH   1  12
ATOM      7  C   UNL     1       3.297   3.024  19.826  0.00  0.00    +0.000 A 
ATOM      8  C   UNL     1       2.162   2.480  20.456  0.00  0.00    +0.000 A 
ATOM      9  C   UNL     1       1.030   3.254  20.687  0.00  0.00    +0.000 A 
ATOM     10  C   UNL     1       1.018   4.580  20.289  0.00  0.00    +0.000 A 
ATOM     11  C   UNL     1       2.138   5.125  19.658  0.00  0.00    +0.000 A 
ATOM     12  C   UNL     1       3.305   4.377  19.393  0.00  0.00    +0.000 A 
BRANCH   7  14
ATOM     13  C   UNL     1       5.017   1.593  20.623  0.00  0.00    +0.000 C 
ATOM     14  O   UNL     1       4.378   2.225  19.517  0.00  0.00    +0.000 OA
ENDBRANCH   7  14
ENDBRANCH   1  12
BRANCH   4  15
ATOM     15  C   UNL     1       7.144   6.656  16.992  0.00  0.00    +0.000 C 
BRANCH  15  16
ATOM     16  C   UNL     1       7.865   7.430  18.099  0.00  0.00    +0.000 C 
BRANCH  16  17
ATOM     17  C   UNL     1       8.290   8.820  17.637  0.00  0.00    +0.000 C 
BRANCH  17  18
ATOM     18  N   UNL     1       8.588   9.668  18.768  0.00  0.00    +0.000 N 
ATOM     19  C   UNL     1       9.417  10.756  18.667  0.00  0.00    +0.000 C 
ATOM     20  O   UNL     1      10.006  11.049  17.628  0.00  0.00    +0.000 OA
ATOM     21  H   UNL     1       8.072   9.518  19.621  0.00  0.00    +0.000 HD
BRANCH  19  22
ATOM     22  C   UNL     1       9.544  11.545  19.869  0.00  0.00    +0.000 A 
ATOM     23  C   UNL     1       9.113  11.349  21.172  0.00  0.00    +0.000 A 
ATOM     24  C   UNL     1       9.519  12.467  21.941  0.00  0.00    +0.000 A 
ATOM     25  C   UNL     1      10.193  13.319  21.099  0.00  0.00    +0.000 A 
ATOM     26  N   UNL     1      10.204  12.756  19.854  0.00  0.00    +0.000 N 
ATOM     27  H   UNL     1      10.629  13.146  19.021  0.00  0.00    +0.000 HD
ENDBRANCH  19  22
ENDBRANCH  17  18
ENDBRANCH  16  17
ENDBRANCH  15  16
ENDBRANCH   4  15
TORSDOF 7
ENDMDL
