MODEL 1
REMARK VINA RESULT:      -5.1      0.000      0.000
REMARK  Name = 
REMARK  13 active torsions:
REMARK  status: ('A' for Active; 'I' for Inactive)
REMARK    1  A    between atoms: C_1  and  C_2
REMARK    2  A    between atoms: C_2  and  C_3
REMARK    3  A    between atoms: C_3  and  C_4
REMARK    4  A    between atoms: C_4  and  C_5
REMARK    5  A    between atoms: C_5  and  C_6
REMARK    6  A    between atoms: C_6  and  C_7
REMARK    7  A    between atoms: C_7  and  C_8
REMARK    8  A    between atoms: C_8  and  C_9
REMARK    9  A    between atoms: C_9  and  C_10
REMARK   10  A    between atoms: C_10  and  C_11
REMARK   11  A    between atoms: C_11  and  C_12
REMARK   12  A    between atoms: C_12  and  N_13
REMARK   13  A    between atoms: N_16  and  C_17
REMARK                            x       y       z     vdW  Elec       q    Type
REMARK                         _______ _______ _______ _____ _____    ______ ____
ROOT
ATOM      1  C   UNL     1       3.143   6.603  19.412  0.00  0.00    +0.000 C 
ENDROOT
BRANCH   1   2
ATOM      2  C   UNL     1       2.002   6.257  20.362  0.00  0.00    +0.000 C 
BRANCH   2   3
ATOM      3  C   UNL     1       2.178   4.848  20.919  0.00  0.00    +0.000 C 
BRANCH   3   4
ATOM      4  C   UNL     1       0.951   3.993  20.619  0.00  0.00    +0.000 C 
BRANCH   4   5
ATOM      5  C   UNL     1       1.304   2.511  20.660  0.00  0.00    +0.000 C 
BRANCH   5   6
ATOM      6  C   UNL     1       2.006   2.086  19.374  0.00  0.00    +0.000 C 
BRANCH   6   7
ATOM      7  C   UNL     1       1.466   2.868  18.180  0.00  0.00    +0.000 C 
BRANCH   7   9
ATOM      8  C   UNL     1       3.952   2.952  17.848  0.00  0.00    +0.000 C 
ATOM      9  C   UNL     1       2.600   3.343  17.277  0.00  0.00    +0.000 C 
ENDBRANCH   7   9
ENDBRANCH   6   7
ENDBRANCH   5   6
ENDBRANCH   4   5
ENDBRANCH   3   4
ENDBRANCH   2   3
ENDBRANCH   1   2
BRANCH   1  10
ATOM     10  C   UNL     1       2.618   6.864  18.003  0.00  0.00    +0.000 C 
BRANCH  10  11
ATOM     11  C   UNL     1       3.767   7.173  17.050  0.00  0.00    +0.000 C 
BRANCH  11  12
ATOM     12  C   UNL     1       5.099   6.745  17.643  0.00  0.00    +0.000 C 
BRANCH  12  13
ATOM     13  N   UNL     1       5.785   5.808  16.755  0.00  0.00    +0.000 N 
ATOM     14  C   UNL     1       6.953   5.119  17.044  0.00  0.00    +0.000 A 
ATOM     15  C   UNL     1       7.228   4.340  15.958  0.00  0.00    +0.000 A 
ATOM     16  N   UNL     1       6.226   4.578  15.031  0.00  0.00    +0.000 N 
ATOM     17  C   UNL     1       6.093   3.950  13.723  0.00  0.00    +0.000 C 
ATOM     18  C   UNL     1       5.372   5.487  15.521  0.00  0.00    +0.000 A 
ENDBRANCH  12  13
ENDBRANCH  11  12
ENDBRANCH  10  11
ENDBRANCH   1  10
TORSDOF 11
ENDMDL
MODEL 2
REMARK VINA RESULT:      -5.0      1.767      3.381
REMARK  Name = 
REMARK  13 active torsions:
REMARK  status: ('A' for Active; 'I' for Inactive)
REMARK    1  A    between atoms: C_1  and  C_2
REMARK    2  A    between atoms: C_2  and  C_3
REMARK    3  A    between atoms: C_3  and  C_4
REMARK    4  A    between atoms: C_4  and  C_5
REMARK    5  A    between atoms: C_5  and  C_6
REMARK    6  A    between atoms: C_6  and  C_7
REMARK    7  A    between atoms: C_7  and  C_8
REMARK    8  A    between atoms: C_8  and  C_9
REMARK    9  A    between atoms: C_9  and  C_10
REMARK   10  A    between atoms: C_10  and  C_11
REMARK   11  A    between atoms: C_11  and  C_12
REMARK   12  A    between atoms: C_12  and  N_13
REMARK   13  A    between atoms: N_16  and  C_17
REMARK                            x       y       z     vdW  Elec       q    Type
REMARK                         _______ _______ _______ _____ _____    ______ ____
ROOT
ATOM      1  C   UNL     1       5.161   3.969  18.555  0.00  0.00    +0.000 C 
ENDROOT
BRANCH   1   2
ATOM      2  C   UNL     1       3.987   3.013  18.380  0.00  0.00    +0.000 C 
BRANCH   2   3
ATOM      3  C   UNL     1       3.046   3.513  17.289  0.00  0.00    +0.000 C 
BRANCH   3   4
ATOM      4  C   UNL     1       1.725   3.983  17.890  0.00  0.00    +0.000 C 
BRANCH   4   5
ATOM      5  C   UNL     1       0.926   2.802  18.428  0.00  0.00    +0.000 C 
BRANCH   5   6
ATOM      6  C   UNL     1       0.601   2.996  19.906  0.00  0.00    +0.000 C 
BRANCH   6   7
ATOM      7  C   UNL     1       1.108   4.349  20.397  0.00  0.00    +0.000 C 
BRANCH   7   9
ATOM      8  C   UNL     1       2.429   2.708  21.762  0.00  0.00    +0.000 C 
ATOM      9  C   UNL     1       2.203   4.177  21.446  0.00  0.00    +0.000 C 
ENDBRANCH   7   9
ENDBRANCH   6   7
ENDBRANCH   5   6
ENDBRANCH   4   5
ENDBRANCH   3   4
ENDBRANCH   2   3
ENDBRANCH   1   2
BRANCH   1  10
ATOM     10  C   UNL     1       5.353   4.829  17.309  0.00  0.00    +0.000 C 
BRANCH  10  11
ATOM     11  C   UNL     1       6.558   4.351  16.507  0.00  0.00    +0.000 C 
BRANCH  11  12
ATOM     12  C   UNL     1       6.938   5.363  15.438  0.00  0.00    +0.000 C 
BRANCH  12  13
ATOM     13  N   UNL     1       6.857   4.765  14.106  0.00  0.00    +0.000 N 
ATOM     14  C   UNL     1       7.678   5.063  13.030  0.00  0.00    +0.000 A 
ATOM     15  C   UNL     1       7.278   4.264  11.998  0.00  0.00    +0.000 A 
ATOM     16  N   UNL     1       6.219   3.505  12.469  0.00  0.00    +0.000 N 
ATOM     17  C   UNL     1       5.482   2.494  11.721  0.00  0.00    +0.000 C 
ATOM     18  C   UNL     1       5.961   3.837  13.741  0.00  0.00    +0.000 A 
ENDBRANCH  12  13
ENDBRANCH  11  12
ENDBRANCH  10  11
ENDBRANCH   1  10
TORSDOF 11
ENDMDL
MODEL 3
REMARK VINA RESULT:      -5.0      2.975      6.807
REMARK  Name = 
REMARK  13 active torsions:
REMARK  status: ('A' for Active; 'I' for Inactive)
REMARK    1  A    between atoms: C_1  and  C_2
REMARK    2  A    between atoms: C_2  and  C_3
REMARK    3  A    between atoms: C_3  and  C_4
REMARK    4  A    between atoms: C_4  and  C_5
REMARK    5  A    between atoms: C_5  and  C_6
REMARK    6  A    between atoms: C_6  and  C_7
REMARK    7  A    between atoms: C_7  and  C_8
REMARK    8  A    between atoms: C_8  and  C_9
REMARK    9  A    between atoms: C_9  and  C_10
REMARK   10  A    between atoms: C_10  and  C_11
REMARK   11  A    between atoms: C_11  and  C_12
REMARK   12  A    between atoms: C_12  and  N_13
REMARK   13  A    between atoms: N_16  and  C_17
REMARK                            x       y       z     vdW  Elec       q    Type
REMARK                         _______ _______ _______ _____ _____    ______ ____
ROOT
ATOM      1  C   UNL     1       4.875   4.937  15.719  0.00  0.00    +0.000 C 
ENDROOT
BRANCH   1   2
ATOM      2  C   UNL     1       5.596   5.065  14.382  0.00  0.00    +0.000 C 
BRANCH   2   3
ATOM      3  C   UNL     1       6.296   3.759  14.022  0.00  0.00    +0.000 C 
BRANCH   3   4
ATOM      4  C   UNL     1       6.264   3.528  12.515  0.00  0.00    +0.000 C 
BRANCH   4   5
ATOM      5  C   UNL     1       4.919   3.948  11.933  0.00  0.00    +0.000 C 
BRANCH   5   6
ATOM      6  C   UNL     1       4.255   2.780  11.209  0.00  0.00    +0.000 C 
BRANCH   6   7
ATOM      7  C   UNL     1       2.999   3.243  10.476  0.00  0.00    +0.000 C 
BRANCH   7   9
ATOM      8  C   UNL     1       2.056   4.966   8.914  0.00  0.00    +0.000 C 
ATOM      9  C   UNL     1       3.325   4.346   9.473  0.00  0.00    +0.000 C 
ENDBRANCH   7   9
ENDBRANCH   6   7
ENDBRANCH   5   6
ENDBRANCH   4   5
ENDBRANCH   3   4
ENDBRANCH   2   3
ENDBRANCH   1   2
BRANCH   1  10
ATOM     10  C   UNL     1       5.563   5.777  16.790  0.00  0.00    +0.000 C 
BRANCH  10  11
ATOM     11  C   UNL     1       6.148   4.886  17.880  0.00  0.00    +0.000 C 
BRANCH  11  12
ATOM     12  C   UNL     1       5.464   5.135  19.215  0.00  0.00    +0.000 C 
BRANCH  12  13
ATOM     13  N   UNL     1       4.343   4.215  19.402  0.00  0.00    +0.000 N 
ATOM     14  C   UNL     1       4.251   2.930  18.893  0.00  0.00    +0.000 A 
ATOM     15  C   UNL     1       3.062   2.419  19.326  0.00  0.00    +0.000 A 
ATOM     16  N   UNL     1       2.455   3.409  20.083  0.00  0.00    +0.000 N 
ATOM     17  C   UNL     1       1.173   3.307  20.767  0.00  0.00    +0.000 C 
ATOM     18  C   UNL     1       3.234   4.499  20.100  0.00  0.00    +0.000 A 
ENDBRANCH  12  13
ENDBRANCH  11  12
ENDBRANCH  10  11
ENDBRANCH   1  10
TORSDOF 11
ENDMDL
MODEL 4
REMARK VINA RESULT:      -5.0      1.341      3.074
REMARK  Name = 
REMARK  13 active torsions:
REMARK  status: ('A' for Active; 'I' for Inactive)
REMARK    1  A    between atoms: C_1  and  C_2
REMARK    2  A    between atoms: C_2  and  C_3
REMARK    3  A    between atoms: C_3  and  C_4
REMARK    4  A    between atoms: C_4  and  C_5
REMARK    5  A    between atoms: C_5  and  C_6
REMARK    6  A    between atoms: C_6  and  C_7
REMARK    7  A    between atoms: C_7  and  C_8
REMARK    8  A    between atoms: C_8  and  C_9
REMARK    9  A    between atoms: C_9  and  C_10
REMARK   10  A    between atoms: C_10  and  C_11
REMARK   11  A    between atoms: C_11  and  C_12
REMARK   12  A    between atoms: C_12  and  N_13
REMARK   13  A    between atoms: N_16  and  C_17
REMARK                            x       y       z     vdW  Elec       q    Type
REMARK                         _______ _______ _______ _____ _____    ______ ____
ROOT
ATOM      1  C   UNL     1       3.770   5.310  17.384  0.00  0.00    +0.000 C 
ENDROOT
BRANCH   1   2
ATOM      2  C   UNL     1       4.243   4.039  18.083  0.00  0.00    +0.000 C 
BRANCH   2   3
ATOM      3  C   UNL     1       3.346   2.861  17.718  0.00  0.00    +0.000 C 
BRANCH   3   4
ATOM      4  C   UNL     1       1.893   3.309  17.593  0.00  0.00    +0.000 C 
BRANCH   4   5
ATOM      5  C   UNL     1       1.019   2.597  18.620  0.00  0.00    +0.000 C 
BRANCH   5   6
ATOM      6  C   UNL     1       1.813   2.291  19.887  0.00  0.00    +0.000 C 
BRANCH   6   7
ATOM      7  C   UNL     1       1.347   3.172  21.042  0.00  0.00    +0.000 C 
BRANCH   7   9
ATOM      8  C   UNL     1       1.827   5.589  20.567  0.00  0.00    +0.000 C 
ATOM      9  C   UNL     1       2.311   4.333  21.271  0.00  0.00    +0.000 C 
ENDBRANCH   7   9
ENDBRANCH   6   7
ENDBRANCH   5   6
ENDBRANCH   4   5
ENDBRANCH   3   4
ENDBRANCH   2   3
ENDBRANCH   1   2
BRANCH   1  10
ATOM     10  C   UNL     1       4.916   6.305  17.232  0.00  0.00    +0.000 C 
BRANCH  10  11
ATOM     11  C   UNL     1       5.458   6.286  15.808  0.00  0.00    +0.000 C 
BRANCH  11  12
ATOM     12  C   UNL     1       6.628   5.323  15.681  0.00  0.00    +0.000 C 
BRANCH  12  13
ATOM     13  N   UNL     1       6.700   4.770  14.329  0.00  0.00    +0.000 N 
ATOM     14  C   UNL     1       7.626   5.116  13.358  0.00  0.00    +0.000 A 
ATOM     15  C   UNL     1       7.352   4.348  12.263  0.00  0.00    +0.000 A 
ATOM     16  N   UNL     1       6.262   3.559  12.592  0.00  0.00    +0.000 N 
ATOM     17  C   UNL     1       5.627   2.565  11.737  0.00  0.00    +0.000 C 
ATOM     18  C   UNL     1       5.864   3.843  13.840  0.00  0.00    +0.000 A 
ENDBRANCH  12  13
ENDBRANCH  11  12
ENDBRANCH  10  11
ENDBRANCH   1  10
TORSDOF 11
ENDMDL
MODEL 5
REMARK VINA RESULT:      -5.0      1.243      3.711
REMARK  Name = 
REMARK  13 active torsions:
REMARK  status: ('A' for Active; 'I' for Inactive)
REMARK    1  A    between atoms: C_1  and  C_2
REMARK    2  A    between atoms: C_2  and  C_3
REMARK    3  A    between atoms: C_3  and  C_4
REMARK    4  A    between atoms: C_4  and  C_5
REMARK    5  A    between atoms: C_5  and  C_6
REMARK    6  A    between atoms: C_6  and  C_7
REMARK    7  A    between atoms: C_7  and  C_8
REMARK    8  A    between atoms: C_8  and  C_9
REMARK    9  A    between atoms: C_9  and  C_10
REMARK   10  A    between atoms: C_10  and  C_11
REMARK   11  A    between atoms: C_11  and  C_12
REMARK   12  A    between atoms: C_12  and  N_13
REMARK   13  A    between atoms: N_16  and  C_17
REMARK                            x       y       z     vdW  Elec       q    Type
REMARK                         _______ _______ _______ _____ _____    ______ ____
ROOT
ATOM      1  C   UNL     1       1.329   2.807  18.383  0.00  0.00    +0.000 C 
ENDROOT
BRANCH   1   2
ATOM      2  C   UNL     1       0.679   3.068  19.737  0.00  0.00    +0.000 C 
BRANCH   2   3
ATOM      3  C   UNL     1       1.661   2.776  20.867  0.00  0.00    +0.000 C 
BRANCH   3   4
ATOM      4  C   UNL     1       2.204   4.073  21.458  0.00  0.00    +0.000 C 
BRANCH   4   5
ATOM      5  C   UNL     1       1.592   5.282  20.760  0.00  0.00    +0.000 C 
BRANCH   5   6
ATOM      6  C   UNL     1       2.641   6.018  19.932  0.00  0.00    +0.000 C 
BRANCH   6   7
ATOM      7  C   UNL     1       2.174   7.432  19.600  0.00  0.00    +0.000 C 
BRANCH   7   9
ATOM      8  C   UNL     1       2.107   9.196  17.816  0.00  0.00    +0.000 C 
ATOM      9  C   UNL     1       2.307   7.718  18.108  0.00  0.00    +0.000 C 
ENDBRANCH   7   9
ENDBRANCH   6   7
ENDBRANCH   5   6
ENDBRANCH   4   5
ENDBRANCH   3   4
ENDBRANCH   2   3
ENDBRANCH   1   2
BRANCH   1  10
ATOM     10  C   UNL     1       2.558   1.917  18.531  0.00  0.00    +0.000 C 
BRANCH  10  11
ATOM     11  C   UNL     1       3.809   2.643  18.051  0.00  0.00    +0.000 C 
BRANCH  11  12
ATOM     12  C   UNL     1       3.448   3.884  17.252  0.00  0.00    +0.000 C 
BRANCH  12  13
ATOM     13  N   UNL     1       4.652   4.600  16.832  0.00  0.00    +0.000 N 
ATOM     14  C   UNL     1       5.271   4.495  15.597  0.00  0.00    +0.000 A 
ATOM     15  C   UNL     1       6.337   5.348  15.619  0.00  0.00    +0.000 A 
ATOM     16  N   UNL     1       6.345   5.944  16.869  0.00  0.00    +0.000 N 
ATOM     17  C   UNL     1       7.294   6.943  17.342  0.00  0.00    +0.000 C 
ATOM     18  C   UNL     1       5.331   5.463  17.601  0.00  0.00    +0.000 A 
ENDBRANCH  12  13
ENDBRANCH  11  12
ENDBRANCH  10  11
ENDBRANCH   1  10
TORSDOF 11
ENDMDL
MODEL 6
REMARK VINA RESULT:      -4.9      2.941      6.966
REMARK  Name = 
REMARK  13 active torsions:
REMARK  status: ('A' for Active; 'I' for Inactive)
REMARK    1  A    between atoms: C_1  and  C_2
REMARK    2  A    between atoms: C_2  and  C_3
REMARK    3  A    between atoms: C_3  and  C_4
REMARK    4  A    between atoms: C_4  and  C_5
REMARK    5  A    between atoms: C_5  and  C_6
REMARK    6  A    between atoms: C_6  and  C_7
REMARK    7  A    between atoms: C_7  and  C_8
REMARK    8  A    between atoms: C_8  and  C_9
REMARK    9  A    between atoms: C_9  and  C_10
REMARK   10  A    between atoms: C_10  and  C_11
REMARK   11  A    between atoms: C_11  and  C_12
REMARK   12  A    between atoms: C_12  and  N_13
REMARK   13  A    between atoms: N_16  and  C_17
REMARK                            x       y       z     vdW  Elec       q    Type
REMARK                         _______ _______ _______ _____ _____    ______ ____
ROOT
ATOM      1  C   UNL     1       5.426   4.071  16.227  0.00  0.00    +0.000 C 
ENDROOT
BRANCH   1   2
ATOM      2  C   UNL     1       5.975   4.636  14.922  0.00  0.00    +0.000 C 
BRANCH   2   3
ATOM      3  C   UNL     1       5.321   3.954  13.725  0.00  0.00    +0.000 C 
BRANCH   3   4
ATOM      4  C   UNL     1       6.375   3.512  12.715  0.00  0.00    +0.000 C 
BRANCH   4   5
ATOM      5  C   UNL     1       5.725   2.811  11.528  0.00  0.00    +0.000 C 
BRANCH   5   6
ATOM      6  C   UNL     1       4.218   3.054  11.515  0.00  0.00    +0.000 C 
BRANCH   6   7
ATOM      7  C   UNL     1       3.868   4.226  10.603  0.00  0.00    +0.000 C 
BRANCH   7   9
ATOM      8  C   UNL     1       2.167   4.975   8.916  0.00  0.00    +0.000 C 
ATOM      9  C   UNL     1       2.929   3.789   9.483  0.00  0.00    +0.000 C 
ENDBRANCH   7   9
ENDBRANCH   6   7
ENDBRANCH   5   6
ENDBRANCH   4   5
ENDBRANCH   3   4
ENDBRANCH   2   3
ENDBRANCH   1   2
BRANCH   1  10
ATOM     10  C   UNL     1       6.207   4.606  17.423  0.00  0.00    +0.000 C 
BRANCH  10  11
ATOM     11  C   UNL     1       5.470   5.775  18.066  0.00  0.00    +0.000 C 
BRANCH  11  12
ATOM     12  C   UNL     1       3.975   5.692  17.800  0.00  0.00    +0.000 C 
BRANCH  12  13
ATOM     13  N   UNL     1       3.254   5.307  19.012  0.00  0.00    +0.000 N 
ATOM     14  C   UNL     1       2.298   6.068  19.666  0.00  0.00    +0.000 A 
ATOM     15  C   UNL     1       1.864   5.326  20.727  0.00  0.00    +0.000 A 
ATOM     16  N   UNL     1       2.571   4.135  20.697  0.00  0.00    +0.000 N 
ATOM     17  C   UNL     1       2.428   3.023  21.627  0.00  0.00    +0.000 C 
ATOM     18  C   UNL     1       3.426   4.148  19.665  0.00  0.00    +0.000 A 
ENDBRANCH  12  13
ENDBRANCH  11  12
ENDBRANCH  10  11
ENDBRANCH   1  10
TORSDOF 11
ENDMDL
MODEL 7
REMARK VINA RESULT:      -4.9      1.452      2.647
REMARK  Name = 
REMARK  13 active torsions:
REMARK  status: ('A' for Active; 'I' for Inactive)
REMARK    1  A    between atoms: C_1  and  C_2
REMARK    2  A    between atoms: C_2  and  C_3
REMARK    3  A    between atoms: C_3  and  C_4
REMARK    4  A    between atoms: C_4  and  C_5
REMARK    5  A    between atoms: C_5  and  C_6
REMARK    6  A    between atoms: C_6  and  C_7
REMARK    7  A    between atoms: C_7  and  C_8
REMARK    8  A    between atoms: C_8  and  C_9
REMARK    9  A    between atoms: C_9  and  C_10
REMARK   10  A    between atoms: C_10  and  C_11
REMARK   11  A    between atoms: C_11  and  C_12
REMARK   12  A    between atoms: C_12  and  N_13
REMARK   13  A    between atoms: N_16  and  C_17
REMARK                            x       y       z     vdW  Elec       q    Type
REMARK                         _______ _______ _______ _____ _____    ______ ____
ROOT
ATOM      1  C   UNL     1       5.107   5.814  18.341  0.00  0.00    +0.000 C 
ENDROOT
BRANCH   1   2
ATOM      2  C   UNL     1       4.180   5.378  19.470  0.00  0.00    +0.000 C 
BRANCH   2   3
ATOM      3  C   UNL     1       2.948   6.274  19.530  0.00  0.00    +0.000 C 
BRANCH   3   4
ATOM      4  C   UNL     1       1.885   5.669  20.442  0.00  0.00    +0.000 C 
BRANCH   4   5
ATOM      5  C   UNL     1       2.210   4.214  20.758  0.00  0.00    +0.000 C 
BRANCH   5   6
ATOM      6  C   UNL     1       0.960   3.346  20.653  0.00  0.00    +0.000 C 
BRANCH   6   7
ATOM      7  C   UNL     1       0.943   2.578  19.334  0.00  0.00    +0.000 C 
BRANCH   7   9
ATOM      8  C   UNL     1       2.714   2.384  17.567  0.00  0.00    +0.000 C 
ATOM      9  C   UNL     1       2.330   2.039  18.995  0.00  0.00    +0.000 C 
ENDBRANCH   7   9
ENDBRANCH   6   7
ENDBRANCH   5   6
ENDBRANCH   4   5
ENDBRANCH   3   4
ENDBRANCH   2   3
ENDBRANCH   1   2
BRANCH   1  10
ATOM     10  C   UNL     1       4.481   5.523  16.981  0.00  0.00    +0.000 C 
BRANCH  10  11
ATOM     11  C   UNL     1       5.316   4.506  16.212  0.00  0.00    +0.000 C 
BRANCH  11  12
ATOM     12  C   UNL     1       6.424   5.190  15.427  0.00  0.00    +0.000 C 
BRANCH  12  13
ATOM     13  N   UNL     1       6.546   4.610  14.090  0.00  0.00    +0.000 N 
ATOM     14  C   UNL     1       7.440   5.010  13.109  0.00  0.00    +0.000 A 
ATOM     15  C   UNL     1       7.236   4.192  12.036  0.00  0.00    +0.000 A 
ATOM     16  N   UNL     1       6.219   3.319  12.386  0.00  0.00    +0.000 N 
ATOM     17  C   UNL     1       5.675   2.250  11.559  0.00  0.00    +0.000 C 
ATOM     18  C   UNL     1       5.796   3.600  13.627  0.00  0.00    +0.000 A 
ENDBRANCH  12  13
ENDBRANCH  11  12
ENDBRANCH  10  11
ENDBRANCH   1  10
TORSDOF 11
ENDMDL
MODEL 8
REMARK VINA RESULT:      -4.8      2.717      5.312
REMARK  Name = 
REMARK  13 active torsions:
REMARK  status: ('A' for Active; 'I' for Inactive)
REMARK    1  A    between atoms: C_1  and  C_2
REMARK    2  A    between atoms: C_2  and  C_3
REMARK    3  A    between atoms: C_3  and  C_4
REMARK    4  A    between atoms: C_4  and  C_5
REMARK    5  A    between atoms: C_5  and  C_6
REMARK    6  A    between atoms: C_6  and  C_7
REMARK    7  A    between atoms: C_7  and  C_8
REMARK    8  A    between atoms: C_8  and  C_9
REMARK    9  A    between atoms: C_9  and  C_10
REMARK   10  A    between atoms: C_10  and  C_11
REMARK   11  A    between atoms: C_11  and  C_12
REMARK   12  A    between atoms: C_12  and  N_13
REMARK   13  A    between atoms: N_16  and  C_17
REMARK                            x       y       z     vdW  Elec       q    Type
REMARK                         _______ _______ _______ _____ _____    ______ ____
ROOT
ATOM      1  C   UNL     1       5.663   5.909  17.933  0.00  0.00    +0.000 C 
ENDROOT
BRANCH   1   2
ATOM      2  C   UNL     1       5.673   4.390  18.065  0.00  0.00    +0.000 C 
BRANCH   2   3
ATOM      3  C   UNL     1       4.426   3.907  18.800  0.00  0.00    +0.000 C 
BRANCH   3   4
ATOM      4  C   UNL     1       3.779   2.743  18.056  0.00  0.00    +0.000 C 
BRANCH   4   5
ATOM      5  C   UNL     1       2.610   3.229  17.207  0.00  0.00    +0.000 C 
BRANCH   5   6
ATOM      6  C   UNL     1       1.452   3.684  18.090  0.00  0.00    +0.000 C 
BRANCH   6   7
ATOM      7  C   UNL     1       0.972   2.542  18.982  0.00  0.00    +0.000 C 
BRANCH   7   9
ATOM      8  C   UNL     1       1.281   4.427  20.609  0.00  0.00    +0.000 C 
ATOM      9  C   UNL     1       1.013   2.940  20.454  0.00  0.00    +0.000 C 
ENDBRANCH   7   9
ENDBRANCH   6   7
ENDBRANCH   5   6
ENDBRANCH   4   5
ENDBRANCH   3   4
ENDBRANCH   2   3
ENDBRANCH   1   2
BRANCH   1  10
ATOM     10  C   UNL     1       4.586   6.363  16.954  0.00  0.00    +0.000 C 
BRANCH  10  11
ATOM     11  C   UNL     1       3.797   7.535  17.527  0.00  0.00    +0.000 C 
BRANCH  11  12
ATOM     12  C   UNL     1       2.616   7.048  18.351  0.00  0.00    +0.000 C 
BRANCH  12  13
ATOM     13  N   UNL     1       1.904   8.175  18.953  0.00  0.00    +0.000 N 
ATOM     14  C   UNL     1       1.537   8.287  20.284  0.00  0.00    +0.000 A 
ATOM     15  C   UNL     1       0.922   9.498  20.422  0.00  0.00    +0.000 A 
ATOM     16  N   UNL     1       0.923  10.090  19.169  0.00  0.00    +0.000 N 
ATOM     17  C   UNL     1       0.388  11.403  18.835  0.00  0.00    +0.000 C 
ATOM     18  C   UNL     1       1.501   9.265  18.285  0.00  0.00    +0.000 A 
ENDBRANCH  12  13
ENDBRANCH  11  12
ENDBRANCH  10  11
ENDBRANCH   1  10
TORSDOF 11
ENDMDL
MODEL 9
REMARK VINA RESULT:      -4.8      1.409      2.959
REMARK  Name = 
REMARK  13 active torsions:
REMARK  status: ('A' for Active; 'I' for Inactive)
REMARK    1  A    between atoms: C_1  and  C_2
REMARK    2  A    between atoms: C_2  and  C_3
REMARK    3  A    between atoms: C_3  and  C_4
REMARK    4  A    between atoms: C_4  and  C_5
REMARK    5  A    between atoms: C_5  and  C_6
REMARK    6  A    between atoms: C_6  and  C_7
REMARK    7  A    between atoms: C_7  and  C_8
REMARK    8  A    between atoms: C_8  and  C_9
REMARK    9  A    between atoms: C_9  and  C_10
REMARK   10  A    between atoms: C_10  and  C_11
REMARK   11  A    between atoms: C_11  and  C_12
REMARK   12  A    between atoms: C_12  and  N_13
REMARK   13  A    between atoms: N_16  and  C_17
REMARK                            x       y       z     vdW  Elec       q    Type
REMARK                         _______ _______ _______ _____ _____    ______ ____
ROOT
ATOM      1  C   UNL     1       4.318   6.722  17.815  0.00  0.00    +0.000 C 
ENDROOT
BRANCH   1   2
ATOM      2  C   UNL     1       2.796   6.684  17.889  0.00  0.00    +0.000 C 
BRANCH   2   3
ATOM      3  C   UNL     1       2.324   5.419  18.598  0.00  0.00    +0.000 C 
BRANCH   3   4
ATOM      4  C   UNL     1       1.674   4.457  17.608  0.00  0.00    +0.000 C 
BRANCH   4   5
ATOM      5  C   UNL     1       2.381   3.107  17.624  0.00  0.00    +0.000 C 
BRANCH   5   6
ATOM      6  C   UNL     1       2.078   2.352  18.915  0.00  0.00    +0.000 C 
BRANCH   6   7
ATOM      7  C   UNL     1       3.280   2.386  19.855  0.00  0.00    +0.000 C 
BRANCH   7   9
ATOM      8  C   UNL     1       1.368   2.723  21.446  0.00  0.00    +0.000 C 
ATOM      9  C   UNL     1       2.871   2.837  21.254  0.00  0.00    +0.000 C 
ENDBRANCH   7   9
ENDBRANCH   6   7
ENDBRANCH   5   6
ENDBRANCH   4   5
ENDBRANCH   3   4
ENDBRANCH   2   3
ENDBRANCH   1   2
BRANCH   1  10
ATOM     10  C   UNL     1       4.806   6.294  16.435  0.00  0.00    +0.000 C 
BRANCH  10  11
ATOM     11  C   UNL     1       5.522   4.950  16.510  0.00  0.00    +0.000 C 
BRANCH  11  12
ATOM     12  C   UNL     1       6.894   5.025  15.860  0.00  0.00    +0.000 C 
BRANCH  12  13
ATOM     13  N   UNL     1       6.823   4.633  14.454  0.00  0.00    +0.000 N 
ATOM     14  C   UNL     1       7.645   5.096  13.438  0.00  0.00    +0.000 A 
ATOM     15  C   UNL     1       7.255   4.458  12.296  0.00  0.00    +0.000 A 
ATOM     16  N   UNL     1       6.202   3.627  12.643  0.00  0.00    +0.000 N 
ATOM     17  C   UNL     1       5.478   2.733  11.748  0.00  0.00    +0.000 C 
ATOM     18  C   UNL     1       5.938   3.762  13.949  0.00  0.00    +0.000 A 
ENDBRANCH  12  13
ENDBRANCH  11  12
ENDBRANCH  10  11
ENDBRANCH   1  10
TORSDOF 11
ENDMDL
