MODEL 1
REMARK VINA RESULT:      -7.7      0.000      0.000
REMARK  Name = 
REMARK  6 active torsions:
REMARK  status: ('A' for Active; 'I' for Inactive)
REMARK    1  A    between atoms: C_6  and  C_7
REMARK    2  A    between atoms: C_6  and  C_15
REMARK    3  A    between atoms: C_7  and  S_8
REMARK    4  A    between atoms: S_8  and  C_9
REMARK    5  A    between atoms: C_15  and  S_16
REMARK    6  A    between atoms: S_16  and  C_17
REMARK                            x       y       z     vdW  Elec       q    Type
REMARK                         _______ _______ _______ _____ _____    ______ ____
ROOT
ATOM      1  O   UNL     1       7.836   8.859  17.354  0.00  0.00    +0.000 OA
ATOM      2  C   UNL     1       7.629   7.755  17.820  0.00  0.00    +0.000 C 
ATOM      3  N   UNL     1       8.328   7.164  18.819  0.00  0.00    +0.000 N 
ATOM      4  C   UNL     1       7.865   5.909  19.064  0.00  0.00    +0.000 C 
ATOM      5  O   UNL     1       8.339   5.129  19.876  0.00  0.00    +0.000 OA
ATOM      6  C   UNL     1       6.676   5.625  18.132  0.00  0.00    +0.000 C 
ATOM      7  N   UNL     1       6.656   6.884  17.399  0.00  0.00    +0.000 N 
ATOM      8  H   UNL     1       9.098   7.603  19.297  0.00  0.00    +0.000 HD
ATOM      9  H   UNL     1       6.020   7.126  16.649  0.00  0.00    +0.000 HD
ENDROOT
BRANCH   6  10
ATOM     10  C   UNL     1       5.397   5.358  18.957  0.00  0.00    +0.000 C 
BRANCH  10  11
ATOM     11  S   UNL     1       3.887   6.192  18.316  0.00  0.00    +0.000 S 
BRANCH  11  12
ATOM     12  C   UNL     1       2.623   5.074  18.890  0.00  0.00    +0.000 A 
ATOM     13  C   UNL     1       2.137   4.105  18.016  0.00  0.00    +0.000 A 
ATOM     14  C   UNL     1       1.201   3.201  18.489  0.00  0.00    +0.000 A 
ATOM     15  N   UNL     1       0.731   3.202  19.753  0.00  0.00    +0.000 NA
ATOM     16  C   UNL     1       1.224   4.144  20.585  0.00  0.00    +0.000 A 
ATOM     17  C   UNL     1       2.163   5.092  20.205  0.00  0.00    +0.000 A 
ENDBRANCH  11  12
ENDBRANCH  10  11
ENDBRANCH   6  10
BRANCH   6  18
ATOM     18  C   UNL     1       7.073   4.443  17.218  0.00  0.00    +0.000 C 
BRANCH  18  19
ATOM     19  S   UNL     1       5.719   4.025  16.049  0.00  0.00    +0.000 S 
BRANCH  19  20
ATOM     20  C   UNL     1       6.427   4.239  14.427  0.00  0.00    +0.000 A 
ATOM     21  C   UNL     1       7.414   5.157  14.083  0.00  0.00    +0.000 A 
ATOM     22  C   UNL     1       7.829   5.213  12.759  0.00  0.00    +0.000 A 
ATOM     23  N   UNL     1       7.337   4.427  11.779  0.00  0.00    +0.000 NA
ATOM     24  C   UNL     1       6.391   3.538  12.135  0.00  0.00    +0.000 A 
ATOM     25  C   UNL     1       5.914   3.408  13.427  0.00  0.00    +0.000 A 
ENDBRANCH  19  20
ENDBRANCH  18  19
ENDBRANCH   6  18
TORSDOF 6
ENDMDL
MODEL 2
REMARK VINA RESULT:      -7.5      2.823      5.608
REMARK  Name = 
REMARK  6 active torsions:
REMARK  status: ('A' for Active; 'I' for Inactive)
REMARK    1  A    between atoms: C_6  and  C_7
REMARK    2  A    between atoms: C_6  and  C_15
REMARK    3  A    between atoms: C_7  and  S_8
REMARK    4  A    between atoms: S_8  and  C_9
REMARK    5  A    between atoms: C_15  and  S_16
REMARK    6  A    between atoms: S_16  and  C_17
REMARK                            x       y       z     vdW  Elec       q    Type
REMARK                         _______ _______ _______ _____ _____    ______ ____
ROOT
ATOM      1  O   UNL     1       7.018   5.210  14.005  0.00  0.00    +0.000 OA
ATOM      2  C   UNL     1       6.719   5.028  15.170  0.00  0.00    +0.000 C 
ATOM      3  N   UNL     1       7.580   4.814  16.194  0.00  0.00    +0.000 N 
ATOM      4  C   UNL     1       6.911   4.600  17.358  0.00  0.00    +0.000 C 
ATOM      5  O   UNL     1       7.431   4.332  18.431  0.00  0.00    +0.000 OA
ATOM      6  C   UNL     1       5.401   4.718  17.096  0.00  0.00    +0.000 C 
ATOM      7  N   UNL     1       5.440   4.982  15.663  0.00  0.00    +0.000 N 
ATOM      8  H   UNL     1       8.581   4.801  16.087  0.00  0.00    +0.000 HD
ATOM      9  H   UNL     1       4.636   5.111  15.061  0.00  0.00    +0.000 HD
ENDROOT
BRANCH   6  10
ATOM     10  C   UNL     1       4.798   5.871  17.931  0.00  0.00    +0.000 C 
BRANCH  10  11
ATOM     11  S   UNL     1       3.901   7.139  16.944  0.00  0.00    +0.000 S 
BRANCH  11  12
ATOM     12  C   UNL     1       2.817   7.818  18.186  0.00  0.00    +0.000 A 
ATOM     13  C   UNL     1       2.117   8.988  17.898  0.00  0.00    +0.000 A 
ATOM     14  C   UNL     1       1.231   9.474  18.844  0.00  0.00    +0.000 A 
ATOM     15  N   UNL     1       1.001   8.878  20.032  0.00  0.00    +0.000 NA
ATOM     16  C   UNL     1       1.683   7.741  20.284  0.00  0.00    +0.000 A 
ATOM     17  C   UNL     1       2.592   7.176  19.402  0.00  0.00    +0.000 A 
ENDBRANCH  11  12
ENDBRANCH  10  11
ENDBRANCH   6  10
BRANCH   6  18
ATOM     18  C   UNL     1       4.766   3.343  17.402  0.00  0.00    +0.000 C 
BRANCH  18  19
ATOM     19  S   UNL     1       2.933   3.451  17.436  0.00  0.00    +0.000 S 
BRANCH  19  20
ATOM     20  C   UNL     1       2.490   3.236  19.149  0.00  0.00    +0.000 A 
ATOM     21  C   UNL     1       1.284   3.612  19.733  0.00  0.00    +0.000 A 
ATOM     22  C   UNL     1       1.116   3.400  21.095  0.00  0.00    +0.000 A 
ATOM     23  N   UNL     1       2.052   2.846  21.894  0.00  0.00    +0.000 NA
ATOM     24  C   UNL     1       3.207   2.479  21.308  0.00  0.00    +0.000 A 
ATOM     25  C   UNL     1       3.466   2.649  19.960  0.00  0.00    +0.000 A 
ENDBRANCH  19  20
ENDBRANCH  18  19
ENDBRANCH   6  18
TORSDOF 6
ENDMDL
MODEL 3
REMARK VINA RESULT:      -7.5      1.225      6.146
REMARK  Name = 
REMARK  6 active torsions:
REMARK  status: ('A' for Active; 'I' for Inactive)
REMARK    1  A    between atoms: C_6  and  C_7
REMARK    2  A    between atoms: C_6  and  C_15
REMARK    3  A    between atoms: C_7  and  S_8
REMARK    4  A    between atoms: S_8  and  C_9
REMARK    5  A    between atoms: C_15  and  S_16
REMARK    6  A    between atoms: S_16  and  C_17
REMARK                            x       y       z     vdW  Elec       q    Type
REMARK                         _______ _______ _______ _____ _____    ______ ____
ROOT
ATOM      1  O   UNL     1       8.293   5.295  21.028  0.00  0.00    +0.000 OA
ATOM      2  C   UNL     1       7.855   5.553  19.923  0.00  0.00    +0.000 C 
ATOM      3  N   UNL     1       8.276   6.548  19.107  0.00  0.00    +0.000 N 
ATOM      4  C   UNL     1       7.539   6.587  17.965  0.00  0.00    +0.000 C 
ATOM      5  O   UNL     1       7.665   7.414  17.073  0.00  0.00    +0.000 OA
ATOM      6  C   UNL     1       6.506   5.450  17.997  0.00  0.00    +0.000 C 
ATOM      7  N   UNL     1       6.825   4.891  19.304  0.00  0.00    +0.000 N 
ATOM      8  H   UNL     1       9.026   7.179  19.337  0.00  0.00    +0.000 HD
ATOM      9  H   UNL     1       6.357   4.110  19.746  0.00  0.00    +0.000 HD
ENDROOT
BRANCH   6  10
ATOM     10  C   UNL     1       6.743   4.474  16.821  0.00  0.00    +0.000 C 
BRANCH  10  11
ATOM     11  S   UNL     1       5.279   4.215  15.738  0.00  0.00    +0.000 S 
BRANCH  11  12
ATOM     12  C   UNL     1       6.048   4.244  14.130  0.00  0.00    +0.000 A 
ATOM     13  C   UNL     1       7.160   5.059  13.933  0.00  0.00    +0.000 A 
ATOM     14  C   UNL     1       7.789   5.028  12.700  0.00  0.00    +0.000 A 
ATOM     15  N   UNL     1       7.388   4.251  11.674  0.00  0.00    +0.000 NA
ATOM     16  C   UNL     1       6.315   3.461  11.892  0.00  0.00    +0.000 A 
ATOM     17  C   UNL     1       5.618   3.423  13.091  0.00  0.00    +0.000 A 
ENDBRANCH  11  12
ENDBRANCH  10  11
ENDBRANCH   6  10
BRANCH   6  18
ATOM     18  C   UNL     1       5.101   6.095  17.983  0.00  0.00    +0.000 C 
BRANCH  18  19
ATOM     19  S   UNL     1       4.142   5.626  19.478  0.00  0.00    +0.000 S 
BRANCH  19  20
ATOM     20  C   UNL     1       3.221   4.177  18.999  0.00  0.00    +0.000 A 
ATOM     21  C   UNL     1       3.673   2.863  19.068  0.00  0.00    +0.000 A 
ATOM     22  C   UNL     1       2.833   1.853  18.620  0.00  0.00    +0.000 A 
ATOM     23  N   UNL     1       1.596   2.063  18.122  0.00  0.00    +0.000 NA
ATOM     24  C   UNL     1       1.174   3.339  18.073  0.00  0.00    +0.000 A 
ATOM     25  C   UNL     1       1.937   4.413  18.496  0.00  0.00    +0.000 A 
ENDBRANCH  19  20
ENDBRANCH  18  19
ENDBRANCH   6  18
TORSDOF 6
ENDMDL
MODEL 4
REMARK VINA RESULT:      -7.3      2.994      5.758
REMARK  Name = 
REMARK  6 active torsions:
REMARK  status: ('A' for Active; 'I' for Inactive)
REMARK    1  A    between atoms: C_6  and  C_7
REMARK    2  A    between atoms: C_6  and  C_15
REMARK    3  A    between atoms: C_7  and  S_8
REMARK    4  A    between atoms: S_8  and  C_9
REMARK    5  A    between atoms: C_15  and  S_16
REMARK    6  A    between atoms: S_16  and  C_17
REMARK                            x       y       z     vdW  Elec       q    Type
REMARK                         _______ _______ _______ _____ _____    ______ ____
ROOT
ATOM      1  O   UNL     1       6.712   4.728  14.015  0.00  0.00    +0.000 OA
ATOM      2  C   UNL     1       6.455   5.072  15.153  0.00  0.00    +0.000 C 
ATOM      3  N   UNL     1       7.274   5.756  15.987  0.00  0.00    +0.000 N 
ATOM      4  C   UNL     1       6.693   5.935  17.204  0.00  0.00    +0.000 C 
ATOM      5  O   UNL     1       7.222   6.474  18.164  0.00  0.00    +0.000 OA
ATOM      6  C   UNL     1       5.285   5.320  17.180  0.00  0.00    +0.000 C 
ATOM      7  N   UNL     1       5.285   4.805  15.817  0.00  0.00    +0.000 N 
ATOM      8  H   UNL     1       8.195   6.071  15.731  0.00  0.00    +0.000 HD
ATOM      9  H   UNL     1       4.532   4.292  15.376  0.00  0.00    +0.000 HD
ENDROOT
BRANCH   6  10
ATOM     10  C   UNL     1       4.218   6.409  17.440  0.00  0.00    +0.000 C 
BRANCH  10  11
ATOM     11  S   UNL     1       3.404   6.301  19.086  0.00  0.00    +0.000 S 
BRANCH  11  12
ATOM     12  C   UNL     1       2.337   7.728  19.021  0.00  0.00    +0.000 A 
ATOM     13  C   UNL     1       1.682   8.129  20.184  0.00  0.00    +0.000 A 
ATOM     14  C   UNL     1       0.905   9.274  20.139  0.00  0.00    +0.000 A 
ATOM     15  N   UNL     1       0.745  10.029  19.034  0.00  0.00    +0.000 NA
ATOM     16  C   UNL     1       1.398   9.627  17.923  0.00  0.00    +0.000 A 
ATOM     17  C   UNL     1       2.198   8.495  17.867  0.00  0.00    +0.000 A 
ENDBRANCH  11  12
ENDBRANCH  10  11
ENDBRANCH   6  10
BRANCH   6  18
ATOM     18  C   UNL     1       5.258   4.176  18.219  0.00  0.00    +0.000 C 
BRANCH  18  19
ATOM     19  S   UNL     1       4.052   2.876  17.743  0.00  0.00    +0.000 S 
BRANCH  19  20
ATOM     20  C   UNL     1       2.861   2.842  19.069  0.00  0.00    +0.000 A 
ATOM     21  C   UNL     1       1.483   2.985  18.931  0.00  0.00    +0.000 A 
ATOM     22  C   UNL     1       0.702   2.968  20.079  0.00  0.00    +0.000 A 
ATOM     23  N   UNL     1       1.194   2.817  21.327  0.00  0.00    +0.000 NA
ATOM     24  C   UNL     1       2.527   2.670  21.437  0.00  0.00    +0.000 A 
ATOM     25  C   UNL     1       3.387   2.673  20.353  0.00  0.00    +0.000 A 
ENDBRANCH  19  20
ENDBRANCH  18  19
ENDBRANCH   6  18
TORSDOF 6
ENDMDL
MODEL 5
REMARK VINA RESULT:      -7.3      3.061      5.880
REMARK  Name = 
REMARK  6 active torsions:
REMARK  status: ('A' for Active; 'I' for Inactive)
REMARK    1  A    between atoms: C_6  and  C_7
REMARK    2  A    between atoms: C_6  and  C_15
REMARK    3  A    between atoms: C_7  and  S_8
REMARK    4  A    between atoms: S_8  and  C_9
REMARK    5  A    between atoms: C_15  and  S_16
REMARK    6  A    between atoms: S_16  and  C_17
REMARK                            x       y       z     vdW  Elec       q    Type
REMARK                         _______ _______ _______ _____ _____    ______ ____
ROOT
ATOM      1  O   UNL     1       7.324   5.351  20.023  0.00  0.00    +0.000 OA
ATOM      2  C   UNL     1       6.581   5.521  19.074  0.00  0.00    +0.000 C 
ATOM      3  N   UNL     1       6.933   6.008  17.860  0.00  0.00    +0.000 N 
ATOM      4  C   UNL     1       5.849   6.114  17.045  0.00  0.00    +0.000 C 
ATOM      5  O   UNL     1       5.863   6.570  15.911  0.00  0.00    +0.000 OA
ATOM      6  C   UNL     1       4.608   5.602  17.793  0.00  0.00    +0.000 C 
ATOM      7  N   UNL     1       5.232   5.272  19.068  0.00  0.00    +0.000 N 
ATOM      8  H   UNL     1       7.874   6.267  17.613  0.00  0.00    +0.000 HD
ATOM      9  H   UNL     1       4.759   4.907  19.885  0.00  0.00    +0.000 HD
ENDROOT
BRANCH   6  10
ATOM     10  C   UNL     1       3.999   4.387  17.058  0.00  0.00    +0.000 C 
BRANCH  10  11
ATOM     11  S   UNL     1       4.263   2.774  17.902  0.00  0.00    +0.000 S 
BRANCH  11  12
ATOM     12  C   UNL     1       3.029   2.866  19.185  0.00  0.00    +0.000 A 
ATOM     13  C   UNL     1       1.696   3.048  18.821  0.00  0.00    +0.000 A 
ATOM     14  C   UNL     1       0.737   3.056  19.820  0.00  0.00    +0.000 A 
ATOM     15  N   UNL     1       1.017   2.895  21.129  0.00  0.00    +0.000 NA
ATOM     16  C   UNL     1       2.314   2.710  21.456  0.00  0.00    +0.000 A 
ATOM     17  C   UNL     1       3.346   2.688  20.529  0.00  0.00    +0.000 A 
ENDBRANCH  11  12
ENDBRANCH  10  11
ENDBRANCH   6  10
BRANCH   6  18
ATOM     18  C   UNL     1       3.627   6.788  17.934  0.00  0.00    +0.000 C 
BRANCH  18  19
ATOM     19  S   UNL     1       2.627   6.644  19.467  0.00  0.00    +0.000 S 
BRANCH  19  20
ATOM     20  C   UNL     1       1.767   8.199  19.606  0.00  0.00    +0.000 A 
ATOM     21  C   UNL     1       1.142   8.686  20.750  0.00  0.00    +0.000 A 
ATOM     22  C   UNL     1       0.486   9.907  20.673  0.00  0.00    +0.000 A 
ATOM     23  N   UNL     1       0.417  10.659  19.555  0.00  0.00    +0.000 NA
ATOM     24  C   UNL     1       1.037  10.176  18.463  0.00  0.00    +0.000 A 
ATOM     25  C   UNL     1       1.716   8.971  18.442  0.00  0.00    +0.000 A 
ENDBRANCH  19  20
ENDBRANCH  18  19
ENDBRANCH   6  18
TORSDOF 6
ENDMDL
MODEL 6
REMARK VINA RESULT:      -7.3      3.898      8.058
REMARK  Name = 
REMARK  6 active torsions:
REMARK  status: ('A' for Active; 'I' for Inactive)
REMARK    1  A    between atoms: C_6  and  C_7
REMARK    2  A    between atoms: C_6  and  C_15
REMARK    3  A    between atoms: C_7  and  S_8
REMARK    4  A    between atoms: S_8  and  C_9
REMARK    5  A    between atoms: C_15  and  S_16
REMARK    6  A    between atoms: S_16  and  C_17
REMARK                            x       y       z     vdW  Elec       q    Type
REMARK                         _______ _______ _______ _____ _____    ______ ____
ROOT
ATOM      1  O   UNL     1       0.177   2.369  18.449  0.00  0.00    +0.000 OA
ATOM      2  C   UNL     1       0.925   2.936  19.224  0.00  0.00    +0.000 C 
ATOM      3  N   UNL     1       1.244   2.525  20.474  0.00  0.00    +0.000 N 
ATOM      4  C   UNL     1       2.068   3.417  21.086  0.00  0.00    +0.000 C 
ATOM      5  O   UNL     1       2.475   3.327  22.235  0.00  0.00    +0.000 OA
ATOM      6  C   UNL     1       2.375   4.564  20.110  0.00  0.00    +0.000 C 
ATOM      7  N   UNL     1       1.572   4.121  18.979  0.00  0.00    +0.000 N 
ATOM      8  H   UNL     1       0.894   1.677  20.889  0.00  0.00    +0.000 HD
ATOM      9  H   UNL     1       1.466   4.608  18.098  0.00  0.00    +0.000 HD
ENDROOT
BRANCH   6  10
ATOM     10  C   UNL     1       3.892   4.630  19.817  0.00  0.00    +0.000 C 
BRANCH  10  11
ATOM     11  S   UNL     1       4.490   3.376  18.610  0.00  0.00    +0.000 S 
BRANCH  11  12
ATOM     12  C   UNL     1       4.917   4.422  17.231  0.00  0.00    +0.000 A 
ATOM     13  C   UNL     1       4.723   5.796  17.347  0.00  0.00    +0.000 A 
ATOM     14  C   UNL     1       5.115   6.607  16.295  0.00  0.00    +0.000 A 
ATOM     15  N   UNL     1       5.679   6.143  15.162  0.00  0.00    +0.000 NA
ATOM     16  C   UNL     1       5.868   4.809  15.077  0.00  0.00    +0.000 A 
ATOM     17  C   UNL     1       5.507   3.916  16.075  0.00  0.00    +0.000 A 
ENDBRANCH  11  12
ENDBRANCH  10  11
ENDBRANCH   6  10
BRANCH   6  18
ATOM     18  C   UNL     1       1.814   5.864  20.729  0.00  0.00    +0.000 C 
BRANCH  18  19
ATOM     19  S   UNL     1       2.038   7.290  19.593  0.00  0.00    +0.000 S 
BRANCH  19  20
ATOM     20  C   UNL     1       1.293   8.673  20.436  0.00  0.00    +0.000 A 
ATOM     21  C   UNL     1       0.862   9.855  19.840  0.00  0.00    +0.000 A 
ATOM     22  C   UNL     1       0.333  10.848  20.654  0.00  0.00    +0.000 A 
ATOM     23  N   UNL     1       0.205  10.739  21.993  0.00  0.00    +0.000 NA
ATOM     24  C   UNL     1       0.617   9.584  22.548  0.00  0.00    +0.000 A 
ATOM     25  C   UNL     1       1.157   8.539  21.821  0.00  0.00    +0.000 A 
ENDBRANCH  19  20
ENDBRANCH  18  19
ENDBRANCH   6  18
TORSDOF 6
ENDMDL
MODEL 7
REMARK VINA RESULT:      -7.3      3.089      6.056
REMARK  Name = 
REMARK  6 active torsions:
REMARK  status: ('A' for Active; 'I' for Inactive)
REMARK    1  A    between atoms: C_6  and  C_7
REMARK    2  A    between atoms: C_6  and  C_15
REMARK    3  A    between atoms: C_7  and  S_8
REMARK    4  A    between atoms: S_8  and  C_9
REMARK    5  A    between atoms: C_15  and  S_16
REMARK    6  A    between atoms: S_16  and  C_17
REMARK                            x       y       z     vdW  Elec       q    Type
REMARK                         _______ _______ _______ _____ _____    ______ ____
ROOT
ATOM      1  O   UNL     1       7.272   5.407  19.970  0.00  0.00    +0.000 OA
ATOM      2  C   UNL     1       6.514   5.577  19.034  0.00  0.00    +0.000 C 
ATOM      3  N   UNL     1       6.847   6.058  17.812  0.00  0.00    +0.000 N 
ATOM      4  C   UNL     1       5.750   6.167  17.016  0.00  0.00    +0.000 C 
ATOM      5  O   UNL     1       5.746   6.619  15.880  0.00  0.00    +0.000 OA
ATOM      6  C   UNL     1       4.519   5.665  17.787  0.00  0.00    +0.000 C 
ATOM      7  N   UNL     1       5.164   5.335  19.052  0.00  0.00    +0.000 N 
ATOM      8  H   UNL     1       7.784   6.311  17.548  0.00  0.00    +0.000 HD
ATOM      9  H   UNL     1       4.702   4.975  19.878  0.00  0.00    +0.000 HD
ENDROOT
BRANCH   6  10
ATOM     10  C   UNL     1       3.891   4.450  17.067  0.00  0.00    +0.000 C 
BRANCH  10  11
ATOM     11  S   UNL     1       4.229   2.829  17.869  0.00  0.00    +0.000 S 
BRANCH  11  12
ATOM     12  C   UNL     1       2.975   2.819  19.136  0.00  0.00    +0.000 A 
ATOM     13  C   UNL     1       3.365   2.653  20.463  0.00  0.00    +0.000 A 
ATOM     14  C   UNL     1       2.391   2.709  21.446  0.00  0.00    +0.000 A 
ATOM     15  N   UNL     1       1.083   2.919  21.195  0.00  0.00    +0.000 NA
ATOM     16  C   UNL     1       0.732   3.088  19.902  0.00  0.00    +0.000 A 
ATOM     17  C   UNL     1       1.632   3.048  18.847  0.00  0.00    +0.000 A 
ENDBRANCH  11  12
ENDBRANCH  10  11
ENDBRANCH   6  10
BRANCH   6  18
ATOM     18  C   UNL     1       3.547   6.856  17.941  0.00  0.00    +0.000 C 
BRANCH  18  19
ATOM     19  S   UNL     1       2.573   6.722  19.492  0.00  0.00    +0.000 S 
BRANCH  19  20
ATOM     20  C   UNL     1       1.685   8.263  19.615  0.00  0.00    +0.000 A 
ATOM     21  C   UNL     1       1.517   9.191  18.591  0.00  0.00    +0.000 A 
ATOM     22  C   UNL     1       0.823  10.360  18.870  0.00  0.00    +0.000 A 
ATOM     23  N   UNL     1       0.292  10.656  20.076  0.00  0.00    +0.000 NA
ATOM     24  C   UNL     1       0.457   9.740  21.049  0.00  0.00    +0.000 A 
ATOM     25  C   UNL     1       1.132   8.547  20.867  0.00  0.00    +0.000 A 
ENDBRANCH  19  20
ENDBRANCH  18  19
ENDBRANCH   6  18
TORSDOF 6
ENDMDL
MODEL 8
REMARK VINA RESULT:      -7.2      3.231      4.425
REMARK  Name = 
REMARK  6 active torsions:
REMARK  status: ('A' for Active; 'I' for Inactive)
REMARK    1  A    between atoms: C_6  and  C_7
REMARK    2  A    between atoms: C_6  and  C_15
REMARK    3  A    between atoms: C_7  and  S_8
REMARK    4  A    between atoms: S_8  and  C_9
REMARK    5  A    between atoms: C_15  and  S_16
REMARK    6  A    between atoms: S_16  and  C_17
REMARK                            x       y       z     vdW  Elec       q    Type
REMARK                         _______ _______ _______ _____ _____    ______ ____
ROOT
ATOM      1  O   UNL     1       4.902   1.795  20.800  0.00  0.00    +0.000 OA
ATOM      2  C   UNL     1       4.428   2.291  19.796  0.00  0.00    +0.000 C 
ATOM      3  N   UNL     1       3.338   1.850  19.123  0.00  0.00    +0.000 N 
ATOM      4  C   UNL     1       3.110   2.607  18.016  0.00  0.00    +0.000 C 
ATOM      5  O   UNL     1       2.225   2.406  17.197  0.00  0.00    +0.000 OA
ATOM      6  C   UNL     1       4.161   3.725  17.949  0.00  0.00    +0.000 C 
ATOM      7  N   UNL     1       4.930   3.386  19.139  0.00  0.00    +0.000 N 
ATOM      8  H   UNL     1       2.790   1.056  19.408  0.00  0.00    +0.000 HD
ATOM      9  H   UNL     1       5.754   3.871  19.472  0.00  0.00    +0.000 HD
ENDROOT
BRANCH   6  10
ATOM     10  C   UNL     1       3.478   5.110  18.016  0.00  0.00    +0.000 C 
BRANCH  10  11
ATOM     11  S   UNL     1       3.034   5.660  19.715  0.00  0.00    +0.000 S 
BRANCH  11  12
ATOM     12  C   UNL     1       2.295   7.245  19.367  0.00  0.00    +0.000 A 
ATOM     13  C   UNL     1       1.652   7.926  20.398  0.00  0.00    +0.000 A 
ATOM     14  C   UNL     1       1.136   9.183  20.135  0.00  0.00    +0.000 A 
ATOM     15  N   UNL     1       1.221   9.792  18.935  0.00  0.00    +0.000 NA
ATOM     16  C   UNL     1       1.858   9.118  17.954  0.00  0.00    +0.000 A 
ATOM     17  C   UNL     1       2.407   7.854  18.119  0.00  0.00    +0.000 A 
ENDBRANCH  11  12
ENDBRANCH  10  11
ENDBRANCH   6  10
BRANCH   6  18
ATOM     18  C   UNL     1       4.987   3.512  16.660  0.00  0.00    +0.000 C 
BRANCH  18  19
ATOM     19  S   UNL     1       5.677   5.098  16.044  0.00  0.00    +0.000 S 
BRANCH  19  20
ATOM     20  C   UNL     1       6.325   4.723  14.426  0.00  0.00    +0.000 A 
ATOM     21  C   UNL     1       7.437   5.314  13.836  0.00  0.00    +0.000 A 
ATOM     22  C   UNL     1       7.785   4.925  12.549  0.00  0.00    +0.000 A 
ATOM     23  N   UNL     1       7.113   4.002  11.830  0.00  0.00    +0.000 NA
ATOM     24  C   UNL     1       6.046   3.434  12.423  0.00  0.00    +0.000 A 
ATOM     25  C   UNL     1       5.623   3.755  13.700  0.00  0.00    +0.000 A 
ENDBRANCH  19  20
ENDBRANCH  18  19
ENDBRANCH   6  18
TORSDOF 6
ENDMDL
MODEL 9
REMARK VINA RESULT:      -7.2      2.957      5.475
REMARK  Name = 
REMARK  6 active torsions:
REMARK  status: ('A' for Active; 'I' for Inactive)
REMARK    1  A    between atoms: C_6  and  C_7
REMARK    2  A    between atoms: C_6  and  C_15
REMARK    3  A    between atoms: C_7  and  S_8
REMARK    4  A    between atoms: S_8  and  C_9
REMARK    5  A    between atoms: C_15  and  S_16
REMARK    6  A    between atoms: S_16  and  C_17
REMARK                            x       y       z     vdW  Elec       q    Type
REMARK                         _______ _______ _______ _____ _____    ______ ____
ROOT
ATOM      1  O   UNL     1       8.126   4.925  18.922  0.00  0.00    +0.000 OA
ATOM      2  C   UNL     1       7.172   4.824  18.174  0.00  0.00    +0.000 C 
ATOM      3  N   UNL     1       7.184   5.003  16.831  0.00  0.00    +0.000 N 
ATOM      4  C   UNL     1       5.937   4.864  16.309  0.00  0.00    +0.000 C 
ATOM      5  O   UNL     1       5.644   5.021  15.133  0.00  0.00    +0.000 OA
ATOM      6  C   UNL     1       4.957   4.512  17.440  0.00  0.00    +0.000 C 
ATOM      7  N   UNL     1       5.888   4.533  18.561  0.00  0.00    +0.000 N 
ATOM      8  H   UNL     1       8.013   5.226  16.306  0.00  0.00    +0.000 HD
ATOM      9  H   UNL     1       5.653   4.368  19.531  0.00  0.00    +0.000 HD
ENDROOT
BRANCH   6  10
ATOM     10  C   UNL     1       4.314   3.130  17.184  0.00  0.00    +0.000 C 
BRANCH  10  11
ATOM     11  S   UNL     1       2.487   3.088  17.400  0.00  0.00    +0.000 S 
BRANCH  11  12
ATOM     12  C   UNL     1       2.367   2.918  19.170  0.00  0.00    +0.000 A 
ATOM     13  C   UNL     1       1.158   3.222  19.792  0.00  0.00    +0.000 A 
ATOM     14  C   UNL     1       1.055   3.027  21.159  0.00  0.00    +0.000 A 
ATOM     15  N   UNL     1       2.058   2.557  21.928  0.00  0.00    +0.000 NA
ATOM     16  C   UNL     1       3.216   2.260  21.301  0.00  0.00    +0.000 A 
ATOM     17  C   UNL     1       3.418   2.421  19.938  0.00  0.00    +0.000 A 
ENDBRANCH  11  12
ENDBRANCH  10  11
ENDBRANCH   6  10
BRANCH   6  18
ATOM     18  C   UNL     1       3.926   5.659  17.537  0.00  0.00    +0.000 C 
BRANCH  18  19
ATOM     19  S   UNL     1       3.625   6.134  19.285  0.00  0.00    +0.000 S 
BRANCH  19  20
ATOM     20  C   UNL     1       2.529   7.537  19.200  0.00  0.00    +0.000 A 
ATOM     21  C   UNL     1       1.760   8.035  20.248  0.00  0.00    +0.000 A 
ATOM     22  C   UNL     1       0.931   9.121  19.998  0.00  0.00    +0.000 A 
ATOM     23  N   UNL     1       0.824   9.731  18.798  0.00  0.00    +0.000 NA
ATOM     24  C   UNL     1       1.585   9.240  17.802  0.00  0.00    +0.000 A 
ATOM     25  C   UNL     1       2.441   8.164  17.954  0.00  0.00    +0.000 A 
ENDBRANCH  19  20
ENDBRANCH  18  19
ENDBRANCH   6  18
TORSDOF 6
ENDMDL
