MODEL 1
REMARK VINA RESULT:      -8.8      0.000      0.000
REMARK  Name = 
REMARK  7 active torsions:
REMARK  status: ('A' for Active; 'I' for Inactive)
REMARK    1  A    between atoms: C_1  and  O_2
REMARK    2  A    between atoms: O_2  and  C_3
REMARK    3  A    between atoms: C_5  and  C_6
REMARK    4  A    between atoms: C_10  and  C_11
REMARK    5  A    between atoms: C_16  and  C_17
REMARK    6  A    between atoms: C_25  and  N_26
REMARK    7  A    between atoms: C_29  and  C_30
REMARK                            x       y       z     vdW  Elec       q    Type
REMARK                         _______ _______ _______ _____ _____    ______ ____
ROOT
ATOM      1  C   UNL     1       2.711   4.854  18.433  0.00  0.00    +0.000 C 
ATOM      2  N   UNL     1       1.808   4.193  17.758  0.00  0.00    +0.000 NA
ATOM      3  O   UNL     1       2.315   3.320  16.765  0.00  0.00    +0.000 OA
ATOM      4  C   UNL     1       3.446   2.563  17.199  0.00  0.00    +0.000 C 
ATOM      5  C   UNL     1       4.591   3.486  17.638  0.00  0.00    +0.000 C 
ATOM      6  N   UNL     1       4.062   4.621  18.349  0.00  0.00    +0.000 N 
ATOM      7  H   UNL     1       4.685   5.216  18.887  0.00  0.00    +0.000 HD
ENDROOT
BRANCH   5   8
ATOM      8  C   UNL     1       5.470   3.974  16.498  0.00  0.00    +0.000 A 
ATOM      9  C   UNL     1       6.515   4.873  16.758  0.00  0.00    +0.000 A 
ATOM     10  C   UNL     1       7.323   5.339  15.722  0.00  0.00    +0.000 A 
ATOM     11  C   UNL     1       7.091   4.917  14.417  0.00  0.00    +0.000 A 
ATOM     12  F   UNL     1       7.888   5.387  13.451  0.00  0.00    +0.000 F 
ATOM     13  C   UNL     1       6.062   4.033  14.115  0.00  0.00    +0.000 A 
ATOM     14  C   UNL     1       5.251   3.565  15.167  0.00  0.00    +0.000 A 
BRANCH  13  15
ATOM     15  C   UNL     1       5.808   3.581  12.707  0.00  0.00    +0.000 C 
ATOM     16  F   UNL     1       4.533   3.751  12.267  0.00  0.00    +0.000 F 
ATOM     17  F   UNL     1       6.598   4.237  11.809  0.00  0.00    +0.000 F 
ATOM     18  F   UNL     1       6.081   2.257  12.536  0.00  0.00    +0.000 F 
ENDBRANCH  13  15
ENDBRANCH   5   8
BRANCH   1  21
ATOM     19  C   UNL     1       1.717   8.216  19.526  0.00  0.00    +0.000 A 
ATOM     20  N   UNL     1       2.277   7.217  18.794  0.00  0.00    +0.000 NA
ATOM     21  C   UNL     1       2.251   5.970  19.339  0.00  0.00    +0.000 A 
ATOM     22  C   UNL     1       1.748   5.690  20.599  0.00  0.00    +0.000 A 
ATOM     23  C   UNL     1       1.207   6.736  21.341  0.00  0.00    +0.000 A 
ATOM     24  C   UNL     1       1.165   8.030  20.797  0.00  0.00    +0.000 A 
BRANCH  24  25
ATOM     25  N   UNL     1       0.500   9.059  21.521  0.00  0.00    +0.000 N 
ATOM     26  C   UNL     1       0.637   9.400  22.851  0.00  0.00    +0.000 A 
ATOM     27  N   UNL     1      -0.038  10.483  23.172  0.00  0.00    +0.000 NA
ATOM     28  C   UNL     1      -0.664  10.874  22.021  0.00  0.00    +0.000 A 
ATOM     29  C   UNL     1      -1.512  12.085  21.983  0.00  0.00    +0.000 C 
ATOM     30  C   UNL     1      -0.369   9.997  21.000  0.00  0.00    +0.000 A 
ENDBRANCH  24  25
BRANCH  19  32
ATOM     31  C   UNL     1       2.117   9.514  17.624  0.00  0.00    +0.000 C 
ATOM     32  O   UNL     1       1.802   9.490  19.012  0.00  0.00    +0.000 OA
ENDBRANCH  19  32
ENDBRANCH   1  21
TORSDOF 5
ENDMDL
MODEL 2
REMARK VINA RESULT:      -8.6      6.328      7.948
REMARK  Name = 
REMARK  7 active torsions:
REMARK  status: ('A' for Active; 'I' for Inactive)
REMARK    1  A    between atoms: C_1  and  O_2
REMARK    2  A    between atoms: O_2  and  C_3
REMARK    3  A    between atoms: C_5  and  C_6
REMARK    4  A    between atoms: C_10  and  C_11
REMARK    5  A    between atoms: C_16  and  C_17
REMARK    6  A    between atoms: C_25  and  N_26
REMARK    7  A    between atoms: C_29  and  C_30
REMARK                            x       y       z     vdW  Elec       q    Type
REMARK                         _______ _______ _______ _____ _____    ______ ____
ROOT
ATOM      1  C   UNL     1       7.853   7.523  18.179  0.00  0.00    +0.000 C 
ATOM      2  N   UNL     1       8.454   6.743  19.039  0.00  0.00    +0.000 NA
ATOM      3  O   UNL     1       7.956   5.419  19.105  0.00  0.00    +0.000 OA
ATOM      4  C   UNL     1       7.694   4.847  17.822  0.00  0.00    +0.000 C 
ATOM      5  C   UNL     1       6.678   5.690  17.040  0.00  0.00    +0.000 C 
ATOM      6  N   UNL     1       6.929   7.091  17.259  0.00  0.00    +0.000 N 
ATOM      7  H   UNL     1       6.490   7.783  16.660  0.00  0.00    +0.000 HD
ENDROOT
BRANCH   5   8
ATOM      8  C   UNL     1       5.227   5.383  17.371  0.00  0.00    +0.000 A 
ATOM      9  C   UNL     1       4.300   6.429  17.483  0.00  0.00    +0.000 A 
ATOM     10  C   UNL     1       2.968   6.165  17.798  0.00  0.00    +0.000 A 
ATOM     11  C   UNL     1       2.551   4.855  18.008  0.00  0.00    +0.000 A 
ATOM     12  F   UNL     1       1.264   4.643  18.308  0.00  0.00    +0.000 F 
ATOM     13  C   UNL     1       3.438   3.790  17.915  0.00  0.00    +0.000 A 
ATOM     14  C   UNL     1       4.782   4.064  17.595  0.00  0.00    +0.000 A 
BRANCH  13  15
ATOM     15  C   UNL     1       2.990   2.377  18.147  0.00  0.00    +0.000 C 
ATOM     16  F   UNL     1       2.384   2.153  19.344  0.00  0.00    +0.000 F 
ATOM     17  F   UNL     1       2.101   1.959  17.201  0.00  0.00    +0.000 F 
ATOM     18  F   UNL     1       4.027   1.493  18.092  0.00  0.00    +0.000 F 
ENDBRANCH  13  15
ENDBRANCH   5   8
BRANCH   1  21
ATOM     19  C   UNL     1       9.535  10.669  19.049  0.00  0.00    +0.000 A 
ATOM     20  N   UNL     1       9.120   9.376  19.108  0.00  0.00    +0.000 NA
ATOM     21  C   UNL     1       8.164   8.999  18.215  0.00  0.00    +0.000 A 
ATOM     22  C   UNL     1       7.567   9.866  17.314  0.00  0.00    +0.000 A 
ATOM     23  C   UNL     1       7.988  11.191  17.295  0.00  0.00    +0.000 A 
ATOM     24  C   UNL     1       9.009  11.612  18.161  0.00  0.00    +0.000 A 
BRANCH  24  25
ATOM     25  N   UNL     1       9.509  12.940  18.042  0.00  0.00    +0.000 N 
ATOM     26  C   UNL     1       9.063  14.085  18.667  0.00  0.00    +0.000 A 
ATOM     27  N   UNL     1       9.828  15.128  18.427  0.00  0.00    +0.000 NA
ATOM     28  C   UNL     1      10.814  14.671  17.598  0.00  0.00    +0.000 A 
ATOM     29  C   UNL     1      11.891  15.567  17.121  0.00  0.00    +0.000 C 
ATOM     30  C   UNL     1      10.623  13.335  17.326  0.00  0.00    +0.000 A 
ENDBRANCH  24  25
BRANCH  19  32
ATOM     31  C   UNL     1       9.845  11.552  21.191  0.00  0.00    +0.000 C 
ATOM     32  O   UNL     1      10.450  11.074  19.994  0.00  0.00    +0.000 OA
ENDBRANCH  19  32
ENDBRANCH   1  21
TORSDOF 5
ENDMDL
MODEL 3
REMARK VINA RESULT:      -8.6      0.853      1.137
REMARK  Name = 
REMARK  7 active torsions:
REMARK  status: ('A' for Active; 'I' for Inactive)
REMARK    1  A    between atoms: C_1  and  O_2
REMARK    2  A    between atoms: O_2  and  C_3
REMARK    3  A    between atoms: C_5  and  C_6
REMARK    4  A    between atoms: C_10  and  C_11
REMARK    5  A    between atoms: C_16  and  C_17
REMARK    6  A    between atoms: C_25  and  N_26
REMARK    7  A    between atoms: C_29  and  C_30
REMARK                            x       y       z     vdW  Elec       q    Type
REMARK                         _______ _______ _______ _____ _____    ______ ____
ROOT
ATOM      1  C   UNL     1       2.723   5.426  18.332  0.00  0.00    +0.000 C 
ATOM      2  N   UNL     1       1.786   4.754  17.716  0.00  0.00    +0.000 NA
ATOM      3  O   UNL     1       2.246   3.771  16.807  0.00  0.00    +0.000 OA
ATOM      4  C   UNL     1       3.337   2.998  17.311  0.00  0.00    +0.000 C 
ATOM      5  C   UNL     1       4.529   3.896  17.669  0.00  0.00    +0.000 C 
ATOM      6  N   UNL     1       4.060   5.117  18.274  0.00  0.00    +0.000 N 
ATOM      7  H   UNL     1       4.713   5.725  18.758  0.00  0.00    +0.000 HD
ENDROOT
BRANCH   5   8
ATOM      8  C   UNL     1       5.430   4.235  16.493  0.00  0.00    +0.000 A 
ATOM      9  C   UNL     1       6.540   5.071  16.682  0.00  0.00    +0.000 A 
ATOM     10  C   UNL     1       7.370   5.400  15.611  0.00  0.00    +0.000 A 
ATOM     11  C   UNL     1       7.096   4.901  14.342  0.00  0.00    +0.000 A 
ATOM     12  F   UNL     1       7.916   5.240  13.340  0.00  0.00    +0.000 F 
ATOM     13  C   UNL     1       6.003   4.075  14.110  0.00  0.00    +0.000 A 
ATOM     14  C   UNL     1       5.170   3.746  15.197  0.00  0.00    +0.000 A 
BRANCH  13  15
ATOM     15  C   UNL     1       5.704   3.541  12.741  0.00  0.00    +0.000 C 
ATOM     16  F   UNL     1       5.919   2.207  12.581  0.00  0.00    +0.000 F 
ATOM     17  F   UNL     1       4.405   3.749  12.381  0.00  0.00    +0.000 F 
ATOM     18  F   UNL     1       6.453   4.149  11.777  0.00  0.00    +0.000 F 
ENDBRANCH  13  15
ENDBRANCH   5   8
BRANCH   1  21
ATOM     19  C   UNL     1       1.524   8.814  19.083  0.00  0.00    +0.000 A 
ATOM     20  N   UNL     1       2.043   7.757  18.405  0.00  0.00    +0.000 NA
ATOM     21  C   UNL     1       2.322   6.641  19.133  0.00  0.00    +0.000 A 
ATOM     22  C   UNL     1       2.162   6.557  20.506  0.00  0.00    +0.000 A 
ATOM     23  C   UNL     1       1.657   7.664  21.181  0.00  0.00    +0.000 A 
ATOM     24  C   UNL     1       1.306   8.818  20.464  0.00  0.00    +0.000 A 
BRANCH  24  25
ATOM     25  N   UNL     1       0.679   9.893  21.155  0.00  0.00    +0.000 N 
ATOM     26  C   UNL     1       1.011  11.232  21.143  0.00  0.00    +0.000 A 
ATOM     27  N   UNL     1       0.148  11.977  21.799  0.00  0.00    +0.000 NA
ATOM     28  C   UNL     1      -0.787  11.106  22.285  0.00  0.00    +0.000 A 
ATOM     29  C   UNL     1      -1.945  11.584  23.072  0.00  0.00    +0.000 C 
ATOM     30  C   UNL     1      -0.466   9.817  21.924  0.00  0.00    +0.000 A 
ENDBRANCH  24  25
BRANCH  19  32
ATOM     31  C   UNL     1      -0.016  10.065  17.848  0.00  0.00    +0.000 C 
ATOM     32  O   UNL     1       1.306   9.969  18.366  0.00  0.00    +0.000 OA
ENDBRANCH  19  32
ENDBRANCH   1  21
TORSDOF 5
ENDMDL
MODEL 4
REMARK VINA RESULT:      -8.6      6.244      7.805
REMARK  Name = 
REMARK  7 active torsions:
REMARK  status: ('A' for Active; 'I' for Inactive)
REMARK    1  A    between atoms: C_1  and  O_2
REMARK    2  A    between atoms: O_2  and  C_3
REMARK    3  A    between atoms: C_5  and  C_6
REMARK    4  A    between atoms: C_10  and  C_11
REMARK    5  A    between atoms: C_16  and  C_17
REMARK    6  A    between atoms: C_25  and  N_26
REMARK    7  A    between atoms: C_29  and  C_30
REMARK                            x       y       z     vdW  Elec       q    Type
REMARK                         _______ _______ _______ _____ _____    ______ ____
ROOT
ATOM      1  C   UNL     1       7.848   7.488  18.158  0.00  0.00    +0.000 C 
ATOM      2  N   UNL     1       8.455   6.698  19.005  0.00  0.00    +0.000 NA
ATOM      3  O   UNL     1       7.957   5.374  19.060  0.00  0.00    +0.000 OA
ATOM      4  C   UNL     1       7.685   4.816  17.773  0.00  0.00    +0.000 C 
ATOM      5  C   UNL     1       6.664   5.668  17.008  0.00  0.00    +0.000 C 
ATOM      6  N   UNL     1       6.916   7.067  17.241  0.00  0.00    +0.000 N 
ATOM      7  H   UNL     1       6.473   7.765  16.653  0.00  0.00    +0.000 HD
ENDROOT
BRANCH   5   8
ATOM      8  C   UNL     1       5.215   5.358  17.347  0.00  0.00    +0.000 A 
ATOM      9  C   UNL     1       4.283   6.401  17.449  0.00  0.00    +0.000 A 
ATOM     10  C   UNL     1       2.953   6.134  17.771  0.00  0.00    +0.000 A 
ATOM     11  C   UNL     1       2.543   4.825  17.998  0.00  0.00    +0.000 A 
ATOM     12  F   UNL     1       1.258   4.609  18.304  0.00  0.00    +0.000 F 
ATOM     13  C   UNL     1       3.435   3.763  17.914  0.00  0.00    +0.000 A 
ATOM     14  C   UNL     1       4.777   4.040  17.588  0.00  0.00    +0.000 A 
BRANCH  13  15
ATOM     15  C   UNL     1       2.995   2.351  18.165  0.00  0.00    +0.000 C 
ATOM     16  F   UNL     1       1.862   1.975  17.513  0.00  0.00    +0.000 F 
ATOM     17  F   UNL     1       3.947   1.445  17.799  0.00  0.00    +0.000 F 
ATOM     18  F   UNL     1       2.752   2.115  19.486  0.00  0.00    +0.000 F 
ENDBRANCH  13  15
ENDBRANCH   5   8
BRANCH   1  21
ATOM     19  C   UNL     1       9.513  10.627  19.083  0.00  0.00    +0.000 A 
ATOM     20  N   UNL     1       9.094   9.335  19.126  0.00  0.00    +0.000 NA
ATOM     21  C   UNL     1       8.160   8.963  18.209  0.00  0.00    +0.000 A 
ATOM     22  C   UNL     1       7.586   9.835  17.298  0.00  0.00    +0.000 A 
ATOM     23  C   UNL     1       8.009  11.160  17.295  0.00  0.00    +0.000 A 
ATOM     24  C   UNL     1       9.010  11.576  18.187  0.00  0.00    +0.000 A 
BRANCH  24  25
ATOM     25  N   UNL     1       9.514  12.903  18.086  0.00  0.00    +0.000 N 
ATOM     26  C   UNL     1      10.649  13.343  17.437  0.00  0.00    +0.000 A 
ATOM     27  N   UNL     1      10.759  14.655  17.436  0.00  0.00    +0.000 NA
ATOM     28  C   UNL     1       9.668  15.110  18.123  0.00  0.00    +0.000 A 
ATOM     29  C   UNL     1       9.433  16.558  18.315  0.00  0.00    +0.000 C 
ATOM     30  C   UNL     1       8.904  14.050  18.555  0.00  0.00    +0.000 A 
ENDBRANCH  24  25
BRANCH  19  32
ATOM     31  C   UNL     1       9.773  11.558  21.211  0.00  0.00    +0.000 C 
ATOM     32  O   UNL     1      10.405  11.027  20.052  0.00  0.00    +0.000 OA
ENDBRANCH  19  32
ENDBRANCH   1  21
TORSDOF 5
ENDMDL
MODEL 5
REMARK VINA RESULT:      -8.4      6.633      8.214
REMARK  Name = 
REMARK  7 active torsions:
REMARK  status: ('A' for Active; 'I' for Inactive)
REMARK    1  A    between atoms: C_1  and  O_2
REMARK    2  A    between atoms: O_2  and  C_3
REMARK    3  A    between atoms: C_5  and  C_6
REMARK    4  A    between atoms: C_10  and  C_11
REMARK    5  A    between atoms: C_16  and  C_17
REMARK    6  A    between atoms: C_25  and  N_26
REMARK    7  A    between atoms: C_29  and  C_30
REMARK                            x       y       z     vdW  Elec       q    Type
REMARK                         _______ _______ _______ _____ _____    ______ ____
ROOT
ATOM      1  C   UNL     1       8.013   8.091  18.187  0.00  0.00    +0.000 C 
ATOM      2  N   UNL     1       8.598   7.276  19.025  0.00  0.00    +0.000 NA
ATOM      3  O   UNL     1       8.082   5.958  19.046  0.00  0.00    +0.000 OA
ATOM      4  C   UNL     1       7.821   5.430  17.745  0.00  0.00    +0.000 C 
ATOM      5  C   UNL     1       6.820   6.311  16.984  0.00  0.00    +0.000 C 
ATOM      6  N   UNL     1       7.088   7.701  17.249  0.00  0.00    +0.000 N 
ATOM      7  H   UNL     1       6.662   8.417  16.670  0.00  0.00    +0.000 HD
ENDROOT
BRANCH   5   8
ATOM      8  C   UNL     1       5.363   6.013  17.298  0.00  0.00    +0.000 A 
ATOM      9  C   UNL     1       4.456   7.068  17.469  0.00  0.00    +0.000 A 
ATOM     10  C   UNL     1       3.118   6.812  17.769  0.00  0.00    +0.000 A 
ATOM     11  C   UNL     1       2.677   5.501  17.905  0.00  0.00    +0.000 A 
ATOM     12  F   UNL     1       1.386   5.296  18.194  0.00  0.00    +0.000 F 
ATOM     13  C   UNL     1       3.544   4.426  17.751  0.00  0.00    +0.000 A 
ATOM     14  C   UNL     1       4.893   4.692  17.447  0.00  0.00    +0.000 A 
BRANCH  13  15
ATOM     15  C   UNL     1       3.069   3.011  17.904  0.00  0.00    +0.000 C 
ATOM     16  F   UNL     1       4.015   2.058  17.687  0.00  0.00    +0.000 F 
ATOM     17  F   UNL     1       2.581   2.766  19.154  0.00  0.00    +0.000 F 
ATOM     18  F   UNL     1       2.050   2.716  17.048  0.00  0.00    +0.000 F 
ENDBRANCH  13  15
ENDBRANCH   5   8
BRANCH   1  21
ATOM     19  C   UNL     1       9.759  11.181  19.128  0.00  0.00    +0.000 A 
ATOM     20  N   UNL     1       9.330   9.892  19.149  0.00  0.00    +0.000 NA
ATOM     21  C   UNL     1       8.342   9.561  18.272  0.00  0.00    +0.000 A 
ATOM     22  C   UNL     1       7.729  10.469  17.424  0.00  0.00    +0.000 A 
ATOM     23  C   UNL     1       8.167  11.790  17.444  0.00  0.00    +0.000 A 
ATOM     24  C   UNL     1       9.219  12.165  18.294  0.00  0.00    +0.000 A 
BRANCH  24  25
ATOM     25  N   UNL     1       9.731  13.490  18.212  0.00  0.00    +0.000 N 
ATOM     26  C   UNL     1       9.450  14.572  19.021  0.00  0.00    +0.000 A 
ATOM     27  N   UNL     1      10.191  15.623  18.742  0.00  0.00    +0.000 NA
ATOM     28  C   UNL     1      10.986  15.239  17.697  0.00  0.00    +0.000 A 
ATOM     29  C   UNL     1      11.981  16.164  17.113  0.00  0.00    +0.000 C 
ATOM     30  C   UNL     1      10.701  13.941  17.338  0.00  0.00    +0.000 A 
ENDBRANCH  24  25
BRANCH  19  32
ATOM     31  C   UNL     1      12.038  11.473  19.558  0.00  0.00    +0.000 C 
ATOM     32  O   UNL     1      10.707  11.538  20.060  0.00  0.00    +0.000 OA
ENDBRANCH  19  32
ENDBRANCH   1  21
TORSDOF 5
ENDMDL
MODEL 6
REMARK VINA RESULT:      -8.3      6.844      8.488
REMARK  Name = 
REMARK  7 active torsions:
REMARK  status: ('A' for Active; 'I' for Inactive)
REMARK    1  A    between atoms: C_1  and  O_2
REMARK    2  A    between atoms: O_2  and  C_3
REMARK    3  A    between atoms: C_5  and  C_6
REMARK    4  A    between atoms: C_10  and  C_11
REMARK    5  A    between atoms: C_16  and  C_17
REMARK    6  A    between atoms: C_25  and  N_26
REMARK    7  A    between atoms: C_29  and  C_30
REMARK                            x       y       z     vdW  Elec       q    Type
REMARK                         _______ _______ _______ _____ _____    ______ ____
ROOT
ATOM      1  C   UNL     1       7.991   8.052  18.166  0.00  0.00    +0.000 C 
ATOM      2  N   UNL     1       8.544   7.240  19.028  0.00  0.00    +0.000 NA
ATOM      3  O   UNL     1       7.992   5.937  19.072  0.00  0.00    +0.000 OA
ATOM      4  C   UNL     1       7.729   5.389  17.779  0.00  0.00    +0.000 C 
ATOM      5  C   UNL     1       6.762   6.280  16.988  0.00  0.00    +0.000 C 
ATOM      6  N   UNL     1       7.066   7.668  17.227  0.00  0.00    +0.000 N 
ATOM      7  H   UNL     1       6.666   8.383  16.628  0.00  0.00    +0.000 HD
ENDROOT
BRANCH   5   8
ATOM      8  C   UNL     1       5.294   6.029  17.292  0.00  0.00    +0.000 A 
ATOM      9  C   UNL     1       4.779   4.727  17.222  0.00  0.00    +0.000 A 
ATOM     10  C   UNL     1       3.432   4.482  17.487  0.00  0.00    +0.000 A 
ATOM     11  C   UNL     1       2.587   5.536  17.819  0.00  0.00    +0.000 A 
ATOM     12  F   UNL     1       1.301   5.261  18.067  0.00  0.00    +0.000 F 
ATOM     13  C   UNL     1       3.056   6.842  17.893  0.00  0.00    +0.000 A 
ATOM     14  C   UNL     1       4.418   7.082  17.625  0.00  0.00    +0.000 A 
BRANCH  13  15
ATOM     15  C   UNL     1       2.144   7.980  18.246  0.00  0.00    +0.000 C 
ATOM     16  F   UNL     1       1.644   7.949  19.510  0.00  0.00    +0.000 F 
ATOM     17  F   UNL     1       2.763   9.190  18.125  0.00  0.00    +0.000 F 
ATOM     18  F   UNL     1       1.057   8.042  17.424  0.00  0.00    +0.000 F 
ENDBRANCH  13  15
ENDBRANCH   5   8
BRANCH   1  21
ATOM     19  C   UNL     1       9.801  11.115  19.077  0.00  0.00    +0.000 A 
ATOM     20  N   UNL     1       9.334   9.839  19.118  0.00  0.00    +0.000 NA
ATOM     21  C   UNL     1       8.361   9.514  18.223  0.00  0.00    +0.000 A 
ATOM     22  C   UNL     1       7.797  10.417  17.337  0.00  0.00    +0.000 A 
ATOM     23  C   UNL     1       8.272  11.725  17.336  0.00  0.00    +0.000 A 
ATOM     24  C   UNL     1       9.311  12.092  18.205  0.00  0.00    +0.000 A 
BRANCH  24  25
ATOM     25  N   UNL     1       9.864  13.399  18.104  0.00  0.00    +0.000 N 
ATOM     26  C   UNL     1       9.486  14.546  18.771  0.00  0.00    +0.000 A 
ATOM     27  N   UNL     1      10.288  15.561  18.535  0.00  0.00    +0.000 NA
ATOM     28  C   UNL     1      11.228  15.085  17.663  0.00  0.00    +0.000 A 
ATOM     29  C   UNL     1      12.327  15.947  17.175  0.00  0.00    +0.000 C 
ATOM     30  C   UNL     1      10.971  13.766  17.363  0.00  0.00    +0.000 A 
ENDBRANCH  24  25
BRANCH  19  32
ATOM     31  C   UNL     1      10.151  11.921  21.243  0.00  0.00    +0.000 C 
ATOM     32  O   UNL     1      10.734  11.468  20.025  0.00  0.00    +0.000 OA
ENDBRANCH  19  32
ENDBRANCH   1  21
TORSDOF 5
ENDMDL
MODEL 7
REMARK VINA RESULT:      -8.3      5.885      9.909
REMARK  Name = 
REMARK  7 active torsions:
REMARK  status: ('A' for Active; 'I' for Inactive)
REMARK    1  A    between atoms: C_1  and  O_2
REMARK    2  A    between atoms: O_2  and  C_3
REMARK    3  A    between atoms: C_5  and  C_6
REMARK    4  A    between atoms: C_10  and  C_11
REMARK    5  A    between atoms: C_16  and  C_17
REMARK    6  A    between atoms: C_25  and  N_26
REMARK    7  A    between atoms: C_29  and  C_30
REMARK                            x       y       z     vdW  Elec       q    Type
REMARK                         _______ _______ _______ _____ _____    ______ ____
ROOT
ATOM      1  C   UNL     1       1.169   9.855  18.882  0.00  0.00    +0.000 C 
ATOM      2  N   UNL     1       1.766  10.981  18.592  0.00  0.00    +0.000 NA
ATOM      3  O   UNL     1       0.905  12.084  18.377  0.00  0.00    +0.000 OA
ATOM      4  C   UNL     1      -0.156  12.170  19.330  0.00  0.00    +0.000 C 
ATOM      5  C   UNL     1      -1.014  10.898  19.315  0.00  0.00    +0.000 C 
ATOM      6  N   UNL     1      -0.174   9.740  19.149  0.00  0.00    +0.000 N 
ATOM      7  H   UNL     1      -0.549   8.813  19.326  0.00  0.00    +0.000 HD
ENDROOT
BRANCH   5   8
ATOM      8  C   UNL     1      -2.096  10.889  18.247  0.00  0.00    +0.000 A 
ATOM      9  C   UNL     1      -1.868  10.233  17.029  0.00  0.00    +0.000 A 
ATOM     10  C   UNL     1      -2.846  10.225  16.035  0.00  0.00    +0.000 A 
ATOM     11  C   UNL     1      -4.057  10.875  16.247  0.00  0.00    +0.000 A 
ATOM     12  F   UNL     1      -4.970  10.845  15.270  0.00  0.00    +0.000 F 
ATOM     13  C   UNL     1      -4.320  11.542  17.438  0.00  0.00    +0.000 A 
ATOM     14  C   UNL     1      -3.328  11.545  18.438  0.00  0.00    +0.000 A 
BRANCH  13  15
ATOM     15  C   UNL     1      -5.624  12.248  17.665  0.00  0.00    +0.000 C 
ATOM     16  F   UNL     1      -6.721  11.445  17.678  0.00  0.00    +0.000 F 
ATOM     17  F   UNL     1      -5.645  12.916  18.855  0.00  0.00    +0.000 F 
ATOM     18  F   UNL     1      -5.872  13.191  16.712  0.00  0.00    +0.000 F 
ENDBRANCH  13  15
ENDBRANCH   5   8
BRANCH   1  21
ATOM     19  C   UNL     1       2.360   6.528  19.879  0.00  0.00    +0.000 A 
ATOM     20  N   UNL     1       1.754   7.743  19.931  0.00  0.00    +0.000 NA
ATOM     21  C   UNL     1       1.993   8.592  18.893  0.00  0.00    +0.000 A 
ATOM     22  C   UNL     1       2.854   8.304  17.846  0.00  0.00    +0.000 A 
ATOM     23  C   UNL     1       3.486   7.065  17.833  0.00  0.00    +0.000 A 
ATOM     24  C   UNL     1       3.227   6.137  18.854  0.00  0.00    +0.000 A 
BRANCH  24  25
ATOM     25  N   UNL     1       3.789   4.833  18.758  0.00  0.00    +0.000 N 
ATOM     26  C   UNL     1       4.990   4.376  19.259  0.00  0.00    +0.000 A 
ATOM     27  N   UNL     1       5.150   3.080  19.097  0.00  0.00    +0.000 NA
ATOM     28  C   UNL     1       4.024   2.654  18.447  0.00  0.00    +0.000 A 
ATOM     29  C   UNL     1       3.830   1.229  18.104  0.00  0.00    +0.000 C 
ATOM     30  C   UNL     1       3.186   3.720  18.204  0.00  0.00    +0.000 A 
ENDBRANCH  24  25
BRANCH  19  32
ATOM     31  C   UNL     1       1.166   4.714  20.744  0.00  0.00    +0.000 C 
ATOM     32  O   UNL     1       2.178   5.693  20.958  0.00  0.00    +0.000 OA
ENDBRANCH  19  32
ENDBRANCH   1  21
TORSDOF 5
ENDMDL
MODEL 8
REMARK VINA RESULT:      -8.3      5.161      9.646
REMARK  Name = 
REMARK  7 active torsions:
REMARK  status: ('A' for Active; 'I' for Inactive)
REMARK    1  A    between atoms: C_1  and  O_2
REMARK    2  A    between atoms: O_2  and  C_3
REMARK    3  A    between atoms: C_5  and  C_6
REMARK    4  A    between atoms: C_10  and  C_11
REMARK    5  A    between atoms: C_16  and  C_17
REMARK    6  A    between atoms: C_25  and  N_26
REMARK    7  A    between atoms: C_29  and  C_30
REMARK                            x       y       z     vdW  Elec       q    Type
REMARK                         _______ _______ _______ _____ _____    ______ ____
ROOT
ATOM      1  C   UNL     1       0.826   9.959  19.714  0.00  0.00    +0.000 C 
ATOM      2  N   UNL     1       0.540   9.950  20.990  0.00  0.00    +0.000 NA
ATOM      3  O   UNL     1      -0.105  11.113  21.473  0.00  0.00    +0.000 OA
ATOM      4  C   UNL     1      -1.136  11.591  20.607  0.00  0.00    +0.000 C 
ATOM      5  C   UNL     1      -0.581  11.910  19.213  0.00  0.00    +0.000 C 
ATOM      6  N   UNL     1       0.393  10.919  18.832  0.00  0.00    +0.000 N 
ATOM      7  H   UNL     1       0.702  10.858  17.868  0.00  0.00    +0.000 HD
ENDROOT
BRANCH   5   8
ATOM      8  C   UNL     1       0.037  13.293  19.089  0.00  0.00    +0.000 A 
ATOM      9  C   UNL     1      -0.736  14.430  19.366  0.00  0.00    +0.000 A 
ATOM     10  C   UNL     1      -0.187  15.706  19.246  0.00  0.00    +0.000 A 
ATOM     11  C   UNL     1       1.136  15.858  18.845  0.00  0.00    +0.000 A 
ATOM     12  F   UNL     1       1.627  17.099  18.742  0.00  0.00    +0.000 F 
ATOM     13  C   UNL     1       1.934  14.758  18.555  0.00  0.00    +0.000 A 
ATOM     14  C   UNL     1       1.373  13.472  18.679  0.00  0.00    +0.000 A 
BRANCH  13  15
ATOM     15  C   UNL     1       3.360  14.921  18.117  0.00  0.00    +0.000 C 
ATOM     16  F   UNL     1       4.058  13.763  17.980  0.00  0.00    +0.000 F 
ATOM     17  F   UNL     1       3.456  15.553  16.912  0.00  0.00    +0.000 F 
ATOM     18  F   UNL     1       4.081  15.683  18.988  0.00  0.00    +0.000 F 
ENDBRANCH  13  15
ENDBRANCH   5   8
BRANCH   1  21
ATOM     19  C   UNL     1       2.527   6.715  19.450  0.00  0.00    +0.000 A 
ATOM     20  N   UNL     1       1.866   7.779  19.977  0.00  0.00    +0.000 NA
ATOM     21  C   UNL     1       1.717   8.868  19.174  0.00  0.00    +0.000 A 
ATOM     22  C   UNL     1       2.249   8.961  17.898  0.00  0.00    +0.000 A 
ATOM     23  C   UNL     1       2.948   7.870  17.393  0.00  0.00    +0.000 A 
ATOM     24  C   UNL     1       3.081   6.706  18.166  0.00  0.00    +0.000 A 
BRANCH  24  25
ATOM     25  N   UNL     1       3.693   5.560  17.585  0.00  0.00    +0.000 N 
ATOM     26  C   UNL     1       3.228   4.262  17.550  0.00  0.00    +0.000 A 
ATOM     27  N   UNL     1       3.986   3.468  16.825  0.00  0.00    +0.000 NA
ATOM     28  C   UNL     1       5.007   4.256  16.372  0.00  0.00    +0.000 A 
ATOM     29  C   UNL     1       6.065   3.710  15.494  0.00  0.00    +0.000 C 
ATOM     30  C   UNL     1       4.862   5.540  16.849  0.00  0.00    +0.000 A 
ENDBRANCH  24  25
BRANCH  19  32
ATOM     31  C   UNL     1       1.536   5.007  20.700  0.00  0.00    +0.000 C 
ATOM     32  O   UNL     1       2.741   5.639  20.281  0.00  0.00    +0.000 OA
ENDBRANCH  19  32
ENDBRANCH   1  21
TORSDOF 5
ENDMDL
MODEL 9
REMARK VINA RESULT:      -8.2      6.898      8.523
REMARK  Name = 
REMARK  7 active torsions:
REMARK  status: ('A' for Active; 'I' for Inactive)
REMARK    1  A    between atoms: C_1  and  O_2
REMARK    2  A    between atoms: O_2  and  C_3
REMARK    3  A    between atoms: C_5  and  C_6
REMARK    4  A    between atoms: C_10  and  C_11
REMARK    5  A    between atoms: C_16  and  C_17
REMARK    6  A    between atoms: C_25  and  N_26
REMARK    7  A    between atoms: C_29  and  C_30
REMARK                            x       y       z     vdW  Elec       q    Type
REMARK                         _______ _______ _______ _____ _____    ______ ____
ROOT
ATOM      1  C   UNL     1       8.045   8.234  18.188  0.00  0.00    +0.000 C 
ATOM      2  N   UNL     1       8.601   7.405  19.032  0.00  0.00    +0.000 NA
ATOM      3  O   UNL     1       8.042   6.104  19.059  0.00  0.00    +0.000 OA
ATOM      4  C   UNL     1       7.766   5.578  17.760  0.00  0.00    +0.000 C 
ATOM      5  C   UNL     1       6.797   6.487  16.992  0.00  0.00    +0.000 C 
ATOM      6  N   UNL     1       7.110   7.870  17.250  0.00  0.00    +0.000 N 
ATOM      7  H   UNL     1       6.709   8.596  16.666  0.00  0.00    +0.000 HD
ENDROOT
BRANCH   5   8
ATOM      8  C   UNL     1       5.330   6.240  17.304  0.00  0.00    +0.000 A 
ATOM      9  C   UNL     1       4.820   4.934  17.273  0.00  0.00    +0.000 A 
ATOM     10  C   UNL     1       3.474   4.692  17.545  0.00  0.00    +0.000 A 
ATOM     11  C   UNL     1       2.626   5.751  17.846  0.00  0.00    +0.000 A 
ATOM     12  F   UNL     1       1.341   5.478  18.102  0.00  0.00    +0.000 F 
ATOM     13  C   UNL     1       3.088   7.061  17.880  0.00  0.00    +0.000 A 
ATOM     14  C   UNL     1       4.449   7.298  17.605  0.00  0.00    +0.000 A 
BRANCH  13  15
ATOM     15  C   UNL     1       2.172   8.205  18.199  0.00  0.00    +0.000 C 
ATOM     16  F   UNL     1       2.720   9.441  18.056  0.00  0.00    +0.000 F 
ATOM     17  F   UNL     1       1.058   8.204  17.412  0.00  0.00    +0.000 F 
ATOM     18  F   UNL     1       1.713   8.154  19.482  0.00  0.00    +0.000 F 
ENDBRANCH  13  15
ENDBRANCH   5   8
BRANCH   1  21
ATOM     19  C   UNL     1       9.922  11.263  19.072  0.00  0.00    +0.000 A 
ATOM     20  N   UNL     1       9.454   9.988  19.104  0.00  0.00    +0.000 NA
ATOM     21  C   UNL     1       8.424   9.692  18.265  0.00  0.00    +0.000 A 
ATOM     22  C   UNL     1       7.806  10.623  17.446  0.00  0.00    +0.000 A 
ATOM     23  C   UNL     1       8.285  11.930  17.454  0.00  0.00    +0.000 A 
ATOM     24  C   UNL     1       9.381  12.268  18.264  0.00  0.00    +0.000 A 
BRANCH  24  25
ATOM     25  N   UNL     1       9.930  13.577  18.167  0.00  0.00    +0.000 N 
ATOM     26  C   UNL     1      10.872  14.049  17.276  0.00  0.00    +0.000 A 
ATOM     27  N   UNL     1      11.069  15.346  17.383  0.00  0.00    +0.000 NA
ATOM     28  C   UNL     1      10.244  15.756  18.393  0.00  0.00    +0.000 A 
ATOM     29  C   UNL     1      10.174  17.177  18.796  0.00  0.00    +0.000 C 
ATOM     30  C   UNL     1       9.555  14.681  18.908  0.00  0.00    +0.000 A 
ENDBRANCH  24  25
BRANCH  19  32
ATOM     31  C   UNL     1      12.224  11.484  19.412  0.00  0.00    +0.000 C 
ATOM     32  O   UNL     1      10.917  11.586  19.967  0.00  0.00    +0.000 OA
ENDBRANCH  19  32
ENDBRANCH   1  21
TORSDOF 5
ENDMDL
