MODEL 1
REMARK VINA RESULT:      -7.3      0.000      0.000
REMARK  Name = 
REMARK  1 active torsions:
REMARK  status: ('A' for Active; 'I' for Inactive)
REMARK    1  A    between atoms: C_1  and  C_2
REMARK                            x       y       z     vdW  Elec       q    Type
REMARK                         _______ _______ _______ _____ _____    ______ ____
ROOT
ATOM      1  C   UNL     1       4.486   1.728  20.423  0.00  0.00    +0.000 C 
ATOM      2  C   UNL     1       4.155   2.909  19.491  0.00  0.00    +0.000 C 
ATOM      3  C   UNL     1       2.690   3.287  19.759  0.00  0.00    +0.000 C 
ATOM      4  C   UNL     1       2.447   4.782  19.733  0.00  0.00    +0.000 C 
ATOM      5  C   UNL     1       2.755   5.336  18.353  0.00  0.00    +0.000 C 
ATOM      6  C   UNL     1       2.187   6.752  18.214  0.00  0.00    +0.000 C 
ATOM      7  C   UNL     1       3.241   7.794  17.950  0.00  0.00    +0.000 C 
ATOM      8  C   UNL     1       4.000   7.380  16.686  0.00  0.00    +0.000 C 
ATOM      9  C   UNL     1       4.863   6.185  17.050  0.00  0.00    +0.000 C 
ATOM     10  C   UNL     1       5.810   5.586  16.045  0.00  0.00    +0.000 C 
ATOM     11  C   UNL     1       6.861   4.764  16.805  0.00  0.00    +0.000 C 
ATOM     12  O   UNL     1       7.905   4.450  16.269  0.00  0.00    +0.000 OA
ATOM     13  O   UNL     1       6.588   4.399  18.106  0.00  0.00    +0.000 OA
ATOM     14  C   UNL     1       5.387   4.808  18.861  0.00  0.00    +0.000 C 
ATOM     15  O   UNL     1       5.080   3.910  19.906  0.00  0.00    +0.000 OA
ATOM     16  C   UNL     1       4.217   5.049  17.896  0.00  0.00    +0.000 C 
ATOM     17  O   UNL     1       4.066   3.771  17.189  0.00  0.00    +0.000 OA
ATOM     18  O   UNL     1       4.348   2.587  18.104  0.00  0.00    +0.000 OA
ENDROOT
TORSDOF 0
ENDMDL
MODEL 2
REMARK VINA RESULT:      -7.3      2.061      3.718
REMARK  Name = 
REMARK  1 active torsions:
REMARK  status: ('A' for Active; 'I' for Inactive)
REMARK    1  A    between atoms: C_1  and  C_2
REMARK                            x       y       z     vdW  Elec       q    Type
REMARK                         _______ _______ _______ _____ _____    ______ ____
ROOT
ATOM      1  C   UNL     1       1.147   3.065  20.474  0.00  0.00    +0.000 C 
ATOM      2  C   UNL     1       2.287   3.627  19.605  0.00  0.00    +0.000 C 
ATOM      3  C   UNL     1       3.246   2.459  19.322  0.00  0.00    +0.000 C 
ATOM      4  C   UNL     1       3.804   2.476  17.915  0.00  0.00    +0.000 C 
ATOM      5  C   UNL     1       4.632   3.731  17.697  0.00  0.00    +0.000 C 
ATOM      6  C   UNL     1       5.477   3.591  16.427  0.00  0.00    +0.000 C 
ATOM      7  C   UNL     1       5.159   4.629  15.383  0.00  0.00    +0.000 C 
ATOM      8  C   UNL     1       5.351   6.008  16.023  0.00  0.00    +0.000 C 
ATOM      9  C   UNL     1       4.202   6.217  16.994  0.00  0.00    +0.000 C 
ATOM     10  C   UNL     1       4.043   7.522  17.727  0.00  0.00    +0.000 C 
ATOM     11  C   UNL     1       2.593   7.622  18.220  0.00  0.00    +0.000 C 
ATOM     12  O   UNL     1       2.126   8.695  18.551  0.00  0.00    +0.000 OA
ATOM     13  O   UNL     1       1.839   6.470  18.272  0.00  0.00    +0.000 OA
ATOM     14  C   UNL     1       2.296   5.143  17.811  0.00  0.00    +0.000 C 
ATOM     15  O   UNL     1       1.604   4.088  18.444  0.00  0.00    +0.000 OA
ATOM     16  C   UNL     1       3.823   5.040  17.940  0.00  0.00    +0.000 C 
ATOM     17  O   UNL     1       4.080   5.294  19.363  0.00  0.00    +0.000 OA
ATOM     18  O   UNL     1       2.984   4.709  20.244  0.00  0.00    +0.000 OA
ENDROOT
TORSDOF 0
ENDMDL
MODEL 3
REMARK VINA RESULT:      -7.1      1.281      4.024
REMARK  Name = 
REMARK  1 active torsions:
REMARK  status: ('A' for Active; 'I' for Inactive)
REMARK    1  A    between atoms: C_1  and  C_2
REMARK                            x       y       z     vdW  Elec       q    Type
REMARK                         _______ _______ _______ _____ _____    ______ ____
ROOT
ATOM      1  C   UNL     1       5.601   5.326  15.374  0.00  0.00    +0.000 C 
ATOM      2  C   UNL     1       4.946   5.285  16.767  0.00  0.00    +0.000 C 
ATOM      3  C   UNL     1       4.740   6.745  17.203  0.00  0.00    +0.000 C 
ATOM      4  C   UNL     1       3.434   6.967  17.937  0.00  0.00    +0.000 C 
ATOM      5  C   UNL     1       3.416   6.162  19.225  0.00  0.00    +0.000 C 
ATOM      6  C   UNL     1       2.279   6.643  20.132  0.00  0.00    +0.000 C 
ATOM      7  C   UNL     1       1.262   5.573  20.431  0.00  0.00    +0.000 C 
ATOM      8  C   UNL     1       2.002   4.388  21.059  0.00  0.00    +0.000 C 
ATOM      9  C   UNL     1       2.803   3.721  19.954  0.00  0.00    +0.000 C 
ATOM     10  C   UNL     1       3.580   2.460  20.222  0.00  0.00    +0.000 C 
ATOM     11  C   UNL     1       3.858   1.773  18.878  0.00  0.00    +0.000 C 
ATOM     12  O   UNL     1       4.178   0.601  18.838  0.00  0.00    +0.000 OA
ATOM     13  O   UNL     1       3.729   2.516  17.725  0.00  0.00    +0.000 OA
ATOM     14  C   UNL     1       3.264   3.917  17.674  0.00  0.00    +0.000 C 
ATOM     15  O   UNL     1       3.724   4.593  16.524  0.00  0.00    +0.000 OA
ATOM     16  C   UNL     1       3.612   4.634  18.987  0.00  0.00    +0.000 C 
ATOM     17  O   UNL     1       5.070   4.497  19.094  0.00  0.00    +0.000 OA
ATOM     18  O   UNL     1       5.743   4.577  17.730  0.00  0.00    +0.000 OA
ENDROOT
TORSDOF 0
ENDMDL
MODEL 4
REMARK VINA RESULT:      -7.1      2.000      2.893
REMARK  Name = 
REMARK  1 active torsions:
REMARK  status: ('A' for Active; 'I' for Inactive)
REMARK    1  A    between atoms: C_1  and  C_2
REMARK                            x       y       z     vdW  Elec       q    Type
REMARK                         _______ _______ _______ _____ _____    ______ ____
ROOT
ATOM      1  C   UNL     1       2.292   3.951  20.607  0.00  0.00    +0.000 C 
ATOM      2  C   UNL     1       3.304   3.925  19.447  0.00  0.00    +0.000 C 
ATOM      3  C   UNL     1       2.572   3.329  18.233  0.00  0.00    +0.000 C 
ATOM      4  C   UNL     1       2.939   4.003  16.928  0.00  0.00    +0.000 C 
ATOM      5  C   UNL     1       4.417   3.805  16.636  0.00  0.00    +0.000 C 
ATOM      6  C   UNL     1       4.720   4.166  15.178  0.00  0.00    +0.000 C 
ATOM      7  C   UNL     1       5.701   5.300  15.036  0.00  0.00    +0.000 C 
ATOM      8  C   UNL     1       6.979   4.906  15.783  0.00  0.00    +0.000 C 
ATOM      9  C   UNL     1       6.672   4.977  17.269  0.00  0.00    +0.000 C 
ATOM     10  C   UNL     1       7.752   4.734  18.289  0.00  0.00    +0.000 C 
ATOM     11  C   UNL     1       7.297   5.340  19.624  0.00  0.00    +0.000 C 
ATOM     12  O   UNL     1       8.102   5.562  20.507  0.00  0.00    +0.000 OA
ATOM     13  O   UNL     1       5.959   5.626  19.789  0.00  0.00    +0.000 OA
ATOM     14  C   UNL     1       4.929   5.469  18.742  0.00  0.00    +0.000 C 
ATOM     15  O   UNL     1       3.637   5.300  19.283  0.00  0.00    +0.000 OA
ATOM     16  C   UNL     1       5.337   4.353  17.769  0.00  0.00    +0.000 C 
ATOM     17  O   UNL     1       5.497   3.171  18.625  0.00  0.00    +0.000 OA
ATOM     18  O   UNL     1       4.478   3.156  19.756  0.00  0.00    +0.000 OA
ENDROOT
TORSDOF 0
ENDMDL
MODEL 5
REMARK VINA RESULT:      -7.1      1.463      4.008
REMARK  Name = 
REMARK  1 active torsions:
REMARK  status: ('A' for Active; 'I' for Inactive)
REMARK    1  A    between atoms: C_1  and  C_2
REMARK                            x       y       z     vdW  Elec       q    Type
REMARK                         _______ _______ _______ _____ _____    ______ ____
ROOT
ATOM      1  C   UNL     1       7.609   5.757  17.983  0.00  0.00    +0.000 C 
ATOM      2  C   UNL     1       6.128   5.507  18.324  0.00  0.00    +0.000 C 
ATOM      3  C   UNL     1       5.324   6.640  17.665  0.00  0.00    +0.000 C 
ATOM      4  C   UNL     1       4.007   6.173  17.083  0.00  0.00    +0.000 C 
ATOM      5  C   UNL     1       3.109   5.638  18.186  0.00  0.00    +0.000 C 
ATOM      6  C   UNL     1       1.672   5.497  17.674  0.00  0.00    +0.000 C 
ATOM      7  C   UNL     1       1.160   4.081  17.719  0.00  0.00    +0.000 C 
ATOM      8  C   UNL     1       1.281   3.587  19.164  0.00  0.00    +0.000 C 
ATOM      9  C   UNL     1       2.758   3.367  19.443  0.00  0.00    +0.000 C 
ATOM     10  C   UNL     1       3.215   2.792  20.757  0.00  0.00    +0.000 C 
ATOM     11  C   UNL     1       4.634   2.237  20.571  0.00  0.00    +0.000 C 
ATOM     12  O   UNL     1       5.097   1.448  21.370  0.00  0.00    +0.000 OA
ATOM     13  O   UNL     1       5.359   2.653  19.476  0.00  0.00    +0.000 OA
ATOM     14  C   UNL     1       4.846   3.541  18.413  0.00  0.00    +0.000 C 
ATOM     15  O   UNL     1       5.880   4.230  17.744  0.00  0.00    +0.000 OA
ATOM     16  C   UNL     1       3.759   4.465  18.981  0.00  0.00    +0.000 C 
ATOM     17  O   UNL     1       4.432   5.179  20.074  0.00  0.00    +0.000 OA
ATOM     18  O   UNL     1       5.888   5.474  19.740  0.00  0.00    +0.000 OA
ENDROOT
TORSDOF 0
ENDMDL
MODEL 6
REMARK VINA RESULT:      -6.9      1.506      2.138
REMARK  Name = 
REMARK  1 active torsions:
REMARK  status: ('A' for Active; 'I' for Inactive)
REMARK    1  A    between atoms: C_1  and  C_2
REMARK                            x       y       z     vdW  Elec       q    Type
REMARK                         _______ _______ _______ _____ _____    ______ ____
ROOT
ATOM      1  C   UNL     1       4.043   1.068  18.434  0.00  0.00    +0.000 C 
ATOM      2  C   UNL     1       3.397   2.458  18.583  0.00  0.00    +0.000 C 
ATOM      3  C   UNL     1       2.116   2.265  19.411  0.00  0.00    +0.000 C 
ATOM      4  C   UNL     1       1.869   3.389  20.394  0.00  0.00    +0.000 C 
ATOM      5  C   UNL     1       1.667   4.698  19.650  0.00  0.00    +0.000 C 
ATOM      6  C   UNL     1       1.076   5.754  20.590  0.00  0.00    +0.000 C 
ATOM      7  C   UNL     1       1.962   6.958  20.767  0.00  0.00    +0.000 C 
ATOM      8  C   UNL     1       2.231   7.547  19.379  0.00  0.00    +0.000 C 
ATOM      9  C   UNL     1       3.177   6.598  18.663  0.00  0.00    +0.000 C 
ATOM     10  C   UNL     1       3.714   6.933  17.297  0.00  0.00    +0.000 C 
ATOM     11  C   UNL     1       4.971   6.086  17.055  0.00  0.00    +0.000 C 
ATOM     12  O   UNL     1       5.763   6.391  16.185  0.00  0.00    +0.000 OA
ATOM     13  O   UNL     1       5.176   4.980  17.850  0.00  0.00    +0.000 OA
ATOM     14  C   UNL     1       4.314   4.584  18.982  0.00  0.00    +0.000 C 
ATOM     15  O   UNL     1       4.401   3.204  19.265  0.00  0.00    +0.000 OA
ATOM     16  C   UNL     1       2.878   5.072  18.743  0.00  0.00    +0.000 C 
ATOM     17  O   UNL     1       2.498   4.456  17.465  0.00  0.00    +0.000 OA
ATOM     18  O   UNL     1       3.093   3.062  17.315  0.00  0.00    +0.000 OA
ENDROOT
TORSDOF 0
ENDMDL
MODEL 7
REMARK VINA RESULT:      -6.9      1.299      3.890
REMARK  Name = 
REMARK  1 active torsions:
REMARK  status: ('A' for Active; 'I' for Inactive)
REMARK    1  A    between atoms: C_1  and  C_2
REMARK                            x       y       z     vdW  Elec       q    Type
REMARK                         _______ _______ _______ _____ _____    ______ ____
ROOT
ATOM      1  C   UNL     1       6.343   3.609  15.532  0.00  0.00    +0.000 C 
ATOM      2  C   UNL     1       5.590   4.567  16.474  0.00  0.00    +0.000 C 
ATOM      3  C   UNL     1       5.870   5.993  15.971  0.00  0.00    +0.000 C 
ATOM      4  C   UNL     1       4.665   6.904  16.066  0.00  0.00    +0.000 C 
ATOM      5  C   UNL     1       4.247   7.069  17.517  0.00  0.00    +0.000 C 
ATOM      6  C   UNL     1       3.273   8.243  17.655  0.00  0.00    +0.000 C 
ATOM      7  C   UNL     1       1.923   7.838  18.186  0.00  0.00    +0.000 C 
ATOM      8  C   UNL     1       2.140   7.142  19.533  0.00  0.00    +0.000 C 
ATOM      9  C   UNL     1       2.754   5.783  19.243  0.00  0.00    +0.000 C 
ATOM     10  C   UNL     1       3.012   4.803  20.356  0.00  0.00    +0.000 C 
ATOM     11  C   UNL     1       3.152   3.403  19.741  0.00  0.00    +0.000 C 
ATOM     12  O   UNL     1       3.043   2.411  20.434  0.00  0.00    +0.000 OA
ATOM     13  O   UNL     1       3.399   3.306  18.389  0.00  0.00    +0.000 OA
ATOM     14  C   UNL     1       3.461   4.452  17.459  0.00  0.00    +0.000 C 
ATOM     15  O   UNL     1       4.232   4.170  16.312  0.00  0.00    +0.000 OA
ATOM     16  C   UNL     1       3.916   5.712  18.210  0.00  0.00    +0.000 C 
ATOM     17  O   UNL     1       5.218   5.340  18.779  0.00  0.00    +0.000 OA
ATOM     18  O   UNL     1       5.997   4.425  17.844  0.00  0.00    +0.000 OA
ENDROOT
TORSDOF 0
ENDMDL
MODEL 8
REMARK VINA RESULT:      -6.7      1.932      3.628
REMARK  Name = 
REMARK  1 active torsions:
REMARK  status: ('A' for Active; 'I' for Inactive)
REMARK    1  A    between atoms: C_1  and  C_2
REMARK                            x       y       z     vdW  Elec       q    Type
REMARK                         _______ _______ _______ _____ _____    ______ ____
ROOT
ATOM      1  C   UNL     1       1.668   6.491  20.734  0.00  0.00    +0.000 C 
ATOM      2  C   UNL     1       2.396   6.069  19.445  0.00  0.00    +0.000 C 
ATOM      3  C   UNL     1       2.544   7.334  18.584  0.00  0.00    +0.000 C 
ATOM      4  C   UNL     1       3.871   7.409  17.860  0.00  0.00    +0.000 C 
ATOM      5  C   UNL     1       4.001   6.250  16.887  0.00  0.00    +0.000 C 
ATOM      6  C   UNL     1       5.156   6.506  15.913  0.00  0.00    +0.000 C 
ATOM      7  C   UNL     1       6.244   5.468  15.993  0.00  0.00    +0.000 C 
ATOM      8  C   UNL     1       5.603   4.100  15.739  0.00  0.00    +0.000 C 
ATOM      9  C   UNL     1       4.784   3.752  16.970  0.00  0.00    +0.000 C 
ATOM     10  C   UNL     1       4.093   2.420  17.081  0.00  0.00    +0.000 C 
ATOM     11  C   UNL     1       3.784   2.161  18.563  0.00  0.00    +0.000 C 
ATOM     12  O   UNL     1       3.527   1.039  18.953  0.00  0.00    +0.000 OA
ATOM     13  O   UNL     1       3.811   3.230  19.432  0.00  0.00    +0.000 OA
ATOM     14  C   UNL     1       4.195   4.607  19.061  0.00  0.00    +0.000 C 
ATOM     15  O   UNL     1       3.639   5.571  19.930  0.00  0.00    +0.000 OA
ATOM     16  C   UNL     1       3.877   4.860  17.580  0.00  0.00    +0.000 C 
ATOM     17  O   UNL     1       2.436   4.598  17.474  0.00  0.00    +0.000 OA
ATOM     18  O   UNL     1       1.690   5.047  18.723  0.00  0.00    +0.000 OA
ENDROOT
TORSDOF 0
ENDMDL
MODEL 9
REMARK VINA RESULT:      -6.6      2.225      4.852
REMARK  Name = 
REMARK  1 active torsions:
REMARK  status: ('A' for Active; 'I' for Inactive)
REMARK    1  A    between atoms: C_1  and  C_2
REMARK                            x       y       z     vdW  Elec       q    Type
REMARK                         _______ _______ _______ _____ _____    ______ ____
ROOT
ATOM      1  C   UNL     1       5.799   6.970  17.107  0.00  0.00    +0.000 C 
ATOM      2  C   UNL     1       4.648   5.999  17.431  0.00  0.00    +0.000 C 
ATOM      3  C   UNL     1       4.745   4.844  16.420  0.00  0.00    +0.000 C 
ATOM      4  C   UNL     1       4.433   3.494  17.028  0.00  0.00    +0.000 C 
ATOM      5  C   UNL     1       2.998   3.465  17.527  0.00  0.00    +0.000 C 
ATOM      6  C   UNL     1       2.568   2.023  17.815  0.00  0.00    +0.000 C 
ATOM      7  C   UNL     1       2.190   1.789  19.253  0.00  0.00    +0.000 C 
ATOM      8  C   UNL     1       1.075   2.778  19.609  0.00  0.00    +0.000 C 
ATOM      9  C   UNL     1       1.706   4.156  19.698  0.00  0.00    +0.000 C 
ATOM     10  C   UNL     1       0.892   5.348  20.122  0.00  0.00    +0.000 C 
ATOM     11  C   UNL     1       1.856   6.448  20.590  0.00  0.00    +0.000 C 
ATOM     12  O   UNL     1       1.456   7.371  21.271  0.00  0.00    +0.000 OA
ATOM     13  O   UNL     1       3.180   6.355  20.220  0.00  0.00    +0.000 OA
ATOM     14  C   UNL     1       3.768   5.228  19.468  0.00  0.00    +0.000 C 
ATOM     15  O   UNL     1       4.935   5.601  18.768  0.00  0.00    +0.000 OA
ATOM     16  C   UNL     1       2.700   4.578  18.577  0.00  0.00    +0.000 C 
ATOM     17  O   UNL     1       2.228   5.677  17.724  0.00  0.00    +0.000 OA
ATOM     18  O   UNL     1       3.359   6.628  17.357  0.00  0.00    +0.000 OA
ENDROOT
TORSDOF 0
ENDMDL
