MODEL 1
REMARK VINA RESULT:      -8.6      0.000      0.000
REMARK  Name = 
REMARK  5 active torsions:
REMARK  status: ('A' for Active; 'I' for Inactive)
REMARK    1  A    between atoms: C_1  and  C_2
REMARK    2  A    between atoms: N_4  and  C_5
REMARK    3  A    between atoms: C_5  and  C_6
REMARK    4  A    between atoms: C_9  and  C_10
REMARK    5  A    between atoms: C_22  and  C_23
REMARK                            x       y       z     vdW  Elec       q    Type
REMARK                         _______ _______ _______ _____ _____    ______ ____
ROOT
ATOM      1  C   UNL     1       3.114   5.298  19.564  0.00  0.00    +0.000 A 
ATOM      2  C   UNL     1       2.230   5.213  20.614  0.00  0.00    +0.000 A 
ATOM      3  O   UNL     1       1.556   6.392  20.700  0.00  0.00    +0.000 OA
ATOM      4  C   UNL     1       2.067   7.154  19.677  0.00  0.00    +0.000 A 
ATOM      5  N   UNL     1       2.983   6.532  18.960  0.00  0.00    +0.000 NA
ENDROOT
BRANCH   4   6
ATOM      6  C   UNL     1       1.582   8.534  19.591  0.00  0.00    +0.000 A 
ATOM      7  C   UNL     1       1.777   9.224  18.378  0.00  0.00    +0.000 A 
ATOM      8  C   UNL     1       1.287  10.511  18.194  0.00  0.00    +0.000 A 
ATOM      9  C   UNL     1       0.595  11.137  19.223  0.00  0.00    +0.000 A 
ATOM     10  C   UNL     1       0.389  10.491  20.451  0.00  0.00    +0.000 A 
ATOM     11  C   UNL     1      -0.308  11.157  21.474  0.00  0.00    +0.000 A 
ATOM     12  C   UNL     1      -0.521  10.553  22.711  0.00  0.00    +0.000 A 
ATOM     13  C   UNL     1      -0.041   9.273  22.940  0.00  0.00    +0.000 A 
ATOM     14  C   UNL     1       0.649   8.593  21.932  0.00  0.00    +0.000 A 
ATOM     15  C   UNL     1       0.883   9.175  20.659  0.00  0.00    +0.000 A 
ENDBRANCH   4   6
BRANCH   1  16
ATOM     16  C   UNL     1       4.116   4.308  19.071  0.00  0.00    +0.000 C 
BRANCH  16  20
ATOM     17  C   UNL     1       7.373   6.957  17.561  0.00  0.00    +0.000 C 
ATOM     18  C   UNL     1       7.512   5.444  17.745  0.00  0.00    +0.000 C 
ATOM     19  C   UNL     1       6.471   4.861  18.723  0.00  0.00    +0.000 C 
ATOM     20  N   UNL     1       5.101   4.926  18.165  0.00  0.00    +0.000 NA
ATOM     21  C   UNL     1       5.105   4.194  16.875  0.00  0.00    +0.000 C 
ATOM     22  C   UNL     1       6.163   4.750  15.896  0.00  0.00    +0.000 C 
ATOM     23  C   UNL     1       6.231   3.898  14.635  0.00  0.00    +0.000 C 
ATOM     24  O   UNL     1       7.474   4.754  16.484  0.00  0.00    +0.000 OA
ENDBRANCH  16  20
ENDBRANCH   1  16
TORSDOF 3
ENDMDL
MODEL 2
REMARK VINA RESULT:      -8.5      2.683      8.190
REMARK  Name = 
REMARK  5 active torsions:
REMARK  status: ('A' for Active; 'I' for Inactive)
REMARK    1  A    between atoms: C_1  and  C_2
REMARK    2  A    between atoms: N_4  and  C_5
REMARK    3  A    between atoms: C_5  and  C_6
REMARK    4  A    between atoms: C_9  and  C_10
REMARK    5  A    between atoms: C_22  and  C_23
REMARK                            x       y       z     vdW  Elec       q    Type
REMARK                         _______ _______ _______ _____ _____    ______ ____
ROOT
ATOM      1  C   UNL     1       1.748   9.142  18.900  0.00  0.00    +0.000 A 
ATOM      2  C   UNL     1       1.657   8.474  20.100  0.00  0.00    +0.000 A 
ATOM      3  O   UNL     1       2.074   7.193  19.906  0.00  0.00    +0.000 OA
ATOM      4  C   UNL     1       2.411   7.140  18.575  0.00  0.00    +0.000 A 
ATOM      5  N   UNL     1       2.253   8.286  17.943  0.00  0.00    +0.000 NA
ENDROOT
BRANCH   4   6
ATOM      6  C   UNL     1       2.811   5.828  18.059  0.00  0.00    +0.000 A 
ATOM      7  C   UNL     1       1.879   4.775  18.147  0.00  0.00    +0.000 A 
ATOM      8  C   UNL     1       2.156   3.520  17.620  0.00  0.00    +0.000 A 
ATOM      9  C   UNL     1       3.377   3.291  16.996  0.00  0.00    +0.000 A 
ATOM     10  C   UNL     1       4.339   4.307  16.898  0.00  0.00    +0.000 A 
ATOM     11  C   UNL     1       5.567   4.038  16.270  0.00  0.00    +0.000 A 
ATOM     12  C   UNL     1       6.551   5.017  16.164  0.00  0.00    +0.000 A 
ATOM     13  C   UNL     1       6.319   6.281  16.684  0.00  0.00    +0.000 A 
ATOM     14  C   UNL     1       5.101   6.569  17.308  0.00  0.00    +0.000 A 
ATOM     15  C   UNL     1       4.074   5.597  17.431  0.00  0.00    +0.000 A 
ENDBRANCH   4   6
BRANCH   1  16
ATOM     16  C   UNL     1       1.374  10.544  18.553  0.00  0.00    +0.000 C 
BRANCH  16  20
ATOM     17  C   UNL     1      -2.223  12.328  20.498  0.00  0.00    +0.000 C 
ATOM     18  C   UNL     1      -1.819  12.580  19.044  0.00  0.00    +0.000 C 
ATOM     19  C   UNL     1      -0.329  12.282  18.775  0.00  0.00    +0.000 C 
ATOM     20  N   UNL     1      -0.035  10.834  18.876  0.00  0.00    +0.000 NA
ATOM     21  C   UNL     1      -0.913  10.129  17.911  0.00  0.00    +0.000 C 
ATOM     22  C   UNL     1      -2.407  10.441  18.152  0.00  0.00    +0.000 C 
ATOM     23  C   UNL     1      -3.271   9.805  17.069  0.00  0.00    +0.000 C 
ATOM     24  O   UNL     1      -2.660  11.854  18.131  0.00  0.00    +0.000 OA
ENDBRANCH  16  20
ENDBRANCH   1  16
TORSDOF 3
ENDMDL
MODEL 3
REMARK VINA RESULT:      -8.5      2.024      3.041
REMARK  Name = 
REMARK  5 active torsions:
REMARK  status: ('A' for Active; 'I' for Inactive)
REMARK    1  A    between atoms: C_1  and  C_2
REMARK    2  A    between atoms: N_4  and  C_5
REMARK    3  A    between atoms: C_5  and  C_6
REMARK    4  A    between atoms: C_9  and  C_10
REMARK    5  A    between atoms: C_22  and  C_23
REMARK                            x       y       z     vdW  Elec       q    Type
REMARK                         _______ _______ _______ _____ _____    ______ ____
ROOT
ATOM      1  C   UNL     1       2.693   7.409  18.522  0.00  0.00    +0.000 A 
ATOM      2  C   UNL     1       2.794   8.270  17.454  0.00  0.00    +0.000 A 
ATOM      3  O   UNL     1       2.008   9.352  17.704  0.00  0.00    +0.000 OA
ATOM      4  C   UNL     1       1.459   9.100  18.938  0.00  0.00    +0.000 A 
ATOM      5  N   UNL     1       1.858   7.961  19.472  0.00  0.00    +0.000 NA
ENDROOT
BRANCH   4   6
ATOM      6  C   UNL     1       0.478  10.073  19.423  0.00  0.00    +0.000 A 
ATOM      7  C   UNL     1       0.781  10.777  20.606  0.00  0.00    +0.000 A 
ATOM      8  C   UNL     1      -0.066  11.765  21.094  0.00  0.00    +0.000 A 
ATOM      9  C   UNL     1      -1.237  12.066  20.410  0.00  0.00    +0.000 A 
ATOM     10  C   UNL     1      -1.584  11.381  19.236  0.00  0.00    +0.000 A 
ATOM     11  C   UNL     1      -2.781  11.705  18.575  0.00  0.00    +0.000 A 
ATOM     12  C   UNL     1      -3.165  11.038  17.414  0.00  0.00    +0.000 A 
ATOM     13  C   UNL     1      -2.354  10.040  16.897  0.00  0.00    +0.000 A 
ATOM     14  C   UNL     1      -1.156   9.709  17.538  0.00  0.00    +0.000 A 
ATOM     15  C   UNL     1      -0.731  10.368  18.721  0.00  0.00    +0.000 A 
ENDBRANCH   4   6
BRANCH   1  16
ATOM     16  C   UNL     1       3.310   6.067  18.734  0.00  0.00    +0.000 C 
BRANCH  16  20
ATOM     17  C   UNL     1       7.713   6.601  18.252  0.00  0.00    +0.000 C 
ATOM     18  C   UNL     1       7.035   5.254  18.512  0.00  0.00    +0.000 C 
ATOM     19  C   UNL     1       5.628   5.401  19.128  0.00  0.00    +0.000 C 
ATOM     20  N   UNL     1       4.668   5.990  18.166  0.00  0.00    +0.000 NA
ATOM     21  C   UNL     1       4.647   5.122  16.964  0.00  0.00    +0.000 C 
ATOM     22  C   UNL     1       6.055   4.944  16.352  0.00  0.00    +0.000 C 
ATOM     23  C   UNL     1       6.019   3.948  15.199  0.00  0.00    +0.000 C 
ATOM     24  O   UNL     1       6.991   4.448  17.321  0.00  0.00    +0.000 OA
ENDBRANCH  16  20
ENDBRANCH   1  16
TORSDOF 3
ENDMDL
MODEL 4
REMARK VINA RESULT:      -8.4      2.768      7.937
REMARK  Name = 
REMARK  5 active torsions:
REMARK  status: ('A' for Active; 'I' for Inactive)
REMARK    1  A    between atoms: C_1  and  C_2
REMARK    2  A    between atoms: N_4  and  C_5
REMARK    3  A    between atoms: C_5  and  C_6
REMARK    4  A    between atoms: C_9  and  C_10
REMARK    5  A    between atoms: C_22  and  C_23
REMARK                            x       y       z     vdW  Elec       q    Type
REMARK                         _______ _______ _______ _____ _____    ______ ____
ROOT
ATOM      1  C   UNL     1       1.861   9.071  18.625  0.00  0.00    +0.000 A 
ATOM      2  C   UNL     1       1.717   8.367  19.799  0.00  0.00    +0.000 A 
ATOM      3  O   UNL     1       2.255   7.129  19.621  0.00  0.00    +0.000 OA
ATOM      4  C   UNL     1       2.714   7.137  18.326  0.00  0.00    +0.000 A 
ATOM      5  N   UNL     1       2.519   8.284  17.702  0.00  0.00    +0.000 NA
ENDROOT
BRANCH   4   6
ATOM      6  C   UNL     1       3.265   5.876  17.825  0.00  0.00    +0.000 A 
ATOM      7  C   UNL     1       4.458   5.931  17.078  0.00  0.00    +0.000 A 
ATOM      8  C   UNL     1       5.080   4.774  16.625  0.00  0.00    +0.000 A 
ATOM      9  C   UNL     1       4.517   3.536  16.908  0.00  0.00    +0.000 A 
ATOM     10  C   UNL     1       3.323   3.435  17.638  0.00  0.00    +0.000 A 
ATOM     11  C   UNL     1       2.776   2.167  17.897  0.00  0.00    +0.000 A 
ATOM     12  C   UNL     1       1.587   2.028  18.607  0.00  0.00    +0.000 A 
ATOM     13  C   UNL     1       0.928   3.157  19.069  0.00  0.00    +0.000 A 
ATOM     14  C   UNL     1       1.461   4.427  18.826  0.00  0.00    +0.000 A 
ATOM     15  C   UNL     1       2.672   4.608  18.109  0.00  0.00    +0.000 A 
ENDBRANCH   4   6
BRANCH   1  16
ATOM     16  C   UNL     1       1.406  10.447  18.271  0.00  0.00    +0.000 C 
BRANCH  16  20
ATOM     17  C   UNL     1      -1.917  12.049  20.780  0.00  0.00    +0.000 C 
ATOM     18  C   UNL     1      -1.653  12.471  19.333  0.00  0.00    +0.000 C 
ATOM     19  C   UNL     1      -0.209  12.179  18.877  0.00  0.00    +0.000 C 
ATOM     20  N   UNL     1       0.047  10.723  18.771  0.00  0.00    +0.000 NA
ATOM     21  C   UNL     1      -0.946  10.160  17.825  0.00  0.00    +0.000 C 
ATOM     22  C   UNL     1      -2.397  10.470  18.255  0.00  0.00    +0.000 C 
ATOM     23  C   UNL     1      -3.386   9.990  17.200  0.00  0.00    +0.000 C 
ATOM     24  O   UNL     1      -2.605  11.880  18.431  0.00  0.00    +0.000 OA
ENDBRANCH  16  20
ENDBRANCH   1  16
TORSDOF 3
ENDMDL
MODEL 5
REMARK VINA RESULT:      -8.3      1.243      2.541
REMARK  Name = 
REMARK  5 active torsions:
REMARK  status: ('A' for Active; 'I' for Inactive)
REMARK    1  A    between atoms: C_1  and  C_2
REMARK    2  A    between atoms: N_4  and  C_5
REMARK    3  A    between atoms: C_5  and  C_6
REMARK    4  A    between atoms: C_9  and  C_10
REMARK    5  A    between atoms: C_22  and  C_23
REMARK                            x       y       z     vdW  Elec       q    Type
REMARK                         _______ _______ _______ _____ _____    ______ ____
ROOT
ATOM      1  C   UNL     1       2.776   6.808  18.844  0.00  0.00    +0.000 A 
ATOM      2  C   UNL     1       2.616   7.867  17.981  0.00  0.00    +0.000 A 
ATOM      3  O   UNL     1       1.892   8.829  18.615  0.00  0.00    +0.000 OA
ATOM      4  C   UNL     1       1.643   8.304  19.861  0.00  0.00    +0.000 A 
ATOM      5  N   UNL     1       2.171   7.110  20.047  0.00  0.00    +0.000 NA
ENDROOT
BRANCH   4   6
ATOM      6  C   UNL     1       0.784   9.101  20.741  0.00  0.00    +0.000 A 
ATOM      7  C   UNL     1       0.848   8.849  22.126  0.00  0.00    +0.000 A 
ATOM      8  C   UNL     1       0.116   9.607  23.031  0.00  0.00    +0.000 A 
ATOM      9  C   UNL     1      -0.700  10.631  22.568  0.00  0.00    +0.000 A 
ATOM     10  C   UNL     1      -0.803  10.908  21.197  0.00  0.00    +0.000 A 
ATOM     11  C   UNL     1      -1.646  11.946  20.763  0.00  0.00    +0.000 A 
ATOM     12  C   UNL     1      -1.784  12.243  19.409  0.00  0.00    +0.000 A 
ATOM     13  C   UNL     1      -1.078  11.505  18.471  0.00  0.00    +0.000 A 
ATOM     14  C   UNL     1      -0.231  10.473  18.885  0.00  0.00    +0.000 A 
ATOM     15  C   UNL     1      -0.062  10.144  20.255  0.00  0.00    +0.000 A 
ENDBRANCH   4   6
BRANCH   1  16
ATOM     16  C   UNL     1       3.444   5.491  18.633  0.00  0.00    +0.000 C 
BRANCH  16  20
ATOM     17  C   UNL     1       7.746   6.603  18.232  0.00  0.00    +0.000 C 
ATOM     18  C   UNL     1       7.237   5.164  18.329  0.00  0.00    +0.000 C 
ATOM     19  C   UNL     1       5.829   5.066  18.954  0.00  0.00    +0.000 C 
ATOM     20  N   UNL     1       4.795   5.645  18.065  0.00  0.00    +0.000 NA
ATOM     21  C   UNL     1       4.866   4.928  16.769  0.00  0.00    +0.000 C 
ATOM     22  C   UNL     1       6.278   4.994  16.145  0.00  0.00    +0.000 C 
ATOM     23  C   UNL     1       6.349   4.143  14.883  0.00  0.00    +0.000 C 
ATOM     24  O   UNL     1       7.278   4.503  17.052  0.00  0.00    +0.000 OA
ENDBRANCH  16  20
ENDBRANCH   1  16
TORSDOF 3
ENDMDL
MODEL 6
REMARK VINA RESULT:      -8.3      2.703      8.277
REMARK  Name = 
REMARK  5 active torsions:
REMARK  status: ('A' for Active; 'I' for Inactive)
REMARK    1  A    between atoms: C_1  and  C_2
REMARK    2  A    between atoms: N_4  and  C_5
REMARK    3  A    between atoms: C_5  and  C_6
REMARK    4  A    between atoms: C_9  and  C_10
REMARK    5  A    between atoms: C_22  and  C_23
REMARK                            x       y       z     vdW  Elec       q    Type
REMARK                         _______ _______ _______ _____ _____    ______ ____
ROOT
ATOM      1  C   UNL     1       1.502   8.967  19.299  0.00  0.00    +0.000 A 
ATOM      2  C   UNL     1       1.734   9.504  18.053  0.00  0.00    +0.000 A 
ATOM      3  O   UNL     1       2.459   8.606  17.331  0.00  0.00    +0.000 OA
ATOM      4  C   UNL     1       2.634   7.543  18.183  0.00  0.00    +0.000 A 
ATOM      5  N   UNL     1       2.061   7.707  19.360  0.00  0.00    +0.000 NA
ENDROOT
BRANCH   4   6
ATOM      6  C   UNL     1       3.477   6.450  17.692  0.00  0.00    +0.000 A 
ATOM      7  C   UNL     1       4.741   6.781  17.165  0.00  0.00    +0.000 A 
ATOM      8  C   UNL     1       5.626   5.798  16.742  0.00  0.00    +0.000 A 
ATOM      9  C   UNL     1       5.262   4.460  16.832  0.00  0.00    +0.000 A 
ATOM     10  C   UNL     1       4.008   4.086  17.338  0.00  0.00    +0.000 A 
ATOM     11  C   UNL     1       3.669   2.724  17.407  0.00  0.00    +0.000 A 
ATOM     12  C   UNL     1       2.429   2.315  17.892  0.00  0.00    +0.000 A 
ATOM     13  C   UNL     1       1.512   3.264  18.317  0.00  0.00    +0.000 A 
ATOM     14  C   UNL     1       1.835   4.623  18.262  0.00  0.00    +0.000 A 
ATOM     15  C   UNL     1       3.089   5.078  17.777  0.00  0.00    +0.000 A 
ENDBRANCH   4   6
BRANCH   1  16
ATOM     16  C   UNL     1       0.803   9.552  20.479  0.00  0.00    +0.000 C 
BRANCH  16  20
ATOM     17  C   UNL     1      -0.579  13.193  18.302  0.00  0.00    +0.000 C 
ATOM     18  C   UNL     1      -1.457  12.374  19.249  0.00  0.00    +0.000 C 
ATOM     19  C   UNL     1      -0.934  10.938  19.462  0.00  0.00    +0.000 C 
ATOM     20  N   UNL     1       0.339  10.927  20.219  0.00  0.00    +0.000 NA
ATOM     21  C   UNL     1       0.099  11.615  21.511  0.00  0.00    +0.000 C 
ATOM     22  C   UNL     1      -0.452  13.045  21.313  0.00  0.00    +0.000 C 
ATOM     23  C   UNL     1      -0.807  13.676  22.653  0.00  0.00    +0.000 C 
ATOM     24  O   UNL     1      -1.642  13.044  20.508  0.00  0.00    +0.000 OA
ENDBRANCH  16  20
ENDBRANCH   1  16
TORSDOF 3
ENDMDL
MODEL 7
REMARK VINA RESULT:      -8.2      2.693      4.008
REMARK  Name = 
REMARK  5 active torsions:
REMARK  status: ('A' for Active; 'I' for Inactive)
REMARK    1  A    between atoms: C_1  and  C_2
REMARK    2  A    between atoms: N_4  and  C_5
REMARK    3  A    between atoms: C_5  and  C_6
REMARK    4  A    between atoms: C_9  and  C_10
REMARK    5  A    between atoms: C_22  and  C_23
REMARK                            x       y       z     vdW  Elec       q    Type
REMARK                         _______ _______ _______ _____ _____    ______ ____
ROOT
ATOM      1  C   UNL     1       2.099   8.009  19.017  0.00  0.00    +0.000 A 
ATOM      2  C   UNL     1       2.266   8.705  17.843  0.00  0.00    +0.000 A 
ATOM      3  O   UNL     1       1.366   9.726  17.821  0.00  0.00    +0.000 OA
ATOM      4  C   UNL     1       0.682   9.605  19.007  0.00  0.00    +0.000 A 
ATOM      5  N   UNL     1       1.102   8.608  19.761  0.00  0.00    +0.000 NA
ENDROOT
BRANCH   4   6
ATOM      6  C   UNL     1      -0.432  10.534  19.211  0.00  0.00    +0.000 A 
ATOM      7  C   UNL     1      -0.365  11.409  20.313  0.00  0.00    +0.000 A 
ATOM      8  C   UNL     1      -1.348  12.365  20.536  0.00  0.00    +0.000 A 
ATOM      9  C   UNL     1      -2.424  12.461  19.662  0.00  0.00    +0.000 A 
ATOM     10  C   UNL     1      -2.537  11.601  18.560  0.00  0.00    +0.000 A 
ATOM     11  C   UNL     1      -3.643  11.720  17.701  0.00  0.00    +0.000 A 
ATOM     12  C   UNL     1      -3.797  10.877  16.603  0.00  0.00    +0.000 A 
ATOM     13  C   UNL     1      -2.843   9.904  16.349  0.00  0.00    +0.000 A 
ATOM     14  C   UNL     1      -1.733   9.775  17.189  0.00  0.00    +0.000 A 
ATOM     15  C   UNL     1      -1.541  10.618  18.315  0.00  0.00    +0.000 A 
ENDBRANCH   4   6
BRANCH   1  16
ATOM     16  C   UNL     1       2.793   6.785  19.513  0.00  0.00    +0.000 C 
BRANCH  16  20
ATOM     17  C   UNL     1       5.118   5.383  15.973  0.00  0.00    +0.000 C 
ATOM     18  C   UNL     1       5.216   4.759  17.367  0.00  0.00    +0.000 C 
ATOM     19  C   UNL     1       4.728   5.706  18.483  0.00  0.00    +0.000 C 
ATOM     20  N   UNL     1       3.267   5.934  18.407  0.00  0.00    +0.000 NA
ATOM     21  C   UNL     1       2.600   4.612  18.486  0.00  0.00    +0.000 C 
ATOM     22  C   UNL     1       3.100   3.645  17.390  0.00  0.00    +0.000 C 
ATOM     23  C   UNL     1       2.492   2.259  17.576  0.00  0.00    +0.000 C 
ATOM     24  O   UNL     1       4.528   3.497  17.428  0.00  0.00    +0.000 OA
ENDBRANCH  16  20
ENDBRANCH   1  16
TORSDOF 3
ENDMDL
MODEL 8
REMARK VINA RESULT:      -8.2      2.620      8.217
REMARK  Name = 
REMARK  5 active torsions:
REMARK  status: ('A' for Active; 'I' for Inactive)
REMARK    1  A    between atoms: C_1  and  C_2
REMARK    2  A    between atoms: N_4  and  C_5
REMARK    3  A    between atoms: C_5  and  C_6
REMARK    4  A    between atoms: C_9  and  C_10
REMARK    5  A    between atoms: C_22  and  C_23
REMARK                            x       y       z     vdW  Elec       q    Type
REMARK                         _______ _______ _______ _____ _____    ______ ____
ROOT
ATOM      1  C   UNL     1       1.405   9.217  19.063  0.00  0.00    +0.000 A 
ATOM      2  C   UNL     1       1.496   8.407  20.171  0.00  0.00    +0.000 A 
ATOM      3  O   UNL     1       2.218   7.304  19.834  0.00  0.00    +0.000 OA
ATOM      4  C   UNL     1       2.544   7.498  18.513  0.00  0.00    +0.000 A 
ATOM      5  N   UNL     1       2.098   8.637  18.020  0.00  0.00    +0.000 NA
ENDROOT
BRANCH   4   6
ATOM      6  C   UNL     1       3.254   6.400  17.852  0.00  0.00    +0.000 A 
ATOM      7  C   UNL     1       4.429   6.712  17.139  0.00  0.00    +0.000 A 
ATOM      8  C   UNL     1       5.195   5.719  16.542  0.00  0.00    +0.000 A 
ATOM      9  C   UNL     1       4.797   4.392  16.641  0.00  0.00    +0.000 A 
ATOM     10  C   UNL     1       3.628   4.038  17.329  0.00  0.00    +0.000 A 
ATOM     11  C   UNL     1       3.250   2.686  17.401  0.00  0.00    +0.000 A 
ATOM     12  C   UNL     1       2.090   2.297  18.065  0.00  0.00    +0.000 A 
ATOM     13  C   UNL     1       1.291   3.257  18.668  0.00  0.00    +0.000 A 
ATOM     14  C   UNL     1       1.654   4.606  18.612  0.00  0.00    +0.000 A 
ATOM     15  C   UNL     1       2.831   5.039  17.947  0.00  0.00    +0.000 A 
ENDBRANCH   4   6
BRANCH   1  16
ATOM     16  C   UNL     1       0.690  10.513  18.880  0.00  0.00    +0.000 C 
BRANCH  16  20
ATOM     17  C   UNL     1      -0.943  10.778  23.023  0.00  0.00    +0.000 C 
ATOM     18  C   UNL     1      -0.535  11.989  22.182  0.00  0.00    +0.000 C 
ATOM     19  C   UNL     1       0.438  11.626  21.041  0.00  0.00    +0.000 C 
ATOM     20  N   UNL     1      -0.221  10.803  20.001  0.00  0.00    +0.000 NA
ATOM     21  C   UNL     1      -1.390  11.566  19.498  0.00  0.00    +0.000 C 
ATOM     22  C   UNL     1      -2.358  11.960  20.636  0.00  0.00    +0.000 C 
ATOM     23  C   UNL     1      -3.477  12.849  20.106  0.00  0.00    +0.000 C 
ATOM     24  O   UNL     1      -1.684  12.688  21.674  0.00  0.00    +0.000 OA
ENDBRANCH  16  20
ENDBRANCH   1  16
TORSDOF 3
ENDMDL
MODEL 9
REMARK VINA RESULT:      -8.2      1.403      1.870
REMARK  Name = 
REMARK  5 active torsions:
REMARK  status: ('A' for Active; 'I' for Inactive)
REMARK    1  A    between atoms: C_1  and  C_2
REMARK    2  A    between atoms: N_4  and  C_5
REMARK    3  A    between atoms: C_5  and  C_6
REMARK    4  A    between atoms: C_9  and  C_10
REMARK    5  A    between atoms: C_22  and  C_23
REMARK                            x       y       z     vdW  Elec       q    Type
REMARK                         _______ _______ _______ _____ _____    ______ ____
ROOT
ATOM      1  C   UNL     1       2.887   7.238  18.412  0.00  0.00    +0.000 A 
ATOM      2  C   UNL     1       2.897   8.032  17.289  0.00  0.00    +0.000 A 
ATOM      3  O   UNL     1       2.083   9.099  17.514  0.00  0.00    +0.000 OA
ATOM      4  C   UNL     1       1.609   8.906  18.790  0.00  0.00    +0.000 A 
ATOM      5  N   UNL     1       2.081   7.819  19.370  0.00  0.00    +0.000 NA
ENDROOT
BRANCH   4   6
ATOM      6  C   UNL     1       0.617   9.872  19.267  0.00  0.00    +0.000 A 
ATOM      7  C   UNL     1      -0.010  10.696  18.311  0.00  0.00    +0.000 A 
ATOM      8  C   UNL     1      -1.010  11.590  18.675  0.00  0.00    +0.000 A 
ATOM      9  C   UNL     1      -1.399  11.681  20.005  0.00  0.00    +0.000 A 
ATOM     10  C   UNL     1      -0.792  10.889  20.991  0.00  0.00    +0.000 A 
ATOM     11  C   UNL     1      -1.204  11.015  22.329  0.00  0.00    +0.000 A 
ATOM     12  C   UNL     1      -0.617  10.255  23.337  0.00  0.00    +0.000 A 
ATOM     13  C   UNL     1       0.391   9.357  23.020  0.00  0.00    +0.000 A 
ATOM     14  C   UNL     1       0.809   9.215  21.694  0.00  0.00    +0.000 A 
ATOM     15  C   UNL     1       0.232   9.969  20.639  0.00  0.00    +0.000 A 
ENDBRANCH   4   6
BRANCH   1  16
ATOM     16  C   UNL     1       3.566   5.936  18.672  0.00  0.00    +0.000 C 
BRANCH  16  20
ATOM     17  C   UNL     1       7.970   6.617  18.461  0.00  0.00    +0.000 C 
ATOM     18  C   UNL     1       7.320   5.240  18.604  0.00  0.00    +0.000 C 
ATOM     19  C   UNL     1       5.880   5.310  19.151  0.00  0.00    +0.000 C 
ATOM     20  N   UNL     1       4.954   5.930  18.175  0.00  0.00    +0.000 NA
ATOM     21  C   UNL     1       5.022   5.136  16.924  0.00  0.00    +0.000 C 
ATOM     22  C   UNL     1       6.465   5.034  16.380  0.00  0.00    +0.000 C 
ATOM     23  C   UNL     1       6.520   4.110  15.170  0.00  0.00    +0.000 C 
ATOM     24  O   UNL     1       7.364   4.506  17.368  0.00  0.00    +0.000 OA
ENDBRANCH  16  20
ENDBRANCH   1  16
TORSDOF 3
ENDMDL
