MODEL 1
REMARK VINA RESULT:      -7.4      0.000      0.000
REMARK  Name = 
REMARK  7 active torsions:
REMARK  status: ('A' for Active; 'I' for Inactive)
REMARK    1  A    between atoms: C_2  and  C_10
REMARK    2  A    between atoms: N_3  and  C_4
REMARK    3  A    between atoms: C_10  and  C_11
REMARK    4  A    between atoms: C_10  and  N_19
REMARK    5  A    between atoms: C_11  and  C_12
REMARK    6  A    between atoms: C_12  and  C_13
REMARK    7  A    between atoms: C_22  and  C_23
REMARK                            x       y       z     vdW  Elec       q    Type
REMARK                         _______ _______ _______ _____ _____    ______ ____
ROOT
ATOM      1  C   UNL     1       2.174   8.553  18.753  0.00  0.00    +0.000 C 
ENDROOT
BRANCH   1   2
ATOM      2  N   UNL     1       1.794  10.039  18.754  0.00  0.00    +0.000 N 
ATOM      3  C   UNL     1       0.453   9.618  18.355  0.00  0.00    +0.000 A 
ATOM      4  O   UNL     1       0.185   9.135  17.263  0.00  0.00    +0.000 OA
ATOM      5  C   UNL     1      -0.622  10.199  19.281  0.00  0.00    +0.000 A 
ATOM      6  N   UNL     1      -1.152  11.173  18.609  0.00  0.00    +0.000 NA
ATOM      7  C   UNL     1      -0.024  12.008  18.261  0.00  0.00    +0.000 A 
ATOM      8  C   UNL     1      -0.455  13.339  18.118  0.00  0.00    +0.000 A 
ATOM      9  C   UNL     1       0.240  14.313  18.795  0.00  0.00    +0.000 A 
ATOM     10  C   UNL     1       1.384  13.931  19.511  0.00  0.00    +0.000 A 
ATOM     11  C   UNL     1       1.968  12.604  19.435  0.00  0.00    +0.000 A 
ATOM     12  C   UNL     1       1.342  11.561  18.727  0.00  0.00    +0.000 A 
BRANCH   5  13
ATOM     13  C   UNL     1      -0.458  10.357  20.807  0.00  0.00    +0.000 A 
ATOM     14  C   UNL     1      -0.279   9.188  21.552  0.00  0.00    +0.000 A 
ATOM     15  C   UNL     1      -0.526   9.159  22.935  0.00  0.00    +0.000 A 
ATOM     16  C   UNL     1      -0.958  10.296  23.611  0.00  0.00    +0.000 A 
ATOM     17  C   UNL     1      -1.132  11.473  22.907  0.00  0.00    +0.000 A 
ATOM     18  C   UNL     1      -0.866  11.495  21.529  0.00  0.00    +0.000 A 
ENDBRANCH   5  13
ENDBRANCH   1   2
BRANCH   1  20
ATOM     19  O   UNL     1       3.067   8.015  16.527  0.00  0.00    +0.000 OA
ATOM     20  C   UNL     1       3.173   7.779  17.741  0.00  0.00    +0.000 C 
ATOM     21  N   UNL     1       3.965   6.732  18.168  0.00  0.00    +0.000 N 
ATOM     22  H   UNL     1       4.334   6.802  19.108  0.00  0.00    +0.000 HD
BRANCH  21  23
ATOM     23  C   UNL     1       4.706   5.892  17.184  0.00  0.00    +0.000 C 
ATOM     24  C   UNL     1       5.994   6.539  16.645  0.00  0.00    +0.000 C 
ATOM     25  C   UNL     1       7.105   6.585  17.692  0.00  0.00    +0.000 C 
ATOM     26  C   UNL     1       7.414   5.200  18.257  0.00  0.00    +0.000 C 
ATOM     27  C   UNL     1       6.160   4.484  18.753  0.00  0.00    +0.000 C 
ATOM     28  C   UNL     1       5.035   4.490  17.722  0.00  0.00    +0.000 C 
ENDBRANCH  21  23
ENDBRANCH   1  20
BRANCH   1  29
ATOM     29  C   UNL     1       2.174   7.617  20.067  0.00  0.00    +0.000 C 
BRANCH  29  30
ATOM     30  C   UNL     1       1.097   6.542  20.265  0.00  0.00    +0.000 C 
BRANCH  30  31
ATOM     31  C   UNL     1       1.620   5.110  20.098  0.00  0.00    +0.000 A 
ATOM     32  C   UNL     1       2.258   4.429  21.155  0.00  0.00    +0.000 A 
ATOM     33  C   UNL     1       2.669   3.093  21.010  0.00  0.00    +0.000 A 
ATOM     34  C   UNL     1       2.461   2.421  19.808  0.00  0.00    +0.000 A 
ATOM     35  C   UNL     1       1.854   3.088  18.747  0.00  0.00    +0.000 A 
ATOM     36  C   UNL     1       1.441   4.420  18.889  0.00  0.00    +0.000 A 
ENDBRANCH  30  31
ENDBRANCH  29  30
ENDBRANCH   1  29
TORSDOF 7
ENDMDL
MODEL 2
REMARK VINA RESULT:      -7.3      0.721      1.099
REMARK  Name = 
REMARK  7 active torsions:
REMARK  status: ('A' for Active; 'I' for Inactive)
REMARK    1  A    between atoms: C_2  and  C_10
REMARK    2  A    between atoms: N_3  and  C_4
REMARK    3  A    between atoms: C_10  and  C_11
REMARK    4  A    between atoms: C_10  and  N_19
REMARK    5  A    between atoms: C_11  and  C_12
REMARK    6  A    between atoms: C_12  and  C_13
REMARK    7  A    between atoms: C_22  and  C_23
REMARK                            x       y       z     vdW  Elec       q    Type
REMARK                         _______ _______ _______ _____ _____    ______ ____
ROOT
ATOM      1  C   UNL     1       2.259   8.616  18.543  0.00  0.00    +0.000 C 
ENDROOT
BRANCH   1   2
ATOM      2  N   UNL     1       1.874  10.099  18.627  0.00  0.00    +0.000 N 
ATOM      3  C   UNL     1       0.528   9.694  18.232  0.00  0.00    +0.000 A 
ATOM      4  O   UNL     1       0.243   9.267  17.121  0.00  0.00    +0.000 OA
ATOM      5  C   UNL     1      -0.531  10.222  19.205  0.00  0.00    +0.000 A 
ATOM      6  N   UNL     1      -1.077  11.227  18.593  0.00  0.00    +0.000 NA
ATOM      7  C   UNL     1       0.042  12.084  18.269  0.00  0.00    +0.000 A 
ATOM      8  C   UNL     1      -0.395  13.418  18.202  0.00  0.00    +0.000 A 
ATOM      9  C   UNL     1       0.309  14.359  18.914  0.00  0.00    +0.000 A 
ATOM     10  C   UNL     1       1.467  13.946  19.589  0.00  0.00    +0.000 A 
ATOM     11  C   UNL     1       2.053  12.626  19.436  0.00  0.00    +0.000 A 
ATOM     12  C   UNL     1       1.418  11.619  18.686  0.00  0.00    +0.000 A 
BRANCH   5  13
ATOM     13  C   UNL     1      -0.341  10.303  20.734  0.00  0.00    +0.000 A 
ATOM     14  C   UNL     1      -0.121   9.100  21.412  0.00  0.00    +0.000 A 
ATOM     15  C   UNL     1      -0.340   8.993  22.795  0.00  0.00    +0.000 A 
ATOM     16  C   UNL     1      -0.783  10.082  23.540  0.00  0.00    +0.000 A 
ATOM     17  C   UNL     1      -0.997  11.291  22.903  0.00  0.00    +0.000 A 
ATOM     18  C   UNL     1      -0.759  11.391  21.523  0.00  0.00    +0.000 A 
ENDBRANCH   5  13
ENDBRANCH   1   2
BRANCH   1  20
ATOM     19  O   UNL     1       2.975   7.491  16.478  0.00  0.00    +0.000 OA
ATOM     20  C   UNL     1       3.358   7.923  17.577  0.00  0.00    +0.000 C 
ATOM     21  N   UNL     1       4.626   7.616  18.029  0.00  0.00    +0.000 N 
ATOM     22  H   UNL     1       5.036   8.263  18.691  0.00  0.00    +0.000 HD
BRANCH  21  23
ATOM     23  C   UNL     1       5.543   6.782  17.202  0.00  0.00    +0.000 C 
ATOM     24  C   UNL     1       6.986   7.314  17.126  0.00  0.00    +0.000 C 
ATOM     25  C   UNL     1       7.741   7.136  18.441  0.00  0.00    +0.000 C 
ATOM     26  C   UNL     1       7.746   5.681  18.904  0.00  0.00    +0.000 C 
ATOM     27  C   UNL     1       6.344   5.080  18.940  0.00  0.00    +0.000 C 
ATOM     28  C   UNL     1       5.574   5.309  17.642  0.00  0.00    +0.000 C 
ENDBRANCH  21  23
ENDBRANCH   1  20
BRANCH   1  29
ATOM     29  C   UNL     1       2.132   7.577  19.771  0.00  0.00    +0.000 C 
BRANCH  29  30
ATOM     30  C   UNL     1       2.981   6.299  19.807  0.00  0.00    +0.000 C 
BRANCH  30  31
ATOM     31  C   UNL     1       2.171   5.017  19.577  0.00  0.00    +0.000 A 
ATOM     32  C   UNL     1       1.995   4.476  18.287  0.00  0.00    +0.000 A 
ATOM     33  C   UNL     1       1.311   3.264  18.098  0.00  0.00    +0.000 A 
ATOM     34  C   UNL     1       0.783   2.578  19.190  0.00  0.00    +0.000 A 
ATOM     35  C   UNL     1       0.928   3.111  20.468  0.00  0.00    +0.000 A 
ATOM     36  C   UNL     1       1.612   4.320  20.659  0.00  0.00    +0.000 A 
ENDBRANCH  30  31
ENDBRANCH  29  30
ENDBRANCH   1  29
TORSDOF 7
ENDMDL
MODEL 3
REMARK VINA RESULT:      -7.0      0.812      1.286
REMARK  Name = 
REMARK  7 active torsions:
REMARK  status: ('A' for Active; 'I' for Inactive)
REMARK    1  A    between atoms: C_2  and  C_10
REMARK    2  A    between atoms: N_3  and  C_4
REMARK    3  A    between atoms: C_10  and  C_11
REMARK    4  A    between atoms: C_10  and  N_19
REMARK    5  A    between atoms: C_11  and  C_12
REMARK    6  A    between atoms: C_12  and  C_13
REMARK    7  A    between atoms: C_22  and  C_23
REMARK                            x       y       z     vdW  Elec       q    Type
REMARK                         _______ _______ _______ _____ _____    ______ ____
ROOT
ATOM      1  C   UNL     1       1.960   8.480  18.372  0.00  0.00    +0.000 C 
ENDROOT
BRANCH   1   2
ATOM      2  N   UNL     1       1.703   9.987  18.505  0.00  0.00    +0.000 N 
ATOM      3  C   UNL     1       0.314   9.704  18.153  0.00  0.00    +0.000 A 
ATOM      4  O   UNL     1      -0.046   9.331  17.044  0.00  0.00    +0.000 OA
ATOM      5  C   UNL     1      -0.661  10.292  19.178  0.00  0.00    +0.000 A 
ATOM      6  N   UNL     1      -1.143  11.354  18.611  0.00  0.00    +0.000 NA
ATOM      7  C   UNL     1       0.031  12.124  18.264  0.00  0.00    +0.000 A 
ATOM      8  C   UNL     1      -0.297  13.491  18.245  0.00  0.00    +0.000 A 
ATOM      9  C   UNL     1       0.509  14.352  18.952  0.00  0.00    +0.000 A 
ATOM     10  C   UNL     1       1.652  13.827  19.572  0.00  0.00    +0.000 A 
ATOM     11  C   UNL     1       2.121  12.468  19.365  0.00  0.00    +0.000 A 
ATOM     12  C   UNL     1       1.377  11.537  18.617  0.00  0.00    +0.000 A 
BRANCH   5  13
ATOM     13  C   UNL     1      -0.409  10.316  20.700  0.00  0.00    +0.000 A 
ATOM     14  C   UNL     1      -0.243   9.083  21.337  0.00  0.00    +0.000 A 
ATOM     15  C   UNL     1      -0.416   8.950  22.724  0.00  0.00    +0.000 A 
ATOM     16  C   UNL     1      -0.759  10.043  23.514  0.00  0.00    +0.000 A 
ATOM     17  C   UNL     1      -0.918  11.281  22.918  0.00  0.00    +0.000 A 
ATOM     18  C   UNL     1      -0.725  11.406  21.533  0.00  0.00    +0.000 A 
ENDBRANCH   5  13
ENDBRANCH   1   2
BRANCH   1  20
ATOM     19  O   UNL     1       3.638   8.054  16.627  0.00  0.00    +0.000 OA
ATOM     20  C   UNL     1       3.268   7.740  17.769  0.00  0.00    +0.000 C 
ATOM     21  N   UNL     1       3.830   6.644  18.394  0.00  0.00    +0.000 N 
ATOM     22  H   UNL     1       3.810   6.645  19.406  0.00  0.00    +0.000 HD
BRANCH  21  23
ATOM     23  C   UNL     1       4.888   5.845  17.713  0.00  0.00    +0.000 C 
ATOM     24  C   UNL     1       5.736   4.979  18.662  0.00  0.00    +0.000 C 
ATOM     25  C   UNL     1       4.956   3.787  19.214  0.00  0.00    +0.000 C 
ATOM     26  C   UNL     1       4.374   2.921  18.100  0.00  0.00    +0.000 C 
ATOM     27  C   UNL     1       3.571   3.738  17.092  0.00  0.00    +0.000 C 
ATOM     28  C   UNL     1       4.335   4.958  16.585  0.00  0.00    +0.000 C 
ENDBRANCH  21  23
ENDBRANCH   1  20
BRANCH   1  29
ATOM     29  C   UNL     1       1.308   7.362  19.335  0.00  0.00    +0.000 C 
BRANCH  29  30
ATOM     30  C   UNL     1       2.144   6.685  20.429  0.00  0.00    +0.000 C 
BRANCH  30  31
ATOM     31  C   UNL     1       1.921   5.171  20.524  0.00  0.00    +0.000 A 
ATOM     32  C   UNL     1       2.429   4.415  21.600  0.00  0.00    +0.000 A 
ATOM     33  C   UNL     1       2.158   3.041  21.712  0.00  0.00    +0.000 A 
ATOM     34  C   UNL     1       1.384   2.398  20.747  0.00  0.00    +0.000 A 
ATOM     35  C   UNL     1       0.895   3.126  19.666  0.00  0.00    +0.000 A 
ATOM     36  C   UNL     1       1.163   4.497  19.553  0.00  0.00    +0.000 A 
ENDBRANCH  30  31
ENDBRANCH  29  30
ENDBRANCH   1  29
TORSDOF 7
ENDMDL
MODEL 4
REMARK VINA RESULT:      -6.9      3.464      6.815
REMARK  Name = 
REMARK  7 active torsions:
REMARK  status: ('A' for Active; 'I' for Inactive)
REMARK    1  A    between atoms: C_2  and  C_10
REMARK    2  A    between atoms: N_3  and  C_4
REMARK    3  A    between atoms: C_10  and  C_11
REMARK    4  A    between atoms: C_10  and  N_19
REMARK    5  A    between atoms: C_11  and  C_12
REMARK    6  A    between atoms: C_12  and  C_13
REMARK    7  A    between atoms: C_22  and  C_23
REMARK                            x       y       z     vdW  Elec       q    Type
REMARK                         _______ _______ _______ _____ _____    ______ ____
ROOT
ATOM      1  C   UNL     1      -0.438  12.313  20.380  0.00  0.00    +0.000 C 
ENDROOT
BRANCH   1   2
ATOM      2  N   UNL     1      -1.495  12.660  21.437  0.00  0.00    +0.000 N 
ATOM      3  C   UNL     1      -1.833  13.815  20.610  0.00  0.00    +0.000 A 
ATOM      4  O   UNL     1      -1.094  14.778  20.448  0.00  0.00    +0.000 OA
ATOM      5  C   UNL     1      -3.332  13.870  20.298  0.00  0.00    +0.000 A 
ATOM      6  N   UNL     1      -3.804  14.786  21.084  0.00  0.00    +0.000 NA
ATOM      7  C   UNL     1      -3.395  14.357  22.402  0.00  0.00    +0.000 A 
ATOM      8  C   UNL     1      -4.312  14.835  23.355  0.00  0.00    +0.000 A 
ATOM      9  C   UNL     1      -4.829  13.934  24.255  0.00  0.00    +0.000 A 
ATOM     10  C   UNL     1      -4.344  12.618  24.224  0.00  0.00    +0.000 A 
ATOM     11  C   UNL     1      -3.212  12.202  23.415  0.00  0.00    +0.000 A 
ATOM     12  C   UNL     1      -2.597  13.078  22.500  0.00  0.00    +0.000 A 
BRANCH   5  13
ATOM     13  C   UNL     1      -4.201  12.630  20.002  0.00  0.00    +0.000 A 
ATOM     14  C   UNL     1      -3.899  11.902  18.847  0.00  0.00    +0.000 A 
ATOM     15  C   UNL     1      -4.838  11.034  18.265  0.00  0.00    +0.000 A 
ATOM     16  C   UNL     1      -6.103  10.868  18.821  0.00  0.00    +0.000 A 
ATOM     17  C   UNL     1      -6.430  11.562  19.971  0.00  0.00    +0.000 A 
ATOM     18  C   UNL     1      -5.479  12.413  20.553  0.00  0.00    +0.000 A 
ENDBRANCH   5  13
ENDBRANCH   1   2
BRANCH   1  20
ATOM     19  O   UNL     1       1.854  12.268  21.266  0.00  0.00    +0.000 OA
ATOM     20  C   UNL     1       1.129  12.718  20.364  0.00  0.00    +0.000 C 
ATOM     21  N   UNL     1       1.614  13.698  19.521  0.00  0.00    +0.000 N 
ATOM     22  H   UNL     1       1.183  13.758  18.608  0.00  0.00    +0.000 HD
BRANCH  21  23
ATOM     23  C   UNL     1       3.004  14.210  19.677  0.00  0.00    +0.000 C 
ATOM     24  C   UNL     1       3.816  14.245  18.369  0.00  0.00    +0.000 C 
ATOM     25  C   UNL     1       3.340  15.342  17.419  0.00  0.00    +0.000 C 
ATOM     26  C   UNL     1       3.360  16.719  18.081  0.00  0.00    +0.000 C 
ATOM     27  C   UNL     1       2.620  16.729  19.416  0.00  0.00    +0.000 C 
ATOM     28  C   UNL     1       3.061  15.597  20.340  0.00  0.00    +0.000 C 
ENDBRANCH  21  23
ENDBRANCH   1  20
BRANCH   1  29
ATOM     29  C   UNL     1      -0.496  11.004  19.438  0.00  0.00    +0.000 C 
BRANCH  29  30
ATOM     30  C   UNL     1       0.678  10.651  18.513  0.00  0.00    +0.000 C 
BRANCH  30  31
ATOM     31  C   UNL     1       1.304   9.283  18.811  0.00  0.00    +0.000 A 
ATOM     32  C   UNL     1       2.006   8.561  17.824  0.00  0.00    +0.000 A 
ATOM     33  C   UNL     1       2.634   7.343  18.129  0.00  0.00    +0.000 A 
ATOM     34  C   UNL     1       2.565   6.820  19.419  0.00  0.00    +0.000 A 
ATOM     35  C   UNL     1       1.855   7.509  20.399  0.00  0.00    +0.000 A 
ATOM     36  C   UNL     1       1.228   8.726  20.097  0.00  0.00    +0.000 A 
ENDBRANCH  30  31
ENDBRANCH  29  30
ENDBRANCH   1  29
TORSDOF 7
ENDMDL
MODEL 5
REMARK VINA RESULT:      -6.9      2.119      5.738
REMARK  Name = 
REMARK  7 active torsions:
REMARK  status: ('A' for Active; 'I' for Inactive)
REMARK    1  A    between atoms: C_2  and  C_10
REMARK    2  A    between atoms: N_3  and  C_4
REMARK    3  A    between atoms: C_10  and  C_11
REMARK    4  A    between atoms: C_10  and  N_19
REMARK    5  A    between atoms: C_11  and  C_12
REMARK    6  A    between atoms: C_12  and  C_13
REMARK    7  A    between atoms: C_22  and  C_23
REMARK                            x       y       z     vdW  Elec       q    Type
REMARK                         _______ _______ _______ _____ _____    ______ ____
ROOT
ATOM      1  C   UNL     1       0.639  10.002  20.756  0.00  0.00    +0.000 C 
ENDROOT
BRANCH   1   2
ATOM      2  N   UNL     1       1.245  11.386  20.490  0.00  0.00    +0.000 N 
ATOM      3  C   UNL     1       0.769  11.248  19.116  0.00  0.00    +0.000 A 
ATOM      4  O   UNL     1       1.228  10.447  18.312  0.00  0.00    +0.000 OA
ATOM      5  C   UNL     1      -0.074  12.453  18.685  0.00  0.00    +0.000 A 
ATOM      6  N   UNL     1       0.710  13.156  17.928  0.00  0.00    +0.000 NA
ATOM      7  C   UNL     1       1.870  13.394  18.757  0.00  0.00    +0.000 A 
ATOM      8  C   UNL     1       2.482  14.598  18.368  0.00  0.00    +0.000 A 
ATOM      9  C   UNL     1       2.766  15.518  19.350  0.00  0.00    +0.000 A 
ATOM     10  C   UNL     1       2.510  15.162  20.683  0.00  0.00    +0.000 A 
ATOM     11  C   UNL     1       2.127  13.822  21.092  0.00  0.00    +0.000 A 
ATOM     12  C   UNL     1       1.861  12.810  20.150  0.00  0.00    +0.000 A 
BRANCH   5  13
ATOM     13  C   UNL     1      -1.068  13.190  19.606  0.00  0.00    +0.000 A 
ATOM     14  C   UNL     1      -2.291  12.561  19.854  0.00  0.00    +0.000 A 
ATOM     15  C   UNL     1      -3.403  13.286  20.317  0.00  0.00    +0.000 A 
ATOM     16  C   UNL     1      -3.323  14.657  20.545  0.00  0.00    +0.000 A 
ATOM     17  C   UNL     1      -2.124  15.307  20.322  0.00  0.00    +0.000 A 
ATOM     18  C   UNL     1      -1.015  14.571  19.876  0.00  0.00    +0.000 A 
ENDBRANCH   5  13
ENDBRANCH   1   2
BRANCH   1  20
ATOM     19  O   UNL     1       1.882   8.338  22.071  0.00  0.00    +0.000 OA
ATOM     20  C   UNL     1       1.415   8.594  20.950  0.00  0.00    +0.000 C 
ATOM     21  N   UNL     1       1.746   7.797  19.872  0.00  0.00    +0.000 N 
ATOM     22  H   UNL     1       1.085   7.780  19.106  0.00  0.00    +0.000 HD
BRANCH  21  23
ATOM     23  C   UNL     1       2.649   6.625  20.047  0.00  0.00    +0.000 C 
ATOM     24  C   UNL     1       2.030   5.464  20.846  0.00  0.00    +0.000 C 
ATOM     25  C   UNL     1       0.950   4.726  20.058  0.00  0.00    +0.000 C 
ATOM     26  C   UNL     1       1.471   4.214  18.717  0.00  0.00    +0.000 C 
ATOM     27  C   UNL     1       2.152   5.312  17.904  0.00  0.00    +0.000 C 
ATOM     28  C   UNL     1       3.192   6.083  18.714  0.00  0.00    +0.000 C 
ENDBRANCH  21  23
ENDBRANCH   1  20
BRANCH   1  29
ATOM     29  C   UNL     1      -0.771   9.758  21.500  0.00  0.00    +0.000 C 
BRANCH  29  30
ATOM     30  C   UNL     1      -0.939  10.091  22.989  0.00  0.00    +0.000 C 
BRANCH  30  31
ATOM     31  C   UNL     1      -1.530  11.484  23.243  0.00  0.00    +0.000 A 
ATOM     32  C   UNL     1      -2.878  11.657  23.618  0.00  0.00    +0.000 A 
ATOM     33  C   UNL     1      -3.388  12.931  23.916  0.00  0.00    +0.000 A 
ATOM     34  C   UNL     1      -2.566  14.053  23.835  0.00  0.00    +0.000 A 
ATOM     35  C   UNL     1      -1.238  13.902  23.443  0.00  0.00    +0.000 A 
ATOM     36  C   UNL     1      -0.727  12.630  23.147  0.00  0.00    +0.000 A 
ENDBRANCH  30  31
ENDBRANCH  29  30
ENDBRANCH   1  29
TORSDOF 7
ENDMDL
MODEL 6
REMARK VINA RESULT:      -6.9      5.445      8.869
REMARK  Name = 
REMARK  7 active torsions:
REMARK  status: ('A' for Active; 'I' for Inactive)
REMARK    1  A    between atoms: C_2  and  C_10
REMARK    2  A    between atoms: N_3  and  C_4
REMARK    3  A    between atoms: C_10  and  C_11
REMARK    4  A    between atoms: C_10  and  N_19
REMARK    5  A    between atoms: C_11  and  C_12
REMARK    6  A    between atoms: C_12  and  C_13
REMARK    7  A    between atoms: C_22  and  C_23
REMARK                            x       y       z     vdW  Elec       q    Type
REMARK                         _______ _______ _______ _____ _____    ______ ____
ROOT
ATOM      1  C   UNL     1      -2.493  14.160  20.777  0.00  0.00    +0.000 C 
ENDROOT
BRANCH   1   2
ATOM      2  N   UNL     1      -3.671  13.978  21.742  0.00  0.00    +0.000 N 
ATOM      3  C   UNL     1      -4.446  14.821  20.835  0.00  0.00    +0.000 A 
ATOM      4  O   UNL     1      -4.240  16.017  20.672  0.00  0.00    +0.000 OA
ATOM      5  C   UNL     1      -5.760  14.150  20.422  0.00  0.00    +0.000 A 
ATOM      6  N   UNL     1      -6.674  14.743  21.126  0.00  0.00    +0.000 NA
ATOM      7  C   UNL     1      -6.222  14.579  22.489  0.00  0.00    +0.000 A 
ATOM      8  C   UNL     1      -7.332  14.578  23.352  0.00  0.00    +0.000 A 
ATOM      9  C   UNL     1      -7.433  13.553  24.262  0.00  0.00    +0.000 A 
ATOM     10  C   UNL     1      -6.382  12.626  24.333  0.00  0.00    +0.000 A 
ATOM     11  C   UNL     1      -5.126  12.787  23.624  0.00  0.00    +0.000 A 
ATOM     12  C   UNL     1      -4.925  13.836  22.707  0.00  0.00    +0.000 A 
BRANCH   5  13
ATOM     13  C   UNL     1      -5.911  12.642  20.135  0.00  0.00    +0.000 A 
ATOM     14  C   UNL     1      -5.286  12.148  18.985  0.00  0.00    +0.000 A 
ATOM     15  C   UNL     1      -5.678  10.927  18.410  0.00  0.00    +0.000 A 
ATOM     16  C   UNL     1      -6.703  10.167  18.966  0.00  0.00    +0.000 A 
ATOM     17  C   UNL     1      -7.333  10.620  20.111  0.00  0.00    +0.000 A 
ATOM     18  C   UNL     1      -6.921  11.832  20.687  0.00  0.00    +0.000 A 
ENDBRANCH   5  13
ENDBRANCH   1   2
BRANCH   1  20
ATOM     19  O   UNL     1      -0.789  15.378  22.063  0.00  0.00    +0.000 OA
ATOM     20  C   UNL     1      -1.229  15.161  20.923  0.00  0.00    +0.000 C 
ATOM     21  N   UNL     1      -0.785  15.924  19.861  0.00  0.00    +0.000 N 
ATOM     22  H   UNL     1      -0.845  15.497  18.946  0.00  0.00    +0.000 HD
BRANCH  21  23
ATOM     23  C   UNL     1       0.228  16.996  20.071  0.00  0.00    +0.000 C 
ATOM     24  C   UNL     1       1.687  16.526  19.921  0.00  0.00    +0.000 C 
ATOM     25  C   UNL     1       2.056  16.232  18.468  0.00  0.00    +0.000 C 
ATOM     26  C   UNL     1       1.799  17.431  17.559  0.00  0.00    +0.000 C 
ATOM     27  C   UNL     1       0.383  17.979  17.711  0.00  0.00    +0.000 C 
ATOM     28  C   UNL     1      -0.000  18.221  19.169  0.00  0.00    +0.000 C 
ENDBRANCH  21  23
ENDBRANCH   1  20
BRANCH   1  29
ATOM     29  C   UNL     1      -1.945  13.008  19.789  0.00  0.00    +0.000 C 
BRANCH  29  30
ATOM     30  C   UNL     1      -0.538  12.423  19.970  0.00  0.00    +0.000 C 
BRANCH  30  31
ATOM     31  C   UNL     1      -0.482  11.258  20.966  0.00  0.00    +0.000 A 
ATOM     32  C   UNL     1      -0.792  11.436  22.330  0.00  0.00    +0.000 A 
ATOM     33  C   UNL     1      -0.806  10.347  23.217  0.00  0.00    +0.000 A 
ATOM     34  C   UNL     1      -0.501   9.066  22.761  0.00  0.00    +0.000 A 
ATOM     35  C   UNL     1      -0.170   8.877  21.422  0.00  0.00    +0.000 A 
ATOM     36  C   UNL     1      -0.157   9.962  20.534  0.00  0.00    +0.000 A 
ENDBRANCH  30  31
ENDBRANCH  29  30
ENDBRANCH   1  29
TORSDOF 7
ENDMDL
MODEL 7
REMARK VINA RESULT:      -6.8      4.708      7.871
REMARK  Name = 
REMARK  7 active torsions:
REMARK  status: ('A' for Active; 'I' for Inactive)
REMARK    1  A    between atoms: C_2  and  C_10
REMARK    2  A    between atoms: N_3  and  C_4
REMARK    3  A    between atoms: C_10  and  C_11
REMARK    4  A    between atoms: C_10  and  N_19
REMARK    5  A    between atoms: C_11  and  C_12
REMARK    6  A    between atoms: C_12  and  C_13
REMARK    7  A    between atoms: C_22  and  C_23
REMARK                            x       y       z     vdW  Elec       q    Type
REMARK                         _______ _______ _______ _____ _____    ______ ____
ROOT
ATOM      1  C   UNL     1      -0.095  14.272  19.986  0.00  0.00    +0.000 C 
ENDROOT
BRANCH   1   2
ATOM      2  N   UNL     1      -0.945  13.213  19.272  0.00  0.00    +0.000 N 
ATOM      3  C   UNL     1       0.309  12.539  18.943  0.00  0.00    +0.000 A 
ATOM      4  O   UNL     1       1.138  12.985  18.160  0.00  0.00    +0.000 OA
ATOM      5  C   UNL     1       0.291  11.067  19.368  0.00  0.00    +0.000 A 
ATOM      6  N   UNL     1       0.100  10.404  18.270  0.00  0.00    +0.000 NA
ATOM      7  C   UNL     1      -1.112  10.975  17.726  0.00  0.00    +0.000 A 
ATOM      8  C   UNL     1      -1.775  10.009  16.949  0.00  0.00    +0.000 A 
ATOM      9  C   UNL     1      -3.110   9.795  17.195  0.00  0.00    +0.000 A 
ATOM     10  C   UNL     1      -3.747  10.612  18.141  0.00  0.00    +0.000 A 
ATOM     11  C   UNL     1      -3.119  11.775  18.744  0.00  0.00    +0.000 A 
ATOM     12  C   UNL     1      -1.767  12.090  18.508  0.00  0.00    +0.000 A 
BRANCH   5  13
ATOM     13  C   UNL     1      -0.360  10.549  20.667  0.00  0.00    +0.000 A 
ATOM     14  C   UNL     1      -0.656  11.495  21.652  0.00  0.00    +0.000 A 
ATOM     15  C   UNL     1      -0.857  11.117  22.990  0.00  0.00    +0.000 A 
ATOM     16  C   UNL     1      -0.768   9.785  23.381  0.00  0.00    +0.000 A 
ATOM     17  C   UNL     1      -0.490   8.821  22.430  0.00  0.00    +0.000 A 
ATOM     18  C   UNL     1      -0.309   9.207  21.093  0.00  0.00    +0.000 A 
ENDBRANCH   5  13
ENDBRANCH   1   2
BRANCH   1  20
ATOM     19  O   UNL     1       0.268  16.174  18.471  0.00  0.00    +0.000 OA
ATOM     20  C   UNL     1       0.802  15.445  19.322  0.00  0.00    +0.000 C 
ATOM     21  N   UNL     1       2.168  15.508  19.517  0.00  0.00    +0.000 N 
ATOM     22  H   UNL     1       2.505  15.221  20.427  0.00  0.00    +0.000 HD
BRANCH  21  23
ATOM     23  C   UNL     1       3.003  16.454  18.724  0.00  0.00    +0.000 C 
ATOM     24  C   UNL     1       4.137  17.119  19.524  0.00  0.00    +0.000 C 
ATOM     25  C   UNL     1       5.264  16.143  19.858  0.00  0.00    +0.000 C 
ATOM     26  C   UNL     1       5.831  15.476  18.606  0.00  0.00    +0.000 C 
ATOM     27  C   UNL     1       4.741  14.850  17.740  0.00  0.00    +0.000 C 
ATOM     28  C   UNL     1       3.591  15.814  17.456  0.00  0.00    +0.000 C 
ENDBRANCH  21  23
ENDBRANCH   1  20
BRANCH   1  29
ATOM     29  C   UNL     1      -0.401  14.829  21.469  0.00  0.00    +0.000 C 
BRANCH  29  30
ATOM     30  C   UNL     1      -1.755  15.472  21.801  0.00  0.00    +0.000 C 
BRANCH  30  31
ATOM     31  C   UNL     1      -2.724  14.524  22.519  0.00  0.00    +0.000 A 
ATOM     32  C   UNL     1      -3.607  13.690  21.804  0.00  0.00    +0.000 A 
ATOM     33  C   UNL     1      -4.439  12.776  22.471  0.00  0.00    +0.000 A 
ATOM     34  C   UNL     1      -4.411  12.686  23.861  0.00  0.00    +0.000 A 
ATOM     35  C   UNL     1      -3.561  13.519  24.583  0.00  0.00    +0.000 A 
ATOM     36  C   UNL     1      -2.729  14.431  23.919  0.00  0.00    +0.000 A 
ENDBRANCH  30  31
ENDBRANCH  29  30
ENDBRANCH   1  29
TORSDOF 7
ENDMDL
MODEL 8
REMARK VINA RESULT:      -6.7      3.351      7.686
REMARK  Name = 
REMARK  7 active torsions:
REMARK  status: ('A' for Active; 'I' for Inactive)
REMARK    1  A    between atoms: C_2  and  C_10
REMARK    2  A    between atoms: N_3  and  C_4
REMARK    3  A    between atoms: C_10  and  C_11
REMARK    4  A    between atoms: C_10  and  N_19
REMARK    5  A    between atoms: C_11  and  C_12
REMARK    6  A    between atoms: C_12  and  C_13
REMARK    7  A    between atoms: C_22  and  C_23
REMARK                            x       y       z     vdW  Elec       q    Type
REMARK                         _______ _______ _______ _____ _____    ______ ____
ROOT
ATOM      1  C   UNL     1      -1.412  11.927  19.061  0.00  0.00    +0.000 C 
ENDROOT
BRANCH   1   2
ATOM      2  N   UNL     1      -1.084  13.397  19.349  0.00  0.00    +0.000 N 
ATOM      3  C   UNL     1      -0.837  12.993  20.731  0.00  0.00    +0.000 A 
ATOM      4  O   UNL     1      -1.713  12.618  21.499  0.00  0.00    +0.000 OA
ATOM      5  C   UNL     1       0.540  13.455  21.219  0.00  0.00    +0.000 A 
ATOM      6  N   UNL     1       0.299  14.481  21.975  0.00  0.00    +0.000 NA
ATOM      7  C   UNL     1      -0.458  15.370  21.121  0.00  0.00    +0.000 A 
ATOM      8  C   UNL     1      -0.247  16.699  21.528  0.00  0.00    +0.000 A 
ATOM      9  C   UNL     1       0.110  17.613  20.566  0.00  0.00    +0.000 A 
ATOM     10  C   UNL     1       0.156  17.184  19.231  0.00  0.00    +0.000 A 
ATOM     11  C   UNL     1      -0.318  15.883  18.794  0.00  0.00    +0.000 A 
ATOM     12  C   UNL     1      -0.743  14.905  19.713  0.00  0.00    +0.000 A 
BRANCH   5  13
ATOM     13  C   UNL     1       1.812  13.461  20.347  0.00  0.00    +0.000 A 
ATOM     14  C   UNL     1       2.761  14.452  20.614  0.00  0.00    +0.000 A 
ATOM     15  C   UNL     1       3.728  14.812  19.660  0.00  0.00    +0.000 A 
ATOM     16  C   UNL     1       3.775  14.192  18.415  0.00  0.00    +0.000 A 
ATOM     17  C   UNL     1       2.859  13.198  18.123  0.00  0.00    +0.000 A 
ATOM     18  C   UNL     1       1.909  12.835  19.090  0.00  0.00    +0.000 A 
ENDBRANCH   5  13
ENDBRANCH   1   2
BRANCH   1  20
ATOM     19  O   UNL     1      -2.694  10.335  17.695  0.00  0.00    +0.000 OA
ATOM     20  C   UNL     1      -2.782  11.309  18.460  0.00  0.00    +0.000 C 
ATOM     21  N   UNL     1      -3.992  11.959  18.603  0.00  0.00    +0.000 N 
ATOM     22  H   UNL     1      -4.133  12.459  19.472  0.00  0.00    +0.000 HD
BRANCH  21  23
ATOM     23  C   UNL     1      -5.195  11.493  17.858  0.00  0.00    +0.000 C 
ATOM     24  C   UNL     1      -6.240  10.773  18.730  0.00  0.00    +0.000 C 
ATOM     25  C   UNL     1      -6.981  11.732  19.659  0.00  0.00    +0.000 C 
ATOM     26  C   UNL     1      -7.643  12.874  18.892  0.00  0.00    +0.000 C 
ATOM     27  C   UNL     1      -6.665  13.588  17.962  0.00  0.00    +0.000 C 
ATOM     28  C   UNL     1      -5.887  12.621  17.073  0.00  0.00    +0.000 C 
ENDBRANCH  21  23
ENDBRANCH   1  20
BRANCH   1  29
ATOM     29  C   UNL     1      -0.308  10.806  18.701  0.00  0.00    +0.000 C 
BRANCH  29  30
ATOM     30  C   UNL     1       0.306   9.929  19.801  0.00  0.00    +0.000 C 
BRANCH  30  31
ATOM     31  C   UNL     1       1.281   8.872  19.270  0.00  0.00    +0.000 A 
ATOM     32  C   UNL     1       1.859   8.977  17.988  0.00  0.00    +0.000 A 
ATOM     33  C   UNL     1       2.804   8.039  17.542  0.00  0.00    +0.000 A 
ATOM     34  C   UNL     1       3.181   6.977  18.361  0.00  0.00    +0.000 A 
ATOM     35  C   UNL     1       2.602   6.846  19.621  0.00  0.00    +0.000 A 
ATOM     36  C   UNL     1       1.660   7.782  20.069  0.00  0.00    +0.000 A 
ENDBRANCH  30  31
ENDBRANCH  29  30
ENDBRANCH   1  29
TORSDOF 7
ENDMDL
MODEL 9
REMARK VINA RESULT:      -6.6      2.547      5.478
REMARK  Name = 
REMARK  7 active torsions:
REMARK  status: ('A' for Active; 'I' for Inactive)
REMARK    1  A    between atoms: C_2  and  C_10
REMARK    2  A    between atoms: N_3  and  C_4
REMARK    3  A    between atoms: C_10  and  C_11
REMARK    4  A    between atoms: C_10  and  N_19
REMARK    5  A    between atoms: C_11  and  C_12
REMARK    6  A    between atoms: C_12  and  C_13
REMARK    7  A    between atoms: C_22  and  C_23
REMARK                            x       y       z     vdW  Elec       q    Type
REMARK                         _______ _______ _______ _____ _____    ______ ____
ROOT
ATOM      1  C   UNL     1       1.018  10.299  19.636  0.00  0.00    +0.000 C 
ENDROOT
BRANCH   1   2
ATOM      2  N   UNL     1       1.663  11.635  20.025  0.00  0.00    +0.000 N 
ATOM      3  C   UNL     1       1.813  11.892  18.595  0.00  0.00    +0.000 A 
ATOM      4  O   UNL     1       2.578  11.273  17.867  0.00  0.00    +0.000 OA
ATOM      5  C   UNL     1       1.217  13.246  18.196  0.00  0.00    +0.000 A 
ATOM      6  N   UNL     1       2.240  14.030  18.047  0.00  0.00    +0.000 NA
ATOM      7  C   UNL     1       2.938  13.935  19.309  0.00  0.00    +0.000 A 
ATOM      8  C   UNL     1       3.643  15.128  19.544  0.00  0.00    +0.000 A 
ATOM      9  C   UNL     1       3.475  15.741  20.763  0.00  0.00    +0.000 A 
ATOM     10  C   UNL     1       2.684  15.094  21.725  0.00  0.00    +0.000 A 
ATOM     11  C   UNL     1       2.179  13.742  21.565  0.00  0.00    +0.000 A 
ATOM     12  C   UNL     1       2.347  13.028  20.363  0.00  0.00    +0.000 A 
BRANCH   5  13
ATOM     13  C   UNL     1      -0.081  13.831  18.790  0.00  0.00    +0.000 A 
ATOM     14  C   UNL     1      -0.156  15.222  18.910  0.00  0.00    +0.000 A 
ATOM     15  C   UNL     1      -1.073  15.830  19.784  0.00  0.00    +0.000 A 
ATOM     16  C   UNL     1      -1.940  15.068  20.560  0.00  0.00    +0.000 A 
ATOM     17  C   UNL     1      -1.902  13.690  20.456  0.00  0.00    +0.000 A 
ATOM     18  C   UNL     1      -0.994  13.093  19.568  0.00  0.00    +0.000 A 
ENDBRANCH   5  13
ENDBRANCH   1   2
BRANCH   1  20
ATOM     19  O   UNL     1       1.388   8.567  21.341  0.00  0.00    +0.000 OA
ATOM     20  C   UNL     1       1.432   8.812  20.125  0.00  0.00    +0.000 C 
ATOM     21  N   UNL     1       2.024   7.908  19.265  0.00  0.00    +0.000 N 
ATOM     22  H   UNL     1       1.713   7.933  18.303  0.00  0.00    +0.000 HD
BRANCH  21  23
ATOM     23  C   UNL     1       2.598   6.634  19.785  0.00  0.00    +0.000 C 
ATOM     24  C   UNL     1       1.699   5.402  19.572  0.00  0.00    +0.000 C 
ATOM     25  C   UNL     1       1.639   4.972  18.108  0.00  0.00    +0.000 C 
ATOM     26  C   UNL     1       3.028   4.708  17.532  0.00  0.00    +0.000 C 
ATOM     27  C   UNL     1       3.984   5.875  17.768  0.00  0.00    +0.000 C 
ATOM     28  C   UNL     1       3.999   6.336  19.223  0.00  0.00    +0.000 C 
ENDBRANCH  21  23
ENDBRANCH   1  20
BRANCH   1  29
ATOM     29  C   UNL     1      -0.525  10.131  19.196  0.00  0.00    +0.000 C 
BRANCH  29  30
ATOM     30  C   UNL     1      -0.893   9.769  17.751  0.00  0.00    +0.000 C 
BRANCH  30  31
ATOM     31  C   UNL     1      -2.249  10.331  17.304  0.00  0.00    +0.000 A 
ATOM     32  C   UNL     1      -3.165  10.872  18.228  0.00  0.00    +0.000 A 
ATOM     33  C   UNL     1      -4.372  11.447  17.798  0.00  0.00    +0.000 A 
ATOM     34  C   UNL     1      -4.689  11.482  16.441  0.00  0.00    +0.000 A 
ATOM     35  C   UNL     1      -3.805  10.930  15.518  0.00  0.00    +0.000 A 
ATOM     36  C   UNL     1      -2.599  10.357  15.945  0.00  0.00    +0.000 A 
ENDBRANCH  30  31
ENDBRANCH  29  30
ENDBRANCH   1  29
TORSDOF 7
ENDMDL
