MODEL 1
REMARK VINA RESULT:      -7.3      0.000      0.000
REMARK  Name = 
REMARK  5 active torsions:
REMARK  status: ('A' for Active; 'I' for Inactive)
REMARK    1  A    between atoms: C_2  and  C_3
REMARK    2  A    between atoms: C_10  and  N_11
REMARK    3  A    between atoms: N_11  and  C_12
REMARK    4  A    between atoms: C_12  and  C_13
REMARK    5  A    between atoms: C_20  and  C_21
REMARK                            x       y       z     vdW  Elec       q    Type
REMARK                         _______ _______ _______ _____ _____    ______ ____
ROOT
ATOM      1  C   UNL     1       0.452  10.443  20.722  0.00  0.00    +0.000 A 
ATOM      2  C   UNL     1       0.778   9.639  21.805  0.00  0.00    +0.000 A 
ATOM      3  C   UNL     1       1.330   8.377  21.574  0.00  0.00    +0.000 A 
ATOM      4  C   UNL     1       1.562   7.926  20.272  0.00  0.00    +0.000 A 
ATOM      5  N   UNL     1       2.113   6.679  20.046  0.00  0.00    +0.000 N 
ATOM      6  C   UNL     1       2.896   6.436  18.836  0.00  0.00    +0.000 C 
ATOM      7  C   UNL     1       2.245   5.361  17.967  0.00  0.00    +0.000 C 
ATOM      8  C   UNL     1       1.924   4.079  18.761  0.00  0.00    +0.000 C 
ATOM      9  C   UNL     1       1.042   4.479  19.956  0.00  0.00    +0.000 C 
ATOM     10  C   UNL     1       1.712   5.525  20.843  0.00  0.00    +0.000 C 
ATOM     11  N   UNL     1       1.270   8.724  19.221  0.00  0.00    +0.000 NA
ATOM     12  C   UNL     1       0.718   9.943  19.458  0.00  0.00    +0.000 A 
ENDROOT
BRANCH   1  14
ATOM     13  N   UNL     1      -0.596  12.790  21.041  0.00  0.00    +0.000 NA
ATOM     14  C   UNL     1      -0.128  11.734  20.899  0.00  0.00    +0.000 C 
ENDBRANCH   1  14
BRANCH   8  15
ATOM     15  N   UNL     1       3.159   3.337  19.118  0.00  0.00    +0.000 NA
ATOM     16  H   UNL     1       2.938   2.350  19.272  0.00  0.00    +0.000 HD
BRANCH  15  17
ATOM     17  C   UNL     1       4.164   3.409  18.041  0.00  0.00    +0.000 C 
BRANCH  17  18
ATOM     18  C   UNL     1       5.416   4.164  18.501  0.00  0.00    +0.000 C 
ATOM     19  O   UNL     1       5.887   3.954  19.622  0.00  0.00    +0.000 OA
ATOM     20  N   UNL     1       5.995   5.054  17.626  0.00  0.00    +0.000 N 
ATOM     21  C   UNL     1       7.257   5.703  17.922  0.00  0.00    +0.000 C 
ATOM     22  C   UNL     1       7.065   7.119  17.423  0.00  0.00    +0.000 C 
ATOM     23  F   UNL     1       8.239   7.654  17.019  0.00  0.00    +0.000 F 
ATOM     24  C   UNL     1       6.123   6.980  16.232  0.00  0.00    +0.000 C 
ATOM     25  C   UNL     1       5.348   5.675  16.469  0.00  0.00    +0.000 C 
BRANCH  25  26
ATOM     26  C   UNL     1       5.412   4.818  15.264  0.00  0.00    +0.000 C 
ATOM     27  N   UNL     1       5.472   4.150  14.317  0.00  0.00    +0.000 NA
ENDBRANCH  25  26
ENDBRANCH  17  18
ENDBRANCH  15  17
ENDBRANCH   8  15
TORSDOF 5
ENDMDL
MODEL 2
REMARK VINA RESULT:      -6.8      1.992      2.798
REMARK  Name = 
REMARK  5 active torsions:
REMARK  status: ('A' for Active; 'I' for Inactive)
REMARK    1  A    between atoms: C_2  and  C_3
REMARK    2  A    between atoms: C_10  and  N_11
REMARK    3  A    between atoms: N_11  and  C_12
REMARK    4  A    between atoms: C_12  and  C_13
REMARK    5  A    between atoms: C_20  and  C_21
REMARK                            x       y       z     vdW  Elec       q    Type
REMARK                         _______ _______ _______ _____ _____    ______ ____
ROOT
ATOM      1  C   UNL     1      -1.584  11.496  19.939  0.00  0.00    +0.000 A 
ATOM      2  C   UNL     1      -0.836  11.244  21.080  0.00  0.00    +0.000 A 
ATOM      3  C   UNL     1       0.223  10.334  21.013  0.00  0.00    +0.000 A 
ATOM      4  C   UNL     1       0.535   9.690  19.813  0.00  0.00    +0.000 A 
ATOM      5  N   UNL     1       1.586   8.795  19.748  0.00  0.00    +0.000 N 
ATOM      6  C   UNL     1       2.294   8.593  18.486  0.00  0.00    +0.000 C 
ATOM      7  C   UNL     1       2.156   7.149  18.004  0.00  0.00    +0.000 C 
ATOM      8  C   UNL     1       2.536   6.127  19.093  0.00  0.00    +0.000 C 
ATOM      9  C   UNL     1       1.666   6.417  20.328  0.00  0.00    +0.000 C 
ATOM     10  C   UNL     1       1.836   7.849  20.831  0.00  0.00    +0.000 C 
ATOM     11  N   UNL     1      -0.176   9.961  18.697  0.00  0.00    +0.000 NA
ATOM     12  C   UNL     1      -1.215  10.835  18.780  0.00  0.00    +0.000 A 
ENDROOT
BRANCH   1  14
ATOM     13  N   UNL     1      -3.583  13.143  19.960  0.00  0.00    +0.000 NA
ATOM     14  C   UNL     1      -2.685  12.403  19.955  0.00  0.00    +0.000 C 
ENDBRANCH   1  14
BRANCH   8  15
ATOM     15  N   UNL     1       3.998   6.121  19.348  0.00  0.00    +0.000 NA
ATOM     16  H   UNL     1       4.182   6.385  20.319  0.00  0.00    +0.000 HD
BRANCH  15  17
ATOM     17  C   UNL     1       4.579   4.783  19.128  0.00  0.00    +0.000 C 
BRANCH  17  18
ATOM     18  C   UNL     1       4.303   4.286  17.705  0.00  0.00    +0.000 C 
ATOM     19  O   UNL     1       3.288   3.626  17.468  0.00  0.00    +0.000 OA
ATOM     20  N   UNL     1       5.204   4.611  16.717  0.00  0.00    +0.000 N 
ATOM     21  C   UNL     1       4.950   4.307  15.323  0.00  0.00    +0.000 C 
ATOM     22  C   UNL     1       6.297   3.859  14.798  0.00  0.00    +0.000 C 
ATOM     23  F   UNL     1       6.426   4.151  13.483  0.00  0.00    +0.000 F 
ATOM     24  C   UNL     1       7.309   4.661  15.607  0.00  0.00    +0.000 C 
ATOM     25  C   UNL     1       6.593   5.028  16.916  0.00  0.00    +0.000 C 
BRANCH  25  26
ATOM     26  C   UNL     1       6.713   6.480  17.172  0.00  0.00    +0.000 C 
ATOM     27  N   UNL     1       6.813   7.617  17.382  0.00  0.00    +0.000 NA
ENDBRANCH  25  26
ENDBRANCH  17  18
ENDBRANCH  15  17
ENDBRANCH   8  15
TORSDOF 5
ENDMDL
MODEL 3
REMARK VINA RESULT:      -6.7      1.886      2.610
REMARK  Name = 
REMARK  5 active torsions:
REMARK  status: ('A' for Active; 'I' for Inactive)
REMARK    1  A    between atoms: C_2  and  C_3
REMARK    2  A    between atoms: C_10  and  N_11
REMARK    3  A    between atoms: N_11  and  C_12
REMARK    4  A    between atoms: C_12  and  C_13
REMARK    5  A    between atoms: C_20  and  C_21
REMARK                            x       y       z     vdW  Elec       q    Type
REMARK                         _______ _______ _______ _____ _____    ______ ____
ROOT
ATOM      1  C   UNL     1      -1.960  11.781  20.179  0.00  0.00    +0.000 A 
ATOM      2  C   UNL     1      -1.182  11.569  21.308  0.00  0.00    +0.000 A 
ATOM      3  C   UNL     1      -0.095  10.695  21.232  0.00  0.00    +0.000 A 
ATOM      4  C   UNL     1       0.216  10.045  20.035  0.00  0.00    +0.000 A 
ATOM      5  N   UNL     1       1.296   9.185  19.961  0.00  0.00    +0.000 N 
ATOM      6  C   UNL     1       1.985   8.989  18.688  0.00  0.00    +0.000 C 
ATOM      7  C   UNL     1       1.887   7.535  18.228  0.00  0.00    +0.000 C 
ATOM      8  C   UNL     1       2.322   6.542  19.324  0.00  0.00    +0.000 C 
ATOM      9  C   UNL     1       1.467   6.820  20.572  0.00  0.00    +0.000 C 
ATOM     10  C   UNL     1       1.598   8.264  21.051  0.00  0.00    +0.000 C 
ATOM     11  N   UNL     1      -0.526  10.276  18.930  0.00  0.00    +0.000 NA
ATOM     12  C   UNL     1      -1.592  11.116  19.022  0.00  0.00    +0.000 A 
ENDROOT
BRANCH   1  14
ATOM     13  N   UNL     1      -4.018  13.353  20.225  0.00  0.00    +0.000 NA
ATOM     14  C   UNL     1      -3.090  12.650  20.205  0.00  0.00    +0.000 C 
ENDBRANCH   1  14
BRANCH   8  15
ATOM     15  N   UNL     1       3.788   6.588  19.549  0.00  0.00    +0.000 NA
ATOM     16  H   UNL     1       3.994   7.156  20.375  0.00  0.00    +0.000 HD
BRANCH  15  17
ATOM     17  C   UNL     1       4.343   5.241  19.781  0.00  0.00    +0.000 C 
BRANCH  17  18
ATOM     18  C   UNL     1       5.708   5.080  19.103  0.00  0.00    +0.000 C 
ATOM     19  O   UNL     1       6.743   5.216  19.759  0.00  0.00    +0.000 OA
ATOM     20  N   UNL     1       5.734   4.766  17.763  0.00  0.00    +0.000 N 
ATOM     21  C   UNL     1       6.972   4.454  17.077  0.00  0.00    +0.000 C 
ATOM     22  C   UNL     1       6.822   5.131  15.731  0.00  0.00    +0.000 C 
ATOM     23  F   UNL     1       7.505   4.462  14.774  0.00  0.00    +0.000 F 
ATOM     24  C   UNL     1       5.328   5.070  15.438  0.00  0.00    +0.000 C 
ATOM     25  C   UNL     1       4.642   4.958  16.808  0.00  0.00    +0.000 C 
BRANCH  25  26
ATOM     26  C   UNL     1       3.688   3.828  16.809  0.00  0.00    +0.000 C 
ATOM     27  N   UNL     1       2.945   2.936  16.803  0.00  0.00    +0.000 NA
ENDBRANCH  25  26
ENDBRANCH  17  18
ENDBRANCH  15  17
ENDBRANCH   8  15
TORSDOF 5
ENDMDL
MODEL 4
REMARK VINA RESULT:      -6.7      3.179      5.485
REMARK  Name = 
REMARK  5 active torsions:
REMARK  status: ('A' for Active; 'I' for Inactive)
REMARK    1  A    between atoms: C_2  and  C_3
REMARK    2  A    between atoms: C_10  and  N_11
REMARK    3  A    between atoms: N_11  and  C_12
REMARK    4  A    between atoms: C_12  and  C_13
REMARK    5  A    between atoms: C_20  and  C_21
REMARK                            x       y       z     vdW  Elec       q    Type
REMARK                         _______ _______ _______ _____ _____    ______ ____
ROOT
ATOM      1  C   UNL     1      -2.885  13.700  22.622  0.00  0.00    +0.000 A 
ATOM      2  C   UNL     1      -2.658  12.744  23.602  0.00  0.00    +0.000 A 
ATOM      3  C   UNL     1      -1.743  11.718  23.354  0.00  0.00    +0.000 A 
ATOM      4  C   UNL     1      -1.056  11.653  22.139  0.00  0.00    +0.000 A 
ATOM      5  N   UNL     1      -0.147  10.640  21.898  0.00  0.00    +0.000 N 
ATOM      6  C   UNL     1       0.968  10.864  20.980  0.00  0.00    +0.000 C 
ATOM      7  C   UNL     1       0.893   9.919  19.782  0.00  0.00    +0.000 C 
ATOM      8  C   UNL     1       0.730   8.446  20.206  0.00  0.00    +0.000 C 
ATOM      9  C   UNL     1      -0.516   8.353  21.104  0.00  0.00    +0.000 C 
ATOM     10  C   UNL     1      -0.419   9.270  22.320  0.00  0.00    +0.000 C 
ATOM     11  N   UNL     1      -1.258  12.601  21.198  0.00  0.00    +0.000 NA
ATOM     12  C   UNL     1      -2.164  13.586  21.446  0.00  0.00    +0.000 A 
ENDROOT
BRANCH   1  14
ATOM     13  N   UNL     1      -4.586  15.623  22.968  0.00  0.00    +0.000 NA
ATOM     14  C   UNL     1      -3.820  14.759  22.816  0.00  0.00    +0.000 C 
ENDBRANCH   1  14
BRANCH   8  15
ATOM     15  N   UNL     1       1.976   7.913  20.811  0.00  0.00    +0.000 NA
ATOM     16  H   UNL     1       2.089   8.286  21.757  0.00  0.00    +0.000 HD
BRANCH  15  17
ATOM     17  C   UNL     1       1.944   6.441  20.909  0.00  0.00    +0.000 C 
BRANCH  17  18
ATOM     18  C   UNL     1       2.667   5.791  19.725  0.00  0.00    +0.000 C 
ATOM     19  O   UNL     1       3.479   6.442  19.064  0.00  0.00    +0.000 OA
ATOM     20  N   UNL     1       2.393   4.472  19.442  0.00  0.00    +0.000 N 
ATOM     21  C   UNL     1       3.133   3.738  18.435  0.00  0.00    +0.000 C 
ATOM     22  C   UNL     1       2.077   2.901  17.745  0.00  0.00    +0.000 C 
ATOM     23  F   UNL     1       2.604   1.748  17.274  0.00  0.00    +0.000 F 
ATOM     24  C   UNL     1       1.058   2.597  18.836  0.00  0.00    +0.000 C 
ATOM     25  C   UNL     1       1.211   3.722  19.870  0.00  0.00    +0.000 C 
BRANCH  25  26
ATOM     26  C   UNL     1       1.368   3.151  21.226  0.00  0.00    +0.000 C 
ATOM     27  N   UNL     1       1.499   2.710  22.291  0.00  0.00    +0.000 NA
ENDBRANCH  25  26
ENDBRANCH  17  18
ENDBRANCH  15  17
ENDBRANCH   8  15
TORSDOF 5
ENDMDL
MODEL 5
REMARK VINA RESULT:      -6.6      4.382      9.318
REMARK  Name = 
REMARK  5 active torsions:
REMARK  status: ('A' for Active; 'I' for Inactive)
REMARK    1  A    between atoms: C_2  and  C_3
REMARK    2  A    between atoms: C_10  and  N_11
REMARK    3  A    between atoms: N_11  and  C_12
REMARK    4  A    between atoms: C_12  and  C_13
REMARK    5  A    between atoms: C_20  and  C_21
REMARK                            x       y       z     vdW  Elec       q    Type
REMARK                         _______ _______ _______ _____ _____    ______ ____
ROOT
ATOM      1  C   UNL     1       3.048   3.992  18.671  0.00  0.00    +0.000 A 
ATOM      2  C   UNL     1       3.645   4.877  17.784  0.00  0.00    +0.000 A 
ATOM      3  C   UNL     1       3.384   6.244  17.906  0.00  0.00    +0.000 A 
ATOM      4  C   UNL     1       2.539   6.722  18.911  0.00  0.00    +0.000 A 
ATOM      5  N   UNL     1       2.286   8.076  19.033  0.00  0.00    +0.000 N 
ATOM      6  C   UNL     1       1.950   8.640  20.338  0.00  0.00    +0.000 C 
ATOM      7  C   UNL     1       0.549   9.250  20.328  0.00  0.00    +0.000 C 
ATOM      8  C   UNL     1       0.345  10.235  19.160  0.00  0.00    +0.000 C 
ATOM      9  C   UNL     1       0.666   9.485  17.856  0.00  0.00    +0.000 C 
ATOM     10  C   UNL     1       2.081   8.911  17.854  0.00  0.00    +0.000 C 
ATOM     11  N   UNL     1       1.983   5.861  19.791  0.00  0.00    +0.000 NA
ATOM     12  C   UNL     1       2.232   4.531  19.651  0.00  0.00    +0.000 A 
ENDROOT
BRANCH   1  14
ATOM     13  N   UNL     1       3.445   1.437  18.518  0.00  0.00    +0.000 NA
ATOM     14  C   UNL     1       3.267   2.586  18.583  0.00  0.00    +0.000 C 
ENDBRANCH   1  14
BRANCH   8  15
ATOM     15  N   UNL     1       1.114  11.488  19.365  0.00  0.00    +0.000 NA
ATOM     16  H   UNL     1       1.120  12.036  18.501  0.00  0.00    +0.000 HD
BRANCH  15  17
ATOM     17  C   UNL     1       0.516  12.323  20.423  0.00  0.00    +0.000 C 
BRANCH  17  18
ATOM     18  C   UNL     1      -0.973  12.572  20.158  0.00  0.00    +0.000 C 
ATOM     19  O   UNL     1      -1.352  12.915  19.036  0.00  0.00    +0.000 OA
ATOM     20  N   UNL     1      -1.857  12.383  21.196  0.00  0.00    +0.000 N 
ATOM     21  C   UNL     1      -3.291  12.455  20.999  0.00  0.00    +0.000 C 
ATOM     22  C   UNL     1      -3.792  13.176  22.233  0.00  0.00    +0.000 C 
ATOM     23  F   UNL     1      -5.047  12.783  22.547  0.00  0.00    +0.000 F 
ATOM     24  C   UNL     1      -2.828  12.758  23.337  0.00  0.00    +0.000 C 
ATOM     25  C   UNL     1      -1.527  12.365  22.622  0.00  0.00    +0.000 C 
BRANCH  25  26
ATOM     26  C   UNL     1      -1.077  11.031  23.078  0.00  0.00    +0.000 C 
ATOM     27  N   UNL     1      -0.732   9.980  23.429  0.00  0.00    +0.000 NA
ENDBRANCH  25  26
ENDBRANCH  17  18
ENDBRANCH  15  17
ENDBRANCH   8  15
TORSDOF 5
ENDMDL
MODEL 6
REMARK VINA RESULT:      -6.6      4.796     10.150
REMARK  Name = 
REMARK  5 active torsions:
REMARK  status: ('A' for Active; 'I' for Inactive)
REMARK    1  A    between atoms: C_2  and  C_3
REMARK    2  A    between atoms: C_10  and  N_11
REMARK    3  A    between atoms: N_11  and  C_12
REMARK    4  A    between atoms: C_12  and  C_13
REMARK    5  A    between atoms: C_20  and  C_21
REMARK                            x       y       z     vdW  Elec       q    Type
REMARK                         _______ _______ _______ _____ _____    ______ ____
ROOT
ATOM      1  C   UNL     1       2.546   4.882  18.884  0.00  0.00    +0.000 A 
ATOM      2  C   UNL     1       2.867   6.038  18.186  0.00  0.00    +0.000 A 
ATOM      3  C   UNL     1       2.522   7.279  18.726  0.00  0.00    +0.000 A 
ATOM      4  C   UNL     1       1.868   7.364  19.958  0.00  0.00    +0.000 A 
ATOM      5  N   UNL     1       1.532   8.593  20.493  0.00  0.00    +0.000 N 
ATOM      6  C   UNL     1       1.428   8.754  21.941  0.00  0.00    +0.000 C 
ATOM      7  C   UNL     1       0.009   9.147  22.350  0.00  0.00    +0.000 C 
ATOM      8  C   UNL     1      -0.516  10.359  21.557  0.00  0.00    +0.000 C 
ATOM      9  C   UNL     1      -0.412  10.018  20.060  0.00  0.00    +0.000 C 
ATOM     10  C   UNL     1       1.015   9.664  19.648  0.00  0.00    +0.000 C 
ATOM     11  N   UNL     1       1.583   6.239  20.649  0.00  0.00    +0.000 NA
ATOM     12  C   UNL     1       1.909   5.036  20.104  0.00  0.00    +0.000 A 
ENDROOT
BRANCH   1  14
ATOM     13  N   UNL     1       3.124   2.533  17.958  0.00  0.00    +0.000 NA
ATOM     14  C   UNL     1       2.860   3.589  18.372  0.00  0.00    +0.000 C 
ENDBRANCH   1  14
BRANCH   8  15
ATOM     15  N   UNL     1       0.169  11.612  21.960  0.00  0.00    +0.000 NA
ATOM     16  H   UNL     1       1.137  11.601  21.628  0.00  0.00    +0.000 HD
BRANCH  15  17
ATOM     17  C   UNL     1      -0.490  12.799  21.383  0.00  0.00    +0.000 C 
BRANCH  17  18
ATOM     18  C   UNL     1      -0.561  13.943  22.401  0.00  0.00    +0.000 C 
ATOM     19  O   UNL     1       0.441  14.621  22.639  0.00  0.00    +0.000 OA
ATOM     20  N   UNL     1      -1.768  14.192  23.013  0.00  0.00    +0.000 N 
ATOM     21  C   UNL     1      -1.962  15.340  23.877  0.00  0.00    +0.000 C 
ATOM     22  C   UNL     1      -2.814  14.803  25.008  0.00  0.00    +0.000 C 
ATOM     23  F   UNL     1      -3.604  15.774  25.521  0.00  0.00    +0.000 F 
ATOM     24  C   UNL     1      -3.674  13.725  24.360  0.00  0.00    +0.000 C 
ATOM     25  C   UNL     1      -2.892  13.261  23.123  0.00  0.00    +0.000 C 
BRANCH  25  26
ATOM     26  C   UNL     1      -3.764  13.288  21.928  0.00  0.00    +0.000 C 
ATOM     27  N   UNL     1      -4.439  13.310  20.984  0.00  0.00    +0.000 NA
ENDBRANCH  25  26
ENDBRANCH  17  18
ENDBRANCH  15  17
ENDBRANCH   8  15
TORSDOF 5
ENDMDL
MODEL 7
REMARK VINA RESULT:      -6.6      4.953      9.218
REMARK  Name = 
REMARK  5 active torsions:
REMARK  status: ('A' for Active; 'I' for Inactive)
REMARK    1  A    between atoms: C_2  and  C_3
REMARK    2  A    between atoms: C_10  and  N_11
REMARK    3  A    between atoms: N_11  and  C_12
REMARK    4  A    between atoms: C_12  and  C_13
REMARK    5  A    between atoms: C_20  and  C_21
REMARK                            x       y       z     vdW  Elec       q    Type
REMARK                         _______ _______ _______ _____ _____    ______ ____
ROOT
ATOM      1  C   UNL     1       5.705   5.501  17.687  0.00  0.00    +0.000 A 
ATOM      2  C   UNL     1       4.790   4.927  18.558  0.00  0.00    +0.000 A 
ATOM      3  C   UNL     1       3.626   5.627  18.882  0.00  0.00    +0.000 A 
ATOM      4  C   UNL     1       3.375   6.887  18.333  0.00  0.00    +0.000 A 
ATOM      5  N   UNL     1       2.220   7.576  18.651  0.00  0.00    +0.000 N 
ATOM      6  C   UNL     1       1.654   8.529  17.699  0.00  0.00    +0.000 C 
ATOM      7  C   UNL     1       1.637   9.942  18.280  0.00  0.00    +0.000 C 
ATOM      8  C   UNL     1       0.976   9.996  19.672  0.00  0.00    +0.000 C 
ATOM      9  C   UNL     1       1.717   8.999  20.579  0.00  0.00    +0.000 C 
ATOM     10  C   UNL     1       1.699   7.581  20.013  0.00  0.00    +0.000 C 
ATOM     11  N   UNL     1       4.254   7.430  17.462  0.00  0.00    +0.000 NA
ATOM     12  C   UNL     1       5.392   6.745  17.168  0.00  0.00    +0.000 A 
ENDROOT
BRANCH   1  14
ATOM     13  N   UNL     1       7.910   4.301  17.044  0.00  0.00    +0.000 NA
ATOM     14  C   UNL     1       6.917   4.837  17.335  0.00  0.00    +0.000 C 
ENDBRANCH   1  14
BRANCH   8  15
ATOM     15  N   UNL     1      -0.491   9.790  19.586  0.00  0.00    +0.000 NA
ATOM     16  H   UNL     1      -0.919   9.959  20.500  0.00  0.00    +0.000 HD
BRANCH  15  17
ATOM     17  C   UNL     1      -1.112  10.717  18.621  0.00  0.00    +0.000 C 
BRANCH  17  18
ATOM     18  C   UNL     1      -2.170  11.595  19.299  0.00  0.00    +0.000 C 
ATOM     19  O   UNL     1      -1.887  12.227  20.320  0.00  0.00    +0.000 OA
ATOM     20  N   UNL     1      -3.419  11.665  18.726  0.00  0.00    +0.000 N 
ATOM     21  C   UNL     1      -4.433  12.578  19.215  0.00  0.00    +0.000 C 
ATOM     22  C   UNL     1      -5.714  11.775  19.139  0.00  0.00    +0.000 C 
ATOM     23  F   UNL     1      -6.779  12.580  18.925  0.00  0.00    +0.000 F 
ATOM     24  C   UNL     1      -5.515  10.851  17.943  0.00  0.00    +0.000 C 
ATOM     25  C   UNL     1      -3.994  10.704  17.784  0.00  0.00    +0.000 C 
BRANCH  25  26
ATOM     26  C   UNL     1      -3.599  10.981  16.385  0.00  0.00    +0.000 C 
ATOM     27  N   UNL     1      -3.281  11.192  15.289  0.00  0.00    +0.000 NA
ENDBRANCH  25  26
ENDBRANCH  17  18
ENDBRANCH  15  17
ENDBRANCH   8  15
TORSDOF 5
ENDMDL
MODEL 8
REMARK VINA RESULT:      -6.5      4.134      8.592
REMARK  Name = 
REMARK  5 active torsions:
REMARK  status: ('A' for Active; 'I' for Inactive)
REMARK    1  A    between atoms: C_2  and  C_3
REMARK    2  A    between atoms: C_10  and  N_11
REMARK    3  A    between atoms: N_11  and  C_12
REMARK    4  A    between atoms: C_12  and  C_13
REMARK    5  A    between atoms: C_20  and  C_21
REMARK                            x       y       z     vdW  Elec       q    Type
REMARK                         _______ _______ _______ _____ _____    ______ ____
ROOT
ATOM      1  C   UNL     1       2.531   4.967  18.984  0.00  0.00    +0.000 A 
ATOM      2  C   UNL     1       2.834   6.119  18.272  0.00  0.00    +0.000 A 
ATOM      3  C   UNL     1       2.480   7.362  18.803  0.00  0.00    +0.000 A 
ATOM      4  C   UNL     1       1.836   7.452  20.040  0.00  0.00    +0.000 A 
ATOM      5  N   UNL     1       1.492   8.682  20.566  0.00  0.00    +0.000 N 
ATOM      6  C   UNL     1       1.398   8.856  22.013  0.00  0.00    +0.000 C 
ATOM      7  C   UNL     1      -0.021   9.238  22.431  0.00  0.00    +0.000 C 
ATOM      8  C   UNL     1      -0.566  10.437  21.630  0.00  0.00    +0.000 C 
ATOM      9  C   UNL     1      -0.471  10.083  20.136  0.00  0.00    +0.000 C 
ATOM     10  C   UNL     1       0.956   9.740  19.715  0.00  0.00    +0.000 C 
ATOM     11  N   UNL     1       1.568   6.330  20.743  0.00  0.00    +0.000 NA
ATOM     12  C   UNL     1       1.903   5.126  20.207  0.00  0.00    +0.000 A 
ENDROOT
BRANCH   1  14
ATOM     13  N   UNL     1       3.116   2.618  18.064  0.00  0.00    +0.000 NA
ATOM     14  C   UNL     1       2.855   3.673  18.481  0.00  0.00    +0.000 C 
ENDBRANCH   1  14
BRANCH   8  15
ATOM     15  N   UNL     1       0.109  11.701  22.016  0.00  0.00    +0.000 NA
ATOM     16  H   UNL     1       1.124  11.573  21.992  0.00  0.00    +0.000 HD
BRANCH  15  17
ATOM     17  C   UNL     1      -0.227  12.799  21.090  0.00  0.00    +0.000 C 
BRANCH  17  18
ATOM     18  C   UNL     1       0.440  14.110  21.519  0.00  0.00    +0.000 C 
ATOM     19  O   UNL     1       0.314  14.518  22.676  0.00  0.00    +0.000 OA
ATOM     20  N   UNL     1       1.186  14.794  20.586  0.00  0.00    +0.000 N 
ATOM     21  C   UNL     1       1.966  15.963  20.941  0.00  0.00    +0.000 C 
ATOM     22  C   UNL     1       1.769  16.902  19.771  0.00  0.00    +0.000 C 
ATOM     23  F   UNL     1       2.850  17.696  19.598  0.00  0.00    +0.000 F 
ATOM     24  C   UNL     1       1.605  15.982  18.566  0.00  0.00    +0.000 C 
ATOM     25  C   UNL     1       1.100  14.647  19.132  0.00  0.00    +0.000 C 
BRANCH  25  26
ATOM     26  C   UNL     1       1.933  13.532  18.630  0.00  0.00    +0.000 C 
ATOM     27  N   UNL     1       2.588  12.654  18.246  0.00  0.00    +0.000 NA
ENDBRANCH  25  26
ENDBRANCH  17  18
ENDBRANCH  15  17
ENDBRANCH   8  15
TORSDOF 5
ENDMDL
MODEL 9
REMARK VINA RESULT:      -6.4      4.334      8.797
REMARK  Name = 
REMARK  5 active torsions:
REMARK  status: ('A' for Active; 'I' for Inactive)
REMARK    1  A    between atoms: C_2  and  C_3
REMARK    2  A    between atoms: C_10  and  N_11
REMARK    3  A    between atoms: N_11  and  C_12
REMARK    4  A    between atoms: C_12  and  C_13
REMARK    5  A    between atoms: C_20  and  C_21
REMARK                            x       y       z     vdW  Elec       q    Type
REMARK                         _______ _______ _______ _____ _____    ______ ____
ROOT
ATOM      1  C   UNL     1       3.115   3.834  18.679  0.00  0.00    +0.000 A 
ATOM      2  C   UNL     1       3.832   4.793  17.977  0.00  0.00    +0.000 A 
ATOM      3  C   UNL     1       3.544   6.144  18.183  0.00  0.00    +0.000 A 
ATOM      4  C   UNL     1       2.555   6.533  19.089  0.00  0.00    +0.000 A 
ATOM      5  N   UNL     1       2.275   7.871  19.295  0.00  0.00    +0.000 N 
ATOM      6  C   UNL     1       1.742   8.314  20.581  0.00  0.00    +0.000 C 
ATOM      7  C   UNL     1       0.353   8.931  20.417  0.00  0.00    +0.000 C 
ATOM      8  C   UNL     1       0.320  10.021  19.327  0.00  0.00    +0.000 C 
ATOM      9  C   UNL     1       0.839   9.393  18.023  0.00  0.00    +0.000 C 
ATOM     10  C   UNL     1       2.243   8.812  18.181  0.00  0.00    +0.000 C 
ATOM     11  N   UNL     1       1.879   5.598  19.792  0.00  0.00    +0.000 NA
ATOM     12  C   UNL     1       2.157   4.285  19.570  0.00  0.00    +0.000 A 
ENDROOT
BRANCH   1  14
ATOM     13  N   UNL     1       3.549   1.303  18.339  0.00  0.00    +0.000 NA
ATOM     14  C   UNL     1       3.357   2.440  18.495  0.00  0.00    +0.000 C 
ENDBRANCH   1  14
BRANCH   8  15
ATOM     15  N   UNL     1       1.039  11.245  19.760  0.00  0.00    +0.000 NA
ATOM     16  H   UNL     1       1.911  10.987  20.230  0.00  0.00    +0.000 HD
BRANCH  15  17
ATOM     17  C   UNL     1       1.386  12.103  18.611  0.00  0.00    +0.000 C 
BRANCH  17  18
ATOM     18  C   UNL     1       0.464  13.324  18.533  0.00  0.00    +0.000 C 
ATOM     19  O   UNL     1      -0.658  13.220  18.033  0.00  0.00    +0.000 OA
ATOM     20  N   UNL     1       0.921  14.516  19.048  0.00  0.00    +0.000 N 
ATOM     21  C   UNL     1       0.066  15.682  19.146  0.00  0.00    +0.000 C 
ATOM     22  C   UNL     1       0.974  16.832  18.763  0.00  0.00    +0.000 C 
ATOM     23  F   UNL     1       0.600  17.972  19.388  0.00  0.00    +0.000 F 
ATOM     24  C   UNL     1       2.355  16.406  19.247  0.00  0.00    +0.000 C 
ATOM     25  C   UNL     1       2.319  14.871  19.299  0.00  0.00    +0.000 C 
BRANCH  25  26
ATOM     26  C   UNL     1       2.792  14.395  20.617  0.00  0.00    +0.000 C 
ATOM     27  N   UNL     1       3.160  14.011  21.649  0.00  0.00    +0.000 NA
ENDBRANCH  25  26
ENDBRANCH  17  18
ENDBRANCH  15  17
ENDBRANCH   8  15
TORSDOF 5
ENDMDL
