MODEL 1
REMARK VINA RESULT:      -8.4      0.000      0.000
REMARK  Name = 
REMARK  7 active torsions:
REMARK  status: ('A' for Active; 'I' for Inactive)
REMARK    1  A    between atoms: C_1  and  O_2
REMARK    2  A    between atoms: O_2  and  C_3
REMARK    3  A    between atoms: C_6  and  C_7
REMARK    4  A    between atoms: N_9  and  C_10
REMARK    5  A    between atoms: C_18  and  S_19
REMARK    6  A    between atoms: S_19  and  N_22
REMARK    7  A    between atoms: N_22  and  C_23
REMARK                            x       y       z     vdW  Elec       q    Type
REMARK                         _______ _______ _______ _____ _____    ______ ____
ROOT
ATOM      1  C   UNL     1       2.484   4.320  20.180  0.00  0.00    +0.000 A 
ATOM      2  C   UNL     1       2.268   5.470  20.948  0.00  0.00    +0.000 A 
ATOM      3  C   UNL     1       2.125   6.720  20.342  0.00  0.00    +0.000 A 
ATOM      4  C   UNL     1       2.194   6.851  18.953  0.00  0.00    +0.000 A 
ATOM      5  C   UNL     1       2.395   5.713  18.169  0.00  0.00    +0.000 A 
ATOM      6  C   UNL     1       2.524   4.448  18.782  0.00  0.00    +0.000 A 
ENDROOT
BRANCH   4   7
ATOM      7  C   UNL     1       2.021   8.220  18.393  0.00  0.00    +0.000 C 
ATOM      8  O   UNL     1       2.520   8.489  17.306  0.00  0.00    +0.000 OA
ATOM      9  N   UNL     1       1.253   9.104  19.116  0.00  0.00    +0.000 N 
ATOM     10  H   UNL     1       0.856   8.831  20.004  0.00  0.00    +0.000 HD
BRANCH   9  11
ATOM     11  C   UNL     1       0.938  10.440  18.599  0.00  0.00    +0.000 C 
ATOM     12  C   UNL     1      -0.400  10.414  17.853  0.00  0.00    +0.000 C 
ATOM     13  C   UNL     1      -1.637  10.332  18.744  0.00  0.00    +0.000 C 
ATOM     14  C   UNL     1      -2.144  11.698  19.196  0.00  0.00    +0.000 C 
ATOM     15  C   UNL     1      -1.223  12.450  20.150  0.00  0.00    +0.000 C 
ATOM     16  C   UNL     1       0.182  12.717  19.615  0.00  0.00    +0.000 C 
ATOM     17  C   UNL     1       1.094  11.494  19.707  0.00  0.00    +0.000 C 
ENDBRANCH   9  11
ENDBRANCH   4   7
BRANCH   6  18
ATOM     18  S   UNL     1       2.818   3.049  17.709  0.00  0.00    +0.000 S 
ATOM     19  O   UNL     1       2.371   1.869  18.424  0.00  0.00    +0.000 OA
ATOM     20  O   UNL     1       2.296   3.333  16.392  0.00  0.00    +0.000 OA
BRANCH  18  21
ATOM     21  N   UNL     1       4.496   2.977  17.572  0.00  0.00    +0.000 N 
ATOM     22  H   UNL     1       4.840   2.167  17.060  0.00  0.00    +0.000 HD
BRANCH  21  23
ATOM     23  C   UNL     1       5.266   4.167  17.586  0.00  0.00    +0.000 A 
ATOM     24  C   UNL     1       5.900   4.559  18.766  0.00  0.00    +0.000 A 
ATOM     25  C   UNL     1       6.672   5.724  18.793  0.00  0.00    +0.000 A 
ATOM     26  C   UNL     1       6.788   6.500  17.641  0.00  0.00    +0.000 A 
ATOM     27 BR   UNL     1       7.827   8.079  17.672  0.00  0.00    +0.000 Br
ATOM     28  C   UNL     1       6.145   6.118  16.463  0.00  0.00    +0.000 A 
ATOM     29  C   UNL     1       5.391   4.942  16.433  0.00  0.00    +0.000 A 
ENDBRANCH  21  23
ENDBRANCH  18  21
ENDBRANCH   6  18
BRANCH   1  31
ATOM     30  C   UNL     1       1.543   2.708  21.651  0.00  0.00    +0.000 C 
ATOM     31  O   UNL     1       2.588   3.080  20.748  0.00  0.00    +0.000 OA
ENDBRANCH   1  31
TORSDOF 6
ENDMDL
MODEL 2
REMARK VINA RESULT:      -8.2      0.433      1.074
REMARK  Name = 
REMARK  7 active torsions:
REMARK  status: ('A' for Active; 'I' for Inactive)
REMARK    1  A    between atoms: C_1  and  O_2
REMARK    2  A    between atoms: O_2  and  C_3
REMARK    3  A    between atoms: C_6  and  C_7
REMARK    4  A    between atoms: N_9  and  C_10
REMARK    5  A    between atoms: C_18  and  S_19
REMARK    6  A    between atoms: S_19  and  N_22
REMARK    7  A    between atoms: N_22  and  C_23
REMARK                            x       y       z     vdW  Elec       q    Type
REMARK                         _______ _______ _______ _____ _____    ______ ____
ROOT
ATOM      1  C   UNL     1       2.504   4.438  20.196  0.00  0.00    +0.000 A 
ATOM      2  C   UNL     1       2.287   5.617  20.919  0.00  0.00    +0.000 A 
ATOM      3  C   UNL     1       2.127   6.839  20.263  0.00  0.00    +0.000 A 
ATOM      4  C   UNL     1       2.180   6.914  18.869  0.00  0.00    +0.000 A 
ATOM      5  C   UNL     1       2.381   5.746  18.131  0.00  0.00    +0.000 A 
ATOM      6  C   UNL     1       2.527   4.508  18.794  0.00  0.00    +0.000 A 
ENDROOT
BRANCH   4   7
ATOM      7  C   UNL     1       1.990   8.257  18.255  0.00  0.00    +0.000 C 
ATOM      8  O   UNL     1       2.554   8.517  17.199  0.00  0.00    +0.000 OA
ATOM      9  N   UNL     1       1.135   9.127  18.894  0.00  0.00    +0.000 N 
ATOM     10  H   UNL     1       0.687   8.861  19.760  0.00  0.00    +0.000 HD
BRANCH   9  11
ATOM     11  C   UNL     1       0.801  10.432  18.315  0.00  0.00    +0.000 C 
ATOM     12  C   UNL     1      -0.708  10.679  18.407  0.00  0.00    +0.000 C 
ATOM     13  C   UNL     1      -1.223  11.028  19.800  0.00  0.00    +0.000 C 
ATOM     14  C   UNL     1      -1.163  12.521  20.107  0.00  0.00    +0.000 C 
ATOM     15  C   UNL     1       0.241  13.103  20.229  0.00  0.00    +0.000 C 
ATOM     16  C   UNL     1       1.122  12.926  18.994  0.00  0.00    +0.000 C 
ATOM     17  C   UNL     1       1.720  11.524  18.888  0.00  0.00    +0.000 C 
ENDBRANCH   9  11
ENDBRANCH   4   7
BRANCH   6  18
ATOM     18  S   UNL     1       2.821   3.069  17.776  0.00  0.00    +0.000 S 
ATOM     19  O   UNL     1       2.352   1.920  18.526  0.00  0.00    +0.000 OA
ATOM     20  O   UNL     1       2.320   3.311  16.442  0.00  0.00    +0.000 OA
BRANCH  18  21
ATOM     21  N   UNL     1       4.499   2.975  17.665  0.00  0.00    +0.000 N 
ATOM     22  H   UNL     1       4.841   2.154  17.168  0.00  0.00    +0.000 HD
BRANCH  21  23
ATOM     23  C   UNL     1       5.284   4.156  17.675  0.00  0.00    +0.000 A 
ATOM     24  C   UNL     1       5.422   4.896  16.500  0.00  0.00    +0.000 A 
ATOM     25  C   UNL     1       6.183   6.069  16.495  0.00  0.00    +0.000 A 
ATOM     26  C   UNL     1       6.818   6.481  17.665  0.00  0.00    +0.000 A 
ATOM     27 BR   UNL     1       7.853   8.063  17.664  0.00  0.00    +0.000 Br
ATOM     28  C   UNL     1       6.694   5.736  18.838  0.00  0.00    +0.000 A 
ATOM     29  C   UNL     1       5.915   4.576  18.846  0.00  0.00    +0.000 A 
ENDBRANCH  21  23
ENDBRANCH  18  21
ENDBRANCH   6  18
BRANCH   1  31
ATOM     30  C   UNL     1       1.521   2.815  21.627  0.00  0.00    +0.000 C 
ATOM     31  O   UNL     1       2.624   3.223  20.814  0.00  0.00    +0.000 OA
ENDBRANCH   1  31
TORSDOF 6
ENDMDL
MODEL 3
REMARK VINA RESULT:      -8.0      4.120      9.164
REMARK  Name = 
REMARK  7 active torsions:
REMARK  status: ('A' for Active; 'I' for Inactive)
REMARK    1  A    between atoms: C_1  and  O_2
REMARK    2  A    between atoms: O_2  and  C_3
REMARK    3  A    between atoms: C_6  and  C_7
REMARK    4  A    between atoms: N_9  and  C_10
REMARK    5  A    between atoms: C_18  and  S_19
REMARK    6  A    between atoms: S_19  and  N_22
REMARK    7  A    between atoms: N_22  and  C_23
REMARK                            x       y       z     vdW  Elec       q    Type
REMARK                         _______ _______ _______ _____ _____    ______ ____
ROOT
ATOM      1  C   UNL     1       0.786   9.642  19.013  0.00  0.00    +0.000 A 
ATOM      2  C   UNL     1       1.407   9.117  17.874  0.00  0.00    +0.000 A 
ATOM      3  C   UNL     1       2.248   8.006  17.965  0.00  0.00    +0.000 A 
ATOM      4  C   UNL     1       2.489   7.392  19.197  0.00  0.00    +0.000 A 
ATOM      5  C   UNL     1       1.867   7.893  20.342  0.00  0.00    +0.000 A 
ATOM      6  C   UNL     1       1.004   9.007  20.247  0.00  0.00    +0.000 A 
ENDROOT
BRANCH   4   7
ATOM      7  C   UNL     1       3.391   6.208  19.198  0.00  0.00    +0.000 C 
ATOM      8  O   UNL     1       3.241   5.342  20.053  0.00  0.00    +0.000 OA
ATOM      9  N   UNL     1       4.324   6.126  18.189  0.00  0.00    +0.000 N 
ATOM     10  H   UNL     1       4.402   6.863  17.502  0.00  0.00    +0.000 HD
BRANCH   9  11
ATOM     11  C   UNL     1       5.188   4.950  18.043  0.00  0.00    +0.000 C 
ATOM     12  C   UNL     1       4.615   4.003  16.985  0.00  0.00    +0.000 C 
ATOM     13  C   UNL     1       4.789   4.464  15.540  0.00  0.00    +0.000 C 
ATOM     14  C   UNL     1       6.115   4.025  14.925  0.00  0.00    +0.000 C 
ATOM     15  C   UNL     1       7.356   4.674  15.526  0.00  0.00    +0.000 C 
ATOM     16  C   UNL     1       7.536   4.458  17.027  0.00  0.00    +0.000 C 
ATOM     17  C   UNL     1       6.654   5.380  17.869  0.00  0.00    +0.000 C 
ENDBRANCH   9  11
ENDBRANCH   4   7
BRANCH   6  18
ATOM     18  S   UNL     1       0.281   9.609  21.766  0.00  0.00    +0.000 S 
ATOM     19  O   UNL     1      -0.944   8.862  21.975  0.00  0.00    +0.000 OA
ATOM     20  O   UNL     1       1.289   9.642  22.801  0.00  0.00    +0.000 OA
BRANCH  18  21
ATOM     21  N   UNL     1      -0.130  11.207  21.425  0.00  0.00    +0.000 N 
ATOM     22  H   UNL     1       0.305  11.581  20.583  0.00  0.00    +0.000 HD
BRANCH  21  23
ATOM     23  C   UNL     1      -1.376  11.732  21.853  0.00  0.00    +0.000 A 
ATOM     24  C   UNL     1      -1.746  11.611  23.193  0.00  0.00    +0.000 A 
ATOM     25  C   UNL     1      -2.965  12.133  23.634  0.00  0.00    +0.000 A 
ATOM     26  C   UNL     1      -3.817  12.756  22.723  0.00  0.00    +0.000 A 
ATOM     27 BR   UNL     1      -5.470  13.459  23.311  0.00  0.00    +0.000 Br
ATOM     28  C   UNL     1      -3.456  12.867  21.379  0.00  0.00    +0.000 A 
ATOM     29  C   UNL     1      -2.227  12.363  20.945  0.00  0.00    +0.000 A 
ENDBRANCH  21  23
ENDBRANCH  18  21
ENDBRANCH   6  18
BRANCH   1  31
ATOM     30  C   UNL     1      -1.172  10.572  18.039  0.00  0.00    +0.000 C 
ATOM     31  O   UNL     1      -0.072  10.705  18.944  0.00  0.00    +0.000 OA
ENDBRANCH   1  31
TORSDOF 6
ENDMDL
MODEL 4
REMARK VINA RESULT:      -8.0      2.736      3.374
REMARK  Name = 
REMARK  7 active torsions:
REMARK  status: ('A' for Active; 'I' for Inactive)
REMARK    1  A    between atoms: C_1  and  O_2
REMARK    2  A    between atoms: O_2  and  C_3
REMARK    3  A    between atoms: C_6  and  C_7
REMARK    4  A    between atoms: N_9  and  C_10
REMARK    5  A    between atoms: C_18  and  S_19
REMARK    6  A    between atoms: S_19  and  N_22
REMARK    7  A    between atoms: N_22  and  C_23
REMARK                            x       y       z     vdW  Elec       q    Type
REMARK                         _______ _______ _______ _____ _____    ______ ____
ROOT
ATOM      1  C   UNL     1       4.400   4.591  19.341  0.00  0.00    +0.000 A 
ATOM      2  C   UNL     1       3.005   4.685  19.412  0.00  0.00    +0.000 A 
ATOM      3  C   UNL     1       2.348   5.861  19.047  0.00  0.00    +0.000 A 
ATOM      4  C   UNL     1       3.067   6.974  18.604  0.00  0.00    +0.000 A 
ATOM      5  C   UNL     1       4.459   6.894  18.513  0.00  0.00    +0.000 A 
ATOM      6  C   UNL     1       5.122   5.699  18.866  0.00  0.00    +0.000 A 
ENDROOT
BRANCH   4   7
ATOM      7  C   UNL     1       2.283   8.182  18.228  0.00  0.00    +0.000 C 
ATOM      8  O   UNL     1       2.267   8.546  17.058  0.00  0.00    +0.000 OA
ATOM      9  N   UNL     1       1.565   8.802  19.226  0.00  0.00    +0.000 N 
ATOM     10  H   UNL     1       1.605   8.458  20.176  0.00  0.00    +0.000 HD
BRANCH   9  11
ATOM     11  C   UNL     1       0.681   9.935  18.938  0.00  0.00    +0.000 C 
ATOM     12  C   UNL     1      -0.530   9.911  19.876  0.00  0.00    +0.000 C 
ATOM     13  C   UNL     1      -0.246  10.339  21.313  0.00  0.00    +0.000 C 
ATOM     14  C   UNL     1      -0.365  11.845  21.526  0.00  0.00    +0.000 C 
ATOM     15  C   UNL     1       0.693  12.686  20.821  0.00  0.00    +0.000 C 
ATOM     16  C   UNL     1       0.750  12.514  19.305  0.00  0.00    +0.000 C 
ATOM     17  C   UNL     1       1.486  11.243  18.880  0.00  0.00    +0.000 C 
ENDBRANCH   9  11
ENDBRANCH   4   7
BRANCH   6  18
ATOM     18  S   UNL     1       6.906   5.694  18.759  0.00  0.00    +0.000 S 
ATOM     19  O   UNL     1       7.286   6.875  18.007  0.00  0.00    +0.000 OA
ATOM     20  O   UNL     1       7.467   5.466  20.071  0.00  0.00    +0.000 OA
BRANCH  18  21
ATOM     21  N   UNL     1       7.262   4.339  17.825  0.00  0.00    +0.000 N 
ATOM     22  H   UNL     1       7.437   3.492  18.364  0.00  0.00    +0.000 HD
BRANCH  21  23
ATOM     23  C   UNL     1       6.758   4.228  16.504  0.00  0.00    +0.000 A 
ATOM     24  C   UNL     1       7.440   4.849  15.457  0.00  0.00    +0.000 A 
ATOM     25  C   UNL     1       6.963   4.740  14.148  0.00  0.00    +0.000 A 
ATOM     26  C   UNL     1       5.793   4.025  13.899  0.00  0.00    +0.000 A 
ATOM     27 BR   UNL     1       5.140   3.878  12.131  0.00  0.00    +0.000 Br
ATOM     28  C   UNL     1       5.102   3.413  14.945  0.00  0.00    +0.000 A 
ATOM     29  C   UNL     1       5.592   3.505  16.250  0.00  0.00    +0.000 A 
ENDBRANCH  21  23
ENDBRANCH  18  21
ENDBRANCH   6  18
BRANCH   1  31
ATOM     30  C   UNL     1       4.283   2.239  19.660  0.00  0.00    +0.000 C 
ATOM     31  O   UNL     1       5.064   3.437  19.654  0.00  0.00    +0.000 OA
ENDBRANCH   1  31
TORSDOF 6
ENDMDL
MODEL 5
REMARK VINA RESULT:      -7.9      4.325      9.363
REMARK  Name = 
REMARK  7 active torsions:
REMARK  status: ('A' for Active; 'I' for Inactive)
REMARK    1  A    between atoms: C_1  and  O_2
REMARK    2  A    between atoms: O_2  and  C_3
REMARK    3  A    between atoms: C_6  and  C_7
REMARK    4  A    between atoms: N_9  and  C_10
REMARK    5  A    between atoms: C_18  and  S_19
REMARK    6  A    between atoms: S_19  and  N_22
REMARK    7  A    between atoms: N_22  and  C_23
REMARK                            x       y       z     vdW  Elec       q    Type
REMARK                         _______ _______ _______ _____ _____    ______ ____
ROOT
ATOM      1  C   UNL     1       1.198  11.313  18.751  0.00  0.00    +0.000 A 
ATOM      2  C   UNL     1       1.828  10.311  18.002  0.00  0.00    +0.000 A 
ATOM      3  C   UNL     1       1.986   9.024  18.518  0.00  0.00    +0.000 A 
ATOM      4  C   UNL     1       1.520   8.704  19.796  0.00  0.00    +0.000 A 
ATOM      5  C   UNL     1       0.877   9.686  20.552  0.00  0.00    +0.000 A 
ATOM      6  C   UNL     1       0.702  10.983  20.023  0.00  0.00    +0.000 A 
ENDROOT
BRANCH   4   7
ATOM      7  C   UNL     1       1.724   7.305  20.261  0.00  0.00    +0.000 C 
ATOM      8  O   UNL     1       1.133   6.914  21.261  0.00  0.00    +0.000 OA
ATOM      9  N   UNL     1       2.539   6.500  19.497  0.00  0.00    +0.000 N 
ATOM     10  H   UNL     1       2.997   6.867  18.675  0.00  0.00    +0.000 HD
BRANCH   9  11
ATOM     11  C   UNL     1       2.720   5.079  19.813  0.00  0.00    +0.000 C 
ATOM     12  C   UNL     1       1.584   4.254  19.200  0.00  0.00    +0.000 C 
ATOM     13  C   UNL     1       1.669   4.056  17.689  0.00  0.00    +0.000 C 
ATOM     14  C   UNL     1       2.498   2.840  17.289  0.00  0.00    +0.000 C 
ATOM     15  C   UNL     1       3.989   2.942  17.592  0.00  0.00    +0.000 C 
ATOM     16  C   UNL     1       4.334   3.178  19.060  0.00  0.00    +0.000 C 
ATOM     17  C   UNL     1       4.155   4.636  19.485  0.00  0.00    +0.000 C 
ENDBRANCH   9  11
ENDBRANCH   4   7
BRANCH   6  18
ATOM     18  S   UNL     1      -0.095  12.191  21.072  0.00  0.00    +0.000 S 
ATOM     19  O   UNL     1      -0.967  11.458  21.970  0.00  0.00    +0.000 OA
ATOM     20  O   UNL     1       0.897  13.093  21.611  0.00  0.00    +0.000 OA
BRANCH  18  21
ATOM     21  N   UNL     1      -1.057  13.085  20.018  0.00  0.00    +0.000 N 
ATOM     22  H   UNL     1      -0.535  13.661  19.360  0.00  0.00    +0.000 HD
BRANCH  21  23
ATOM     23  C   UNL     1      -2.349  12.621  19.659  0.00  0.00    +0.000 A 
ATOM     24  C   UNL     1      -2.495  11.805  18.537  0.00  0.00    +0.000 A 
ATOM     25  C   UNL     1      -3.759  11.330  18.176  0.00  0.00    +0.000 A 
ATOM     26  C   UNL     1      -4.872  11.693  18.931  0.00  0.00    +0.000 A 
ATOM     27 BR   UNL     1      -6.585  11.059  18.446  0.00  0.00    +0.000 Br
ATOM     28  C   UNL     1      -4.731  12.520  20.047  0.00  0.00    +0.000 A 
ATOM     29  C   UNL     1      -3.464  12.976  20.418  0.00  0.00    +0.000 A 
ENDBRANCH  21  23
ENDBRANCH  18  21
ENDBRANCH   6  18
BRANCH   1  31
ATOM     30  C   UNL     1       2.153  13.404  18.149  0.00  0.00    +0.000 C 
ATOM     31  O   UNL     1       0.996  12.570  18.252  0.00  0.00    +0.000 OA
ENDBRANCH   1  31
TORSDOF 6
ENDMDL
MODEL 6
REMARK VINA RESULT:      -7.8      4.082      9.162
REMARK  Name = 
REMARK  7 active torsions:
REMARK  status: ('A' for Active; 'I' for Inactive)
REMARK    1  A    between atoms: C_1  and  O_2
REMARK    2  A    between atoms: O_2  and  C_3
REMARK    3  A    between atoms: C_6  and  C_7
REMARK    4  A    between atoms: N_9  and  C_10
REMARK    5  A    between atoms: C_18  and  S_19
REMARK    6  A    between atoms: S_19  and  N_22
REMARK    7  A    between atoms: N_22  and  C_23
REMARK                            x       y       z     vdW  Elec       q    Type
REMARK                         _______ _______ _______ _____ _____    ______ ____
ROOT
ATOM      1  C   UNL     1       0.862   9.878  19.186  0.00  0.00    +0.000 A 
ATOM      2  C   UNL     1       1.604   9.436  18.083  0.00  0.00    +0.000 A 
ATOM      3  C   UNL     1       2.355   8.261  18.149  0.00  0.00    +0.000 A 
ATOM      4  C   UNL     1       2.384   7.497  19.319  0.00  0.00    +0.000 A 
ATOM      5  C   UNL     1       1.640   7.915  20.425  0.00  0.00    +0.000 A 
ATOM      6  C   UNL     1       0.869   9.095  20.352  0.00  0.00    +0.000 A 
ENDROOT
BRANCH   4   7
ATOM      7  C   UNL     1       3.205   6.255  19.296  0.00  0.00    +0.000 C 
ATOM      8  O   UNL     1       2.918   5.335  20.052  0.00  0.00    +0.000 OA
ATOM      9  N   UNL     1       4.224   6.190  18.373  0.00  0.00    +0.000 N 
ATOM     10  H   UNL     1       4.415   6.975  17.765  0.00  0.00    +0.000 HD
BRANCH   9  11
ATOM     11  C   UNL     1       5.021   4.972  18.202  0.00  0.00    +0.000 C 
ATOM     12  C   UNL     1       4.503   4.167  17.005  0.00  0.00    +0.000 C 
ATOM     13  C   UNL     1       4.858   4.740  15.636  0.00  0.00    +0.000 C 
ATOM     14  C   UNL     1       6.210   4.261  15.116  0.00  0.00    +0.000 C 
ATOM     15  C   UNL     1       7.420   4.761  15.897  0.00  0.00    +0.000 C 
ATOM     16  C   UNL     1       7.426   4.400  17.381  0.00  0.00    +0.000 C 
ATOM     17  C   UNL     1       6.522   5.306  18.215  0.00  0.00    +0.000 C 
ENDBRANCH   9  11
ENDBRANCH   4   7
BRANCH   6  18
ATOM     18  S   UNL     1      -0.022   9.578  21.824  0.00  0.00    +0.000 S 
ATOM     19  O   UNL     1      -0.851   8.451  22.204  0.00  0.00    +0.000 OA
ATOM     20  O   UNL     1       0.901  10.147  22.781  0.00  0.00    +0.000 OA
BRANCH  18  21
ATOM     21  N   UNL     1      -1.031  10.824  21.309  0.00  0.00    +0.000 N 
ATOM     22  H   UNL     1      -1.725  10.542  20.618  0.00  0.00    +0.000 HD
BRANCH  21  23
ATOM     23  C   UNL     1      -1.309  11.920  22.164  0.00  0.00    +0.000 A 
ATOM     24  C   UNL     1      -0.490  13.049  22.119  0.00  0.00    +0.000 A 
ATOM     25  C   UNL     1      -0.757  14.143  22.947  0.00  0.00    +0.000 A 
ATOM     26  C   UNL     1      -1.832  14.089  23.832  0.00  0.00    +0.000 A 
ATOM     27 BR   UNL     1      -2.195  15.562  24.960  0.00  0.00    +0.000 Br
ATOM     28  C   UNL     1      -2.645  12.956  23.890  0.00  0.00    +0.000 A 
ATOM     29  C   UNL     1      -2.389  11.873  23.045  0.00  0.00    +0.000 A 
ENDBRANCH  21  23
ENDBRANCH  18  21
ENDBRANCH   6  18
BRANCH   1  31
ATOM     30  C   UNL     1       0.742  12.202  18.706  0.00  0.00    +0.000 C 
ATOM     31  O   UNL     1       0.088  11.004  19.133  0.00  0.00    +0.000 OA
ENDBRANCH   1  31
TORSDOF 6
ENDMDL
MODEL 7
REMARK VINA RESULT:      -7.8      0.991      1.442
REMARK  Name = 
REMARK  7 active torsions:
REMARK  status: ('A' for Active; 'I' for Inactive)
REMARK    1  A    between atoms: C_1  and  O_2
REMARK    2  A    between atoms: O_2  and  C_3
REMARK    3  A    between atoms: C_6  and  C_7
REMARK    4  A    between atoms: N_9  and  C_10
REMARK    5  A    between atoms: C_18  and  S_19
REMARK    6  A    between atoms: S_19  and  N_22
REMARK    7  A    between atoms: N_22  and  C_23
REMARK                            x       y       z     vdW  Elec       q    Type
REMARK                         _______ _______ _______ _____ _____    ______ ____
ROOT
ATOM      1  C   UNL     1       2.672   4.353  20.516  0.00  0.00    +0.000 A 
ATOM      2  C   UNL     1       1.933   5.440  20.998  0.00  0.00    +0.000 A 
ATOM      3  C   UNL     1       1.813   6.613  20.251  0.00  0.00    +0.000 A 
ATOM      4  C   UNL     1       2.430   6.731  19.003  0.00  0.00    +0.000 A 
ATOM      5  C   UNL     1       3.161   5.652  18.499  0.00  0.00    +0.000 A 
ATOM      6  C   UNL     1       3.268   4.460  19.248  0.00  0.00    +0.000 A 
ENDROOT
BRANCH   4   7
ATOM      7  C   UNL     1       2.242   8.014  18.273  0.00  0.00    +0.000 C 
ATOM      8  O   UNL     1       2.859   8.206  17.232  0.00  0.00    +0.000 OA
ATOM      9  N   UNL     1       1.329   8.905  18.790  0.00  0.00    +0.000 N 
ATOM     10  H   UNL     1       0.838   8.696  19.648  0.00  0.00    +0.000 HD
BRANCH   9  11
ATOM     11  C   UNL     1       0.996  10.149  18.089  0.00  0.00    +0.000 C 
ATOM     12  C   UNL     1      -0.524  10.333  18.035  0.00  0.00    +0.000 C 
ATOM     13  C   UNL     1      -1.173  10.756  19.350  0.00  0.00    +0.000 C 
ATOM     14  C   UNL     1      -1.198  12.268  19.549  0.00  0.00    +0.000 C 
ATOM     15  C   UNL     1       0.165  12.921  19.745  0.00  0.00    +0.000 C 
ATOM     16  C   UNL     1       1.158  12.698  18.606  0.00  0.00    +0.000 C 
ATOM     17  C   UNL     1       1.817  11.320  18.655  0.00  0.00    +0.000 C 
ENDBRANCH   9  11
ENDBRANCH   4   7
BRANCH   6  18
ATOM     18  S   UNL     1       4.254   3.144  18.549  0.00  0.00    +0.000 S 
ATOM     19  O   UNL     1       5.232   2.772  19.552  0.00  0.00    +0.000 OA
ATOM     20  O   UNL     1       3.384   2.138  17.984  0.00  0.00    +0.000 OA
BRANCH  18  21
ATOM     21  N   UNL     1       5.067   3.872  17.266  0.00  0.00    +0.000 N 
ATOM     22  H   UNL     1       4.619   3.745  16.360  0.00  0.00    +0.000 HD
BRANCH  21  23
ATOM     23  C   UNL     1       5.872   5.019  17.487  0.00  0.00    +0.000 A 
ATOM     24  C   UNL     1       5.658   6.164  16.719  0.00  0.00    +0.000 A 
ATOM     25  C   UNL     1       6.435   7.306  16.932  0.00  0.00    +0.000 A 
ATOM     26  C   UNL     1       7.436   7.286  17.901  0.00  0.00    +0.000 A 
ATOM     27 BR   UNL     1       8.494   8.826  18.190  0.00  0.00    +0.000 Br
ATOM     28  C   UNL     1       7.661   6.139  18.662  0.00  0.00    +0.000 A 
ATOM     29  C   UNL     1       6.869   5.005  18.462  0.00  0.00    +0.000 A 
ENDBRANCH  21  23
ENDBRANCH  18  21
ENDBRANCH   6  18
BRANCH   1  31
ATOM     30  C   UNL     1       1.540   2.596  21.646  0.00  0.00    +0.000 C 
ATOM     31  O   UNL     1       2.771   3.180  21.211  0.00  0.00    +0.000 OA
ENDBRANCH   1  31
TORSDOF 6
ENDMDL
MODEL 8
REMARK VINA RESULT:      -7.8      1.413      1.696
REMARK  Name = 
REMARK  7 active torsions:
REMARK  status: ('A' for Active; 'I' for Inactive)
REMARK    1  A    between atoms: C_1  and  O_2
REMARK    2  A    between atoms: O_2  and  C_3
REMARK    3  A    between atoms: C_6  and  C_7
REMARK    4  A    between atoms: N_9  and  C_10
REMARK    5  A    between atoms: C_18  and  S_19
REMARK    6  A    between atoms: S_19  and  N_22
REMARK    7  A    between atoms: N_22  and  C_23
REMARK                            x       y       z     vdW  Elec       q    Type
REMARK                         _______ _______ _______ _____ _____    ______ ____
ROOT
ATOM      1  C   UNL     1       3.448   4.660  19.639  0.00  0.00    +0.000 A 
ATOM      2  C   UNL     1       2.735   5.527  20.475  0.00  0.00    +0.000 A 
ATOM      3  C   UNL     1       2.283   6.763  20.009  0.00  0.00    +0.000 A 
ATOM      4  C   UNL     1       2.533   7.165  18.694  0.00  0.00    +0.000 A 
ATOM      5  C   UNL     1       3.231   6.308  17.841  0.00  0.00    +0.000 A 
ATOM      6  C   UNL     1       3.673   5.051  18.309  0.00  0.00    +0.000 A 
ENDROOT
BRANCH   4   7
ATOM      7  C   UNL     1       2.007   8.494  18.280  0.00  0.00    +0.000 C 
ATOM      8  O   UNL     1       2.227   8.898  17.145  0.00  0.00    +0.000 OA
ATOM      9  N   UNL     1       1.244   9.183  19.197  0.00  0.00    +0.000 N 
ATOM     10  H   UNL     1       1.084   8.802  20.119  0.00  0.00    +0.000 HD
BRANCH   9  11
ATOM     11  C   UNL     1       0.595  10.451  18.850  0.00  0.00    +0.000 C 
ATOM     12  C   UNL     1      -0.728  10.591  19.609  0.00  0.00    +0.000 C 
ATOM     13  C   UNL     1      -0.592  10.924  21.092  0.00  0.00    +0.000 C 
ATOM     14  C   UNL     1      -0.508  12.423  21.366  0.00  0.00    +0.000 C 
ATOM     15  C   UNL     1       0.757  13.106  20.859  0.00  0.00    +0.000 C 
ATOM     16  C   UNL     1       1.006  12.973  19.358  0.00  0.00    +0.000 C 
ATOM     17  C   UNL     1       1.592  11.615  18.972  0.00  0.00    +0.000 C 
ENDBRANCH   9  11
ENDBRANCH   4   7
BRANCH   6  18
ATOM     18  S   UNL     1       4.593   4.033  17.163  0.00  0.00    +0.000 S 
ATOM     19  O   UNL     1       4.136   2.670  17.350  0.00  0.00    +0.000 OA
ATOM     20  O   UNL     1       4.556   4.632  15.848  0.00  0.00    +0.000 OA
BRANCH  18  21
ATOM     21  N   UNL     1       6.185   4.132  17.706  0.00  0.00    +0.000 N 
ATOM     22  H   UNL     1       6.757   3.322  17.476  0.00  0.00    +0.000 HD
BRANCH  21  23
ATOM     23  C   UNL     1       6.807   5.396  17.873  0.00  0.00    +0.000 A 
ATOM     24  C   UNL     1       7.601   5.625  18.997  0.00  0.00    +0.000 A 
ATOM     25  C   UNL     1       8.230   6.861  19.171  0.00  0.00    +0.000 A 
ATOM     26  C   UNL     1       8.042   7.867  18.225  0.00  0.00    +0.000 A 
ATOM     27 BR   UNL     1       8.886   9.543  18.457  0.00  0.00    +0.000 Br
ATOM     28  C   UNL     1       7.238   7.646  17.106  0.00  0.00    +0.000 A 
ATOM     29  C   UNL     1       6.628   6.402  16.924  0.00  0.00    +0.000 A 
ENDBRANCH  21  23
ENDBRANCH  18  21
ENDBRANCH   6  18
BRANCH   1  31
ATOM     30  C   UNL     1       2.873   2.596  20.667  0.00  0.00    +0.000 C 
ATOM     31  O   UNL     1       3.866   3.429  20.061  0.00  0.00    +0.000 OA
ENDBRANCH   1  31
TORSDOF 6
ENDMDL
MODEL 9
REMARK VINA RESULT:      -7.8      4.311      8.849
REMARK  Name = 
REMARK  7 active torsions:
REMARK  status: ('A' for Active; 'I' for Inactive)
REMARK    1  A    between atoms: C_1  and  O_2
REMARK    2  A    between atoms: O_2  and  C_3
REMARK    3  A    between atoms: C_6  and  C_7
REMARK    4  A    between atoms: N_9  and  C_10
REMARK    5  A    between atoms: C_18  and  S_19
REMARK    6  A    between atoms: S_19  and  N_22
REMARK    7  A    between atoms: N_22  and  C_23
REMARK                            x       y       z     vdW  Elec       q    Type
REMARK                         _______ _______ _______ _____ _____    ______ ____
ROOT
ATOM      1  C   UNL     1      -0.354  11.007  22.272  0.00  0.00    +0.000 A 
ATOM      2  C   UNL     1      -0.527   9.632  22.472  0.00  0.00    +0.000 A 
ATOM      3  C   UNL     1       0.156   8.703  21.685  0.00  0.00    +0.000 A 
ATOM      4  C   UNL     1       1.029   9.124  20.678  0.00  0.00    +0.000 A 
ATOM      5  C   UNL     1       1.224  10.492  20.473  0.00  0.00    +0.000 A 
ATOM      6  C   UNL     1       0.546  11.431  21.280  0.00  0.00    +0.000 A 
ENDROOT
BRANCH   4   7
ATOM      7  C   UNL     1       1.720   8.064  19.894  0.00  0.00    +0.000 C 
ATOM      8  O   UNL     1       2.225   8.351  18.815  0.00  0.00    +0.000 OA
ATOM      9  N   UNL     1       1.802   6.813  20.462  0.00  0.00    +0.000 N 
ATOM     10  H   UNL     1       1.376   6.629  21.360  0.00  0.00    +0.000 HD
BRANCH   9  11
ATOM     11  C   UNL     1       2.551   5.730  19.817  0.00  0.00    +0.000 C 
ATOM     12  C   UNL     1       2.697   4.545  20.778  0.00  0.00    +0.000 C 
ATOM     13  C   UNL     1       1.432   3.716  20.980  0.00  0.00    +0.000 C 
ATOM     14  C   UNL     1       1.273   2.602  19.949  0.00  0.00    +0.000 C 
ATOM     15  C   UNL     1       1.016   3.069  18.522  0.00  0.00    +0.000 C 
ATOM     16  C   UNL     1       2.091   3.985  17.939  0.00  0.00    +0.000 C 
ATOM     17  C   UNL     1       1.969   5.428  18.427  0.00  0.00    +0.000 C 
ENDBRANCH   9  11
ENDBRANCH   4   7
BRANCH   6  18
ATOM     18  S   UNL     1       0.822  13.160  20.925  0.00  0.00    +0.000 S 
ATOM     19  O   UNL     1       1.149  13.801  22.184  0.00  0.00    +0.000 OA
ATOM     20  O   UNL     1       1.721  13.284  19.800  0.00  0.00    +0.000 OA
BRANCH  18  21
ATOM     21  N   UNL     1      -0.683  13.726  20.422  0.00  0.00    +0.000 N 
ATOM     22  H   UNL     1      -0.767  14.741  20.412  0.00  0.00    +0.000 HD
BRANCH  21  23
ATOM     23  C   UNL     1      -1.476  12.956  19.534  0.00  0.00    +0.000 A 
ATOM     24  C   UNL     1      -0.948  12.574  18.300  0.00  0.00    +0.000 A 
ATOM     25  C   UNL     1      -1.713  11.806  17.418  0.00  0.00    +0.000 A 
ATOM     26  C   UNL     1      -3.011  11.442  17.770  0.00  0.00    +0.000 A 
ATOM     27 BR   UNL     1      -4.053  10.408  16.579  0.00  0.00    +0.000 Br
ATOM     28  C   UNL     1      -3.547  11.834  18.998  0.00  0.00    +0.000 A 
ATOM     29  C   UNL     1      -2.773  12.584  19.887  0.00  0.00    +0.000 A 
ENDBRANCH  21  23
ENDBRANCH  18  21
ENDBRANCH   6  18
BRANCH   1  31
ATOM     30  C   UNL     1      -2.367  11.707  23.324  0.00  0.00    +0.000 C 
ATOM     31  O   UNL     1      -0.981  11.936  23.056  0.00  0.00    +0.000 OA
ENDBRANCH   1  31
TORSDOF 6
ENDMDL
