MODEL 1
REMARK VINA RESULT:      -7.3      0.000      0.000
REMARK  Name = 
REMARK  6 active torsions:
REMARK  status: ('A' for Active; 'I' for Inactive)
REMARK    1  A    between atoms: C_1  and  C_2
REMARK    2  A    between atoms: C_2  and  C_3
REMARK    3  A    between atoms: C_8  and  C_10
REMARK    4  A    between atoms: C_10  and  N_11
REMARK    5  A    between atoms: N_11  and  C_12
REMARK    6  A    between atoms: C_15  and  C_16
REMARK                            x       y       z     vdW  Elec       q    Type
REMARK                         _______ _______ _______ _____ _____    ______ ____
ROOT
ATOM      1  C   UNL     1       6.703   4.382  13.949  0.00  0.00    +0.000 A 
ATOM      2  N   UNL     1       7.501   5.372  14.291  0.00  0.00    +0.000 NA
ATOM      3  N   UNL     1       7.204   5.869  15.548  0.00  0.00    +0.000 NA
ATOM      4  C   UNL     1       6.222   5.205  16.121  0.00  0.00    +0.000 A 
ATOM      5  N   UNL     1       5.723   5.522  17.368  0.00  0.00    +0.000 N 
ATOM      6  C   UNL     1       4.814   4.771  18.079  0.00  0.00    +0.000 C 
ATOM      7  O   UNL     1       4.327   3.694  17.738  0.00  0.00    +0.000 OA
ATOM      8  S   UNL     1       5.570   3.958  15.161  0.00  0.00    +0.000 S 
ATOM      9  H   UNL     1       6.110   6.367  17.767  0.00  0.00    +0.000 HD
ENDROOT
BRANCH   1  11
ATOM     10  C   UNL     1       5.279   3.356  12.193  0.00  0.00    +0.000 C 
ATOM     11  C   UNL     1       6.699   3.676  12.634  0.00  0.00    +0.000 C 
ENDBRANCH   1  11
BRANCH   6  12
ATOM     12  C   UNL     1       4.380   5.405  19.402  0.00  0.00    +0.000 C 
BRANCH  12  13
ATOM     13  N   UNL     1       2.933   5.642  19.396  0.00  0.00    +0.000 N 
ATOM     14  H   UNL     1       2.457   5.192  20.180  0.00  0.00    +0.000 HD
BRANCH  13  15
ATOM     15  C   UNL     1       2.468   6.954  19.223  0.00  0.00    +0.000 A 
ATOM     16  C   UNL     1       2.457   7.620  17.992  0.00  0.00    +0.000 A 
ATOM     17  C   UNL     1       1.882   8.889  17.853  0.00  0.00    +0.000 A 
ATOM     18  C   UNL     1       1.270   9.517  18.941  0.00  0.00    +0.000 A 
ATOM     19  C   UNL     1       0.612  10.855  18.788  0.00  0.00    +0.000 C 
ATOM     20  C   UNL     1       1.262   8.860  20.173  0.00  0.00    +0.000 A 
ATOM     21  C   UNL     1       1.845   7.593  20.306  0.00  0.00    +0.000 A 
ENDBRANCH  13  15
ENDBRANCH  12  13
ENDBRANCH   6  12
TORSDOF 4
ENDMDL
MODEL 2
REMARK VINA RESULT:      -7.2      3.733      7.340
REMARK  Name = 
REMARK  6 active torsions:
REMARK  status: ('A' for Active; 'I' for Inactive)
REMARK    1  A    between atoms: C_1  and  C_2
REMARK    2  A    between atoms: C_2  and  C_3
REMARK    3  A    between atoms: C_8  and  C_10
REMARK    4  A    between atoms: C_10  and  N_11
REMARK    5  A    between atoms: N_11  and  C_12
REMARK    6  A    between atoms: C_15  and  C_16
REMARK                            x       y       z     vdW  Elec       q    Type
REMARK                         _______ _______ _______ _____ _____    ______ ____
ROOT
ATOM      1  C   UNL     1       2.829   3.395  20.179  0.00  0.00    +0.000 A 
ATOM      2  N   UNL     1       3.678   2.443  20.507  0.00  0.00    +0.000 NA
ATOM      3  N   UNL     1       4.909   2.611  19.897  0.00  0.00    +0.000 NA
ATOM      4  C   UNL     1       4.952   3.707  19.168  0.00  0.00    +0.000 A 
ATOM      5  N   UNL     1       6.061   4.086  18.440  0.00  0.00    +0.000 N 
ATOM      6  C   UNL     1       6.219   5.291  17.794  0.00  0.00    +0.000 C 
ATOM      7  O   UNL     1       5.421   6.228  17.784  0.00  0.00    +0.000 OA
ATOM      8  S   UNL     1       3.494   4.587  19.145  0.00  0.00    +0.000 S 
ATOM      9  H   UNL     1       6.808   3.403  18.435  0.00  0.00    +0.000 HD
ENDROOT
BRANCH   1  11
ATOM     10  C   UNL     1       1.160   2.672  21.868  0.00  0.00    +0.000 C 
ATOM     11  C   UNL     1       1.399   3.473  20.597  0.00  0.00    +0.000 C 
ENDBRANCH   1  11
BRANCH   6  12
ATOM     12  C   UNL     1       7.521   5.408  16.998  0.00  0.00    +0.000 C 
BRANCH  12  13
ATOM     13  N   UNL     1       7.245   5.924  15.654  0.00  0.00    +0.000 N 
ATOM     14  H   UNL     1       8.009   6.493  15.286  0.00  0.00    +0.000 HD
BRANCH  13  15
ATOM     15  C   UNL     1       6.777   5.033  14.675  0.00  0.00    +0.000 A 
ATOM     16  C   UNL     1       5.546   4.373  14.750  0.00  0.00    +0.000 A 
ATOM     17  C   UNL     1       5.078   3.579  13.696  0.00  0.00    +0.000 A 
ATOM     18  C   UNL     1       5.819   3.449  12.519  0.00  0.00    +0.000 A 
ATOM     19  C   UNL     1       5.302   2.638  11.368  0.00  0.00    +0.000 C 
ATOM     20  C   UNL     1       7.044   4.113  12.424  0.00  0.00    +0.000 A 
ATOM     21  C   UNL     1       7.509   4.899  13.486  0.00  0.00    +0.000 A 
ENDBRANCH  13  15
ENDBRANCH  12  13
ENDBRANCH   6  12
TORSDOF 4
ENDMDL
MODEL 3
REMARK VINA RESULT:      -7.1      0.248      1.125
REMARK  Name = 
REMARK  6 active torsions:
REMARK  status: ('A' for Active; 'I' for Inactive)
REMARK    1  A    between atoms: C_1  and  C_2
REMARK    2  A    between atoms: C_2  and  C_3
REMARK    3  A    between atoms: C_8  and  C_10
REMARK    4  A    between atoms: C_10  and  N_11
REMARK    5  A    between atoms: N_11  and  C_12
REMARK    6  A    between atoms: C_15  and  C_16
REMARK                            x       y       z     vdW  Elec       q    Type
REMARK                         _______ _______ _______ _____ _____    ______ ____
ROOT
ATOM      1  C   UNL     1       6.716   4.351  13.907  0.00  0.00    +0.000 A 
ATOM      2  N   UNL     1       7.709   5.128  14.285  0.00  0.00    +0.000 NA
ATOM      3  N   UNL     1       7.508   5.649  15.552  0.00  0.00    +0.000 NA
ATOM      4  C   UNL     1       6.392   5.209  16.095  0.00  0.00    +0.000 A 
ATOM      5  N   UNL     1       5.954   5.600  17.343  0.00  0.00    +0.000 N 
ATOM      6  C   UNL     1       4.887   5.056  18.022  0.00  0.00    +0.000 C 
ATOM      7  O   UNL     1       4.177   4.125  17.646  0.00  0.00    +0.000 OA
ATOM      8  S   UNL     1       5.495   4.164  15.093  0.00  0.00    +0.000 S 
ATOM      9  H   UNL     1       6.513   6.327  17.770  0.00  0.00    +0.000 HD
ENDROOT
BRANCH   1  11
ATOM     10  C   UNL     1       5.120   3.390  12.265  0.00  0.00    +0.000 C 
ATOM     11  C   UNL     1       6.578   3.696  12.573  0.00  0.00    +0.000 C 
ENDBRANCH   1  11
BRANCH   6  12
ATOM     12  C   UNL     1       4.582   5.740  19.356  0.00  0.00    +0.000 C 
BRANCH  12  13
ATOM     13  N   UNL     1       3.137   5.738  19.604  0.00  0.00    +0.000 N 
ATOM     14  H   UNL     1       2.892   5.310  20.498  0.00  0.00    +0.000 HD
BRANCH  13  15
ATOM     15  C   UNL     1       2.421   6.930  19.414  0.00  0.00    +0.000 A 
ATOM     16  C   UNL     1       1.712   7.581  20.430  0.00  0.00    +0.000 A 
ATOM     17  C   UNL     1       1.105   8.825  20.214  0.00  0.00    +0.000 A 
ATOM     18  C   UNL     1       1.218   9.468  18.980  0.00  0.00    +0.000 A 
ATOM     19  C   UNL     1       0.610  10.821  18.757  0.00  0.00    +0.000 C 
ATOM     20  C   UNL     1       1.933   8.836  17.961  0.00  0.00    +0.000 A 
ATOM     21  C   UNL     1       2.532   7.589  18.181  0.00  0.00    +0.000 A 
ENDBRANCH  13  15
ENDBRANCH  12  13
ENDBRANCH   6  12
TORSDOF 4
ENDMDL
MODEL 4
REMARK VINA RESULT:      -6.9      3.779      7.243
REMARK  Name = 
REMARK  6 active torsions:
REMARK  status: ('A' for Active; 'I' for Inactive)
REMARK    1  A    between atoms: C_1  and  C_2
REMARK    2  A    between atoms: C_2  and  C_3
REMARK    3  A    between atoms: C_8  and  C_10
REMARK    4  A    between atoms: C_10  and  N_11
REMARK    5  A    between atoms: N_11  and  C_12
REMARK    6  A    between atoms: C_15  and  C_16
REMARK                            x       y       z     vdW  Elec       q    Type
REMARK                         _______ _______ _______ _____ _____    ______ ____
ROOT
ATOM      1  C   UNL     1       2.341   3.230  19.542  0.00  0.00    +0.000 A 
ATOM      2  N   UNL     1       2.556   2.120  18.866  0.00  0.00    +0.000 NA
ATOM      3  N   UNL     1       3.714   2.187  18.110  0.00  0.00    +0.000 NA
ATOM      4  C   UNL     1       4.348   3.329  18.280  0.00  0.00    +0.000 A 
ATOM      5  N   UNL     1       5.515   3.650  17.619  0.00  0.00    +0.000 N 
ATOM      6  C   UNL     1       6.301   4.751  17.874  0.00  0.00    +0.000 C 
ATOM      7  O   UNL     1       6.111   5.603  18.741  0.00  0.00    +0.000 OA
ATOM      8  S   UNL     1       3.566   4.409  19.339  0.00  0.00    +0.000 S 
ATOM      9  H   UNL     1       5.795   2.974  16.919  0.00  0.00    +0.000 HD
ENDROOT
BRANCH   1  11
ATOM     10  C   UNL     1       1.234   2.779  21.717  0.00  0.00    +0.000 C 
ATOM     11  C   UNL     1       1.149   3.519  20.391  0.00  0.00    +0.000 C 
ENDBRANCH   1  11
BRANCH   6  12
ATOM     12  C   UNL     1       7.498   4.895  16.932  0.00  0.00    +0.000 C 
BRANCH  12  13
ATOM     13  N   UNL     1       7.125   5.697  15.762  0.00  0.00    +0.000 N 
ATOM     14  H   UNL     1       7.821   6.409  15.535  0.00  0.00    +0.000 HD
BRANCH  13  15
ATOM     15  C   UNL     1       6.699   5.034  14.602  0.00  0.00    +0.000 A 
ATOM     16  C   UNL     1       7.521   4.802  13.493  0.00  0.00    +0.000 A 
ATOM     17  C   UNL     1       7.080   4.040  12.404  0.00  0.00    +0.000 A 
ATOM     18  C   UNL     1       5.810   3.459  12.409  0.00  0.00    +0.000 A 
ATOM     19  C   UNL     1       5.349   2.604  11.267  0.00  0.00    +0.000 C 
ATOM     20  C   UNL     1       4.983   3.671  13.514  0.00  0.00    +0.000 A 
ATOM     21  C   UNL     1       5.428   4.440  14.596  0.00  0.00    +0.000 A 
ENDBRANCH  13  15
ENDBRANCH  12  13
ENDBRANCH   6  12
TORSDOF 4
ENDMDL
MODEL 5
REMARK VINA RESULT:      -6.7      3.158      4.232
REMARK  Name = 
REMARK  6 active torsions:
REMARK  status: ('A' for Active; 'I' for Inactive)
REMARK    1  A    between atoms: C_1  and  C_2
REMARK    2  A    between atoms: C_2  and  C_3
REMARK    3  A    between atoms: C_8  and  C_10
REMARK    4  A    between atoms: C_10  and  N_11
REMARK    5  A    between atoms: N_11  and  C_12
REMARK    6  A    between atoms: C_15  and  C_16
REMARK                            x       y       z     vdW  Elec       q    Type
REMARK                         _______ _______ _______ _____ _____    ______ ____
ROOT
ATOM      1  C   UNL     1       7.469   6.817  17.992  0.00  0.00    +0.000 A 
ATOM      2  N   UNL     1       7.896   6.246  19.099  0.00  0.00    +0.000 NA
ATOM      3  N   UNL     1       7.194   5.090  19.391  0.00  0.00    +0.000 NA
ATOM      4  C   UNL     1       6.296   4.811  18.469  0.00  0.00    +0.000 A 
ATOM      5  N   UNL     1       5.451   3.723  18.542  0.00  0.00    +0.000 N 
ATOM      6  C   UNL     1       4.610   3.296  17.540  0.00  0.00    +0.000 C 
ATOM      7  O   UNL     1       4.496   3.790  16.418  0.00  0.00    +0.000 OA
ATOM      8  S   UNL     1       6.218   5.951  17.206  0.00  0.00    +0.000 S 
ATOM      9  H   UNL     1       5.512   3.207  19.411  0.00  0.00    +0.000 HD
ENDROOT
BRANCH   1  11
ATOM     10  C   UNL     1       8.603   8.962  18.517  0.00  0.00    +0.000 C 
ATOM     11  C   UNL     1       7.953   8.114  17.434  0.00  0.00    +0.000 C 
ENDBRANCH   1  11
BRANCH   6  12
ATOM     12  C   UNL     1       3.730   2.106  17.927  0.00  0.00    +0.000 C 
BRANCH  12  13
ATOM     13  N   UNL     1       2.342   2.543  18.106  0.00  0.00    +0.000 N 
ATOM     14  H   UNL     1       1.737   1.800  18.458  0.00  0.00    +0.000 HD
BRANCH  13  15
ATOM     15  C   UNL     1       2.099   3.743  18.793  0.00  0.00    +0.000 A 
ATOM     16  C   UNL     1       2.086   3.852  20.188  0.00  0.00    +0.000 A 
ATOM     17  C   UNL     1       1.947   5.093  20.822  0.00  0.00    +0.000 A 
ATOM     18  C   UNL     1       1.848   6.268  20.074  0.00  0.00    +0.000 A 
ATOM     19  C   UNL     1       1.746   7.604  20.747  0.00  0.00    +0.000 C 
ATOM     20  C   UNL     1       1.872   6.176  18.681  0.00  0.00    +0.000 A 
ATOM     21  C   UNL     1       2.004   4.931  18.053  0.00  0.00    +0.000 A 
ENDBRANCH  13  15
ENDBRANCH  12  13
ENDBRANCH   6  12
TORSDOF 4
ENDMDL
MODEL 6
REMARK VINA RESULT:      -6.7      3.590      8.394
REMARK  Name = 
REMARK  6 active torsions:
REMARK  status: ('A' for Active; 'I' for Inactive)
REMARK    1  A    between atoms: C_1  and  C_2
REMARK    2  A    between atoms: C_2  and  C_3
REMARK    3  A    between atoms: C_8  and  C_10
REMARK    4  A    between atoms: C_10  and  N_11
REMARK    5  A    between atoms: N_11  and  C_12
REMARK    6  A    between atoms: C_15  and  C_16
REMARK                            x       y       z     vdW  Elec       q    Type
REMARK                         _______ _______ _______ _____ _____    ______ ____
ROOT
ATOM      1  C   UNL     1       0.090  10.866  21.670  0.00  0.00    +0.000 A 
ATOM      2  N   UNL     1       0.401  10.362  22.846  0.00  0.00    +0.000 NA
ATOM      3  N   UNL     1       1.035   9.137  22.735  0.00  0.00    +0.000 NA
ATOM      4  C   UNL     1       1.214   8.786  21.479  0.00  0.00    +0.000 A 
ATOM      5  N   UNL     1       1.801   7.595  21.103  0.00  0.00    +0.000 N 
ATOM      6  C   UNL     1       2.157   7.250  19.819  0.00  0.00    +0.000 C 
ATOM      7  O   UNL     1       2.039   7.947  18.813  0.00  0.00    +0.000 OA
ATOM      8  S   UNL     1       0.596   9.900  20.349  0.00  0.00    +0.000 S 
ATOM      9  H   UNL     1       1.998   6.969  21.873  0.00  0.00    +0.000 HD
ENDROOT
BRANCH   1  11
ATOM     10  C   UNL     1      -1.068  12.778  22.749  0.00  0.00    +0.000 C 
ATOM     11  C   UNL     1      -0.666  12.130  21.433  0.00  0.00    +0.000 C 
ENDBRANCH   1  11
BRANCH   6  12
ATOM     12  C   UNL     1       2.719   5.833  19.687  0.00  0.00    +0.000 C 
BRANCH  12  13
ATOM     13  N   UNL     1       4.132   5.885  19.297  0.00  0.00    +0.000 N 
ATOM     14  H   UNL     1       4.744   5.425  19.972  0.00  0.00    +0.000 HD
BRANCH  13  15
ATOM     15  C   UNL     1       4.481   5.523  17.987  0.00  0.00    +0.000 A 
ATOM     16  C   UNL     1       4.851   6.442  16.999  0.00  0.00    +0.000 A 
ATOM     17  C   UNL     1       5.295   6.020  15.739  0.00  0.00    +0.000 A 
ATOM     18  C   UNL     1       5.411   4.660  15.444  0.00  0.00    +0.000 A 
ATOM     19  C   UNL     1       5.930   4.202  14.114  0.00  0.00    +0.000 C 
ATOM     20  C   UNL     1       5.058   3.731  16.425  0.00  0.00    +0.000 A 
ATOM     21  C   UNL     1       4.607   4.160  17.679  0.00  0.00    +0.000 A 
ENDBRANCH  13  15
ENDBRANCH  12  13
ENDBRANCH   6  12
TORSDOF 4
ENDMDL
MODEL 7
REMARK VINA RESULT:      -6.7      4.908      8.973
REMARK  Name = 
REMARK  6 active torsions:
REMARK  status: ('A' for Active; 'I' for Inactive)
REMARK    1  A    between atoms: C_1  and  C_2
REMARK    2  A    between atoms: C_2  and  C_3
REMARK    3  A    between atoms: C_8  and  C_10
REMARK    4  A    between atoms: C_10  and  N_11
REMARK    5  A    between atoms: N_11  and  C_12
REMARK    6  A    between atoms: C_15  and  C_16
REMARK                            x       y       z     vdW  Elec       q    Type
REMARK                         _______ _______ _______ _____ _____    ______ ____
ROOT
ATOM      1  C   UNL     1      -0.755  11.435  22.636  0.00  0.00    +0.000 A 
ATOM      2  N   UNL     1      -0.229  10.489  23.387  0.00  0.00    +0.000 NA
ATOM      3  N   UNL     1       0.485   9.569  22.638  0.00  0.00    +0.000 NA
ATOM      4  C   UNL     1       0.504   9.882  21.360  0.00  0.00    +0.000 A 
ATOM      5  N   UNL     1       1.129   9.109  20.402  0.00  0.00    +0.000 N 
ATOM      6  C   UNL     1       1.317   9.466  19.086  0.00  0.00    +0.000 C 
ATOM      7  O   UNL     1       0.990  10.529  18.560  0.00  0.00    +0.000 OA
ATOM      8  S   UNL     1      -0.371  11.292  20.974  0.00  0.00    +0.000 S 
ATOM      9  H   UNL     1       1.492   8.231  20.750  0.00  0.00    +0.000 HD
ENDROOT
BRANCH   1  11
ATOM     10  C   UNL     1      -3.074  12.321  22.638  0.00  0.00    +0.000 C 
ATOM     11  C   UNL     1      -1.644  12.534  23.113  0.00  0.00    +0.000 C 
ENDBRANCH   1  11
BRANCH   6  12
ATOM     12  C   UNL     1       1.973   8.379  18.232  0.00  0.00    +0.000 C 
BRANCH  12  13
ATOM     13  N   UNL     1       2.715   7.446  19.087  0.00  0.00    +0.000 N 
ATOM     14  H   UNL     1       2.854   7.804  20.033  0.00  0.00    +0.000 HD
BRANCH  13  15
ATOM     15  C   UNL     1       2.312   6.103  19.122  0.00  0.00    +0.000 A 
ATOM     16  C   UNL     1       1.798   5.474  20.262  0.00  0.00    +0.000 A 
ATOM     17  C   UNL     1       1.309   4.163  20.214  0.00  0.00    +0.000 A 
ATOM     18  C   UNL     1       1.292   3.452  19.012  0.00  0.00    +0.000 A 
ATOM     19  C   UNL     1       0.728   2.064  18.945  0.00  0.00    +0.000 C 
ATOM     20  C   UNL     1       1.790   4.070  17.864  0.00  0.00    +0.000 A 
ATOM     21  C   UNL     1       2.284   5.379  17.920  0.00  0.00    +0.000 A 
ENDBRANCH  13  15
ENDBRANCH  12  13
ENDBRANCH   6  12
TORSDOF 4
ENDMDL
MODEL 8
REMARK VINA RESULT:      -6.6      5.829      6.603
REMARK  Name = 
REMARK  6 active torsions:
REMARK  status: ('A' for Active; 'I' for Inactive)
REMARK    1  A    between atoms: C_1  and  C_2
REMARK    2  A    between atoms: C_2  and  C_3
REMARK    3  A    between atoms: C_8  and  C_10
REMARK    4  A    between atoms: C_10  and  N_11
REMARK    5  A    between atoms: N_11  and  C_12
REMARK    6  A    between atoms: C_15  and  C_16
REMARK                            x       y       z     vdW  Elec       q    Type
REMARK                         _______ _______ _______ _____ _____    ______ ____
ROOT
ATOM      1  C   UNL     1       4.772   3.977  17.069  0.00  0.00    +0.000 A 
ATOM      2  N   UNL     1       4.587   4.511  15.880  0.00  0.00    +0.000 NA
ATOM      3  N   UNL     1       5.290   5.694  15.727  0.00  0.00    +0.000 NA
ATOM      4  C   UNL     1       6.012   5.980  16.790  0.00  0.00    +0.000 A 
ATOM      5  N   UNL     1       6.783   7.119  16.895  0.00  0.00    +0.000 N 
ATOM      6  C   UNL     1       7.675   7.388  17.908  0.00  0.00    +0.000 C 
ATOM      7  O   UNL     1       7.950   6.656  18.858  0.00  0.00    +0.000 OA
ATOM      8  S   UNL     1       5.858   4.855  18.060  0.00  0.00    +0.000 S 
ATOM      9  H   UNL     1       6.676   7.765  16.124  0.00  0.00    +0.000 HD
ENDROOT
BRANCH   1  11
ATOM     10  C   UNL     1       2.591   2.907  17.579  0.00  0.00    +0.000 C 
ATOM     11  C   UNL     1       4.104   2.748  17.588  0.00  0.00    +0.000 C 
ENDBRANCH   1  11
BRANCH   6  12
ATOM     12  C   UNL     1       8.337   8.765  17.807  0.00  0.00    +0.000 C 
BRANCH  12  13
ATOM     13  N   UNL     1       8.892   9.153  19.107  0.00  0.00    +0.000 N 
ATOM     14  H   UNL     1       9.472   8.423  19.522  0.00  0.00    +0.000 HD
BRANCH  13  15
ATOM     15  C   UNL     1       9.514  10.406  19.224  0.00  0.00    +0.000 A 
ATOM     16  C   UNL     1       9.794  11.239  18.136  0.00  0.00    +0.000 A 
ATOM     17  C   UNL     1      10.318  12.525  18.317  0.00  0.00    +0.000 A 
ATOM     18  C   UNL     1      10.547  13.027  19.600  0.00  0.00    +0.000 A 
ATOM     19  C   UNL     1      11.064  14.420  19.803  0.00  0.00    +0.000 C 
ATOM     20  C   UNL     1      10.261  12.211  20.697  0.00  0.00    +0.000 A 
ATOM     21  C   UNL     1       9.744  10.923  20.508  0.00  0.00    +0.000 A 
ENDBRANCH  13  15
ENDBRANCH  12  13
ENDBRANCH   6  12
TORSDOF 4
ENDMDL
MODEL 9
REMARK VINA RESULT:      -6.5      3.140      4.100
REMARK  Name = 
REMARK  6 active torsions:
REMARK  status: ('A' for Active; 'I' for Inactive)
REMARK    1  A    between atoms: C_1  and  C_2
REMARK    2  A    between atoms: C_2  and  C_3
REMARK    3  A    between atoms: C_8  and  C_10
REMARK    4  A    between atoms: C_10  and  N_11
REMARK    5  A    between atoms: N_11  and  C_12
REMARK    6  A    between atoms: C_15  and  C_16
REMARK                            x       y       z     vdW  Elec       q    Type
REMARK                         _______ _______ _______ _____ _____    ______ ____
ROOT
ATOM      1  C   UNL     1       7.547   6.925  17.970  0.00  0.00    +0.000 A 
ATOM      2  N   UNL     1       7.958   6.342  19.077  0.00  0.00    +0.000 NA
ATOM      3  N   UNL     1       7.249   5.186  19.351  0.00  0.00    +0.000 NA
ATOM      4  C   UNL     1       6.361   4.919  18.416  0.00  0.00    +0.000 A 
ATOM      5  N   UNL     1       5.511   3.834  18.469  0.00  0.00    +0.000 N 
ATOM      6  C   UNL     1       4.680   3.420  17.453  0.00  0.00    +0.000 C 
ATOM      7  O   UNL     1       4.581   3.924  16.335  0.00  0.00    +0.000 OA
ATOM      8  S   UNL     1       6.301   6.071  17.163  0.00  0.00    +0.000 S 
ATOM      9  H   UNL     1       5.561   3.310  19.333  0.00  0.00    +0.000 HD
ENDROOT
BRANCH   1  11
ATOM     10  C   UNL     1       8.624   9.088  18.540  0.00  0.00    +0.000 C 
ATOM     11  C   UNL     1       8.042   8.225  17.431  0.00  0.00    +0.000 C 
ENDBRANCH   1  11
BRANCH   6  12
ATOM     12  C   UNL     1       3.791   2.229  17.819  0.00  0.00    +0.000 C 
BRANCH  12  13
ATOM     13  N   UNL     1       2.439   2.692  18.146  0.00  0.00    +0.000 N 
ATOM     14  H   UNL     1       1.873   1.971  18.596  0.00  0.00    +0.000 HD
BRANCH  13  15
ATOM     15  C   UNL     1       2.291   3.920  18.809  0.00  0.00    +0.000 A 
ATOM     16  C   UNL     1       2.102   5.141  18.151  0.00  0.00    +0.000 A 
ATOM     17  C   UNL     1       1.852   6.322  18.861  0.00  0.00    +0.000 A 
ATOM     18  C   UNL     1       1.751   6.307  20.254  0.00  0.00    +0.000 A 
ATOM     19  C   UNL     1       1.437   7.559  21.017  0.00  0.00    +0.000 C 
ATOM     20  C   UNL     1       1.924   5.094  20.923  0.00  0.00    +0.000 A 
ATOM     21  C   UNL     1       2.182   3.919  20.207  0.00  0.00    +0.000 A 
ENDBRANCH  13  15
ENDBRANCH  12  13
ENDBRANCH   6  12
TORSDOF 4
ENDMDL
