MODEL 1
REMARK VINA RESULT:      -8.6      0.000      0.000
REMARK  Name = 
REMARK  2 active torsions:
REMARK  status: ('A' for Active; 'I' for Inactive)
REMARK    1  A    between atoms: C_2  and  C_3
REMARK    2  A    between atoms: C_5  and  C_6
REMARK                            x       y       z     vdW  Elec       q    Type
REMARK                         _______ _______ _______ _____ _____    ______ ____
ROOT
ATOM      1  C   UNL     1       2.480   7.040  19.116  0.00  0.00    +0.000 A 
ATOM      2  N   UNL     1       3.440   6.656  18.261  0.00  0.00    +0.000 NA
ATOM      3  C   UNL     1       4.011   5.449  18.463  0.00  0.00    +0.000 A 
ATOM      4  C   UNL     1       3.566   4.582  19.497  0.00  0.00    +0.000 A 
ATOM      5  C   UNL     1       4.082   3.298  19.840  0.00  0.00    +0.000 A 
ATOM      6  C   UNL     1       3.448   2.478  20.774  0.00  0.00    +0.000 A 
ATOM      7  C   UNL     1       2.323   2.941  21.431  0.00  0.00    +0.000 A 
ATOM      8  C   UNL     1       1.875   4.240  21.185  0.00  0.00    +0.000 A 
ATOM      9  C   UNL     1       2.486   5.067  20.250  0.00  0.00    +0.000 A 
ATOM     10  N   UNL     1       1.984   6.287  20.106  0.00  0.00    +0.000 NA
ENDROOT
BRANCH   1  12
ATOM     11  O   UNL     1       2.381   9.145  18.054  0.00  0.00    +0.000 OA
ATOM     12  C   UNL     1       1.923   8.439  18.953  0.00  0.00    +0.000 C 
ATOM     13  N   UNL     1       0.905   8.899  19.827  0.00  0.00    +0.000 N 
ATOM     14  C   UNL     1       0.378  10.245  19.614  0.00  0.00    +0.000 C 
ATOM     15  C   UNL     1       0.895  11.237  20.658  0.00  0.00    +0.000 C 
ATOM     16  C   UNL     1       0.295  11.075  22.056  0.00  0.00    +0.000 C 
ATOM     17  C   UNL     1       0.413   9.674  22.652  0.00  0.00    +0.000 C 
ATOM     18  C   UNL     1      -0.487   8.668  21.940  0.00  0.00    +0.000 C 
ATOM     19  C   UNL     1       0.166   8.012  20.729  0.00  0.00    +0.000 C 
ENDBRANCH   1  12
BRANCH   3  20
ATOM     20  C   UNL     1       5.055   5.107  17.448  0.00  0.00    +0.000 A 
ATOM     21  C   UNL     1       4.686   4.719  16.138  0.00  0.00    +0.000 A 
ATOM     22  C   UNL     1       5.622   4.350  15.166  0.00  0.00    +0.000 A 
ATOM     23  C   UNL     1       6.977   4.443  15.443  0.00  0.00    +0.000 A 
ATOM     24  C   UNL     1       7.387   4.885  16.695  0.00  0.00    +0.000 A 
ATOM     25  C   UNL     1       6.447   5.189  17.695  0.00  0.00    +0.000 A 
ATOM     26 CL   UNL     1       7.130   5.621  19.231  0.00  0.00    +0.000 Cl
ENDBRANCH   3  20
TORSDOF 2
ENDMDL
MODEL 2
REMARK VINA RESULT:      -8.6      1.608      2.122
REMARK  Name = 
REMARK  2 active torsions:
REMARK  status: ('A' for Active; 'I' for Inactive)
REMARK    1  A    between atoms: C_2  and  C_3
REMARK    2  A    between atoms: C_5  and  C_6
REMARK                            x       y       z     vdW  Elec       q    Type
REMARK                         _______ _______ _______ _____ _____    ______ ____
ROOT
ATOM      1  C   UNL     1       2.014   7.082  20.274  0.00  0.00    +0.000 A 
ATOM      2  N   UNL     1       3.011   7.085  19.377  0.00  0.00    +0.000 NA
ATOM      3  C   UNL     1       3.458   5.890  18.935  0.00  0.00    +0.000 A 
ATOM      4  C   UNL     1       2.851   4.673  19.347  0.00  0.00    +0.000 A 
ATOM      5  C   UNL     1       3.224   3.345  18.984  0.00  0.00    +0.000 A 
ATOM      6  C   UNL     1       2.443   2.243  19.329  0.00  0.00    +0.000 A 
ATOM      7  C   UNL     1       1.305   2.430  20.094  0.00  0.00    +0.000 A 
ATOM      8  C   UNL     1       0.992   3.711  20.549  0.00  0.00    +0.000 A 
ATOM      9  C   UNL     1       1.752   4.823  20.206  0.00  0.00    +0.000 A 
ATOM     10  N   UNL     1       1.369   5.991  20.706  0.00  0.00    +0.000 NA
ENDROOT
BRANCH   1  12
ATOM     11  O   UNL     1       1.701   8.587  22.065  0.00  0.00    +0.000 OA
ATOM     12  C   UNL     1       1.593   8.419  20.850  0.00  0.00    +0.000 C 
ATOM     13  N   UNL     1       1.090   9.429  19.990  0.00  0.00    +0.000 N 
ATOM     14  C   UNL     1       0.724  10.712  20.586  0.00  0.00    +0.000 C 
ATOM     15  C   UNL     1      -0.794  10.884  20.696  0.00  0.00    +0.000 C 
ATOM     16  C   UNL     1      -1.512  11.138  19.369  0.00  0.00    +0.000 C 
ATOM     17  C   UNL     1      -1.242  10.104  18.278  0.00  0.00    +0.000 C 
ATOM     18  C   UNL     1       0.185  10.193  17.743  0.00  0.00    +0.000 C 
ATOM     19  C   UNL     1       1.188   9.358  18.531  0.00  0.00    +0.000 C 
ENDBRANCH   1  12
BRANCH   3  20
ATOM     20  C   UNL     1       4.556   6.000  17.926  0.00  0.00    +0.000 A 
ATOM     21  C   UNL     1       4.275   6.397  16.597  0.00  0.00    +0.000 A 
ATOM     22  C   UNL     1       5.261   6.475  15.607  0.00  0.00    +0.000 A 
ATOM     23  C   UNL     1       6.588   6.246  15.935  0.00  0.00    +0.000 A 
ATOM     24  C   UNL     1       6.919   5.921  17.245  0.00  0.00    +0.000 A 
ATOM     25  C   UNL     1       5.922   5.773  18.225  0.00  0.00    +0.000 A 
ATOM     26 CL   UNL     1       6.498   5.258  19.778  0.00  0.00    +0.000 Cl
ENDBRANCH   3  20
TORSDOF 2
ENDMDL
MODEL 3
REMARK VINA RESULT:      -8.5      1.954      2.610
REMARK  Name = 
REMARK  2 active torsions:
REMARK  status: ('A' for Active; 'I' for Inactive)
REMARK    1  A    between atoms: C_2  and  C_3
REMARK    2  A    between atoms: C_5  and  C_6
REMARK                            x       y       z     vdW  Elec       q    Type
REMARK                         _______ _______ _______ _____ _____    ______ ____
ROOT
ATOM      1  C   UNL     1       1.937   6.875  20.396  0.00  0.00    +0.000 A 
ATOM      2  N   UNL     1       3.133   6.889  19.788  0.00  0.00    +0.000 NA
ATOM      3  C   UNL     1       3.639   5.706  19.378  0.00  0.00    +0.000 A 
ATOM      4  C   UNL     1       2.905   4.498  19.517  0.00  0.00    +0.000 A 
ATOM      5  C   UNL     1       3.315   3.181  19.152  0.00  0.00    +0.000 A 
ATOM      6  C   UNL     1       2.434   2.100  19.191  0.00  0.00    +0.000 A 
ATOM      7  C   UNL     1       1.144   2.293  19.652  0.00  0.00    +0.000 A 
ATOM      8  C   UNL     1       0.766   3.553  20.117  0.00  0.00    +0.000 A 
ATOM      9  C   UNL     1       1.626   4.644  20.075  0.00  0.00    +0.000 A 
ATOM     10  N   UNL     1       1.166   5.793  20.555  0.00  0.00    +0.000 NA
ENDROOT
BRANCH   1  12
ATOM     11  O   UNL     1       1.321   8.297  22.175  0.00  0.00    +0.000 OA
ATOM     12  C   UNL     1       1.426   8.188  20.954  0.00  0.00    +0.000 C 
ATOM     13  N   UNL     1       1.083   9.243  20.070  0.00  0.00    +0.000 N 
ATOM     14  C   UNL     1       0.622  10.500  20.654  0.00  0.00    +0.000 C 
ATOM     15  C   UNL     1      -0.891  10.684  20.507  0.00  0.00    +0.000 C 
ATOM     16  C   UNL     1      -1.367  11.008  19.089  0.00  0.00    +0.000 C 
ATOM     17  C   UNL     1      -0.914  10.024  18.013  0.00  0.00    +0.000 C 
ATOM     18  C   UNL     1       0.585  10.122  17.739  0.00  0.00    +0.000 C 
ATOM     19  C   UNL     1       1.433   9.240  18.647  0.00  0.00    +0.000 C 
ENDBRANCH   1  12
BRANCH   3  20
ATOM     20  C   UNL     1       4.965   5.829  18.697  0.00  0.00    +0.000 A 
ATOM     21  C   UNL     1       6.126   5.263  19.275  0.00  0.00    +0.000 A 
ATOM     22  C   UNL     1       7.395   5.386  18.698  0.00  0.00    +0.000 A 
ATOM     23  C   UNL     1       7.536   6.007  17.467  0.00  0.00    +0.000 A 
ATOM     24  C   UNL     1       6.411   6.518  16.830  0.00  0.00    +0.000 A 
ATOM     25  C   UNL     1       5.147   6.457  17.441  0.00  0.00    +0.000 A 
ATOM     26 CL   UNL     1       3.873   7.238  16.559  0.00  0.00    +0.000 Cl
ENDBRANCH   3  20
TORSDOF 2
ENDMDL
MODEL 4
REMARK VINA RESULT:      -8.5      1.663      4.097
REMARK  Name = 
REMARK  2 active torsions:
REMARK  status: ('A' for Active; 'I' for Inactive)
REMARK    1  A    between atoms: C_2  and  C_3
REMARK    2  A    between atoms: C_5  and  C_6
REMARK                            x       y       z     vdW  Elec       q    Type
REMARK                         _______ _______ _______ _____ _____    ______ ____
ROOT
ATOM      1  C   UNL     1       2.900   7.754  18.191  0.00  0.00    +0.000 A 
ATOM      2  N   UNL     1       2.467   6.666  18.845  0.00  0.00    +0.000 NA
ATOM      3  C   UNL     1       3.242   5.561  18.802  0.00  0.00    +0.000 A 
ATOM      4  C   UNL     1       4.505   5.567  18.150  0.00  0.00    +0.000 A 
ATOM      5  C   UNL     1       5.417   4.481  18.005  0.00  0.00    +0.000 A 
ATOM      6  C   UNL     1       6.698   4.661  17.484  0.00  0.00    +0.000 A 
ATOM      7  C   UNL     1       7.078   5.914  17.038  0.00  0.00    +0.000 A 
ATOM      8  C   UNL     1       6.155   6.960  17.071  0.00  0.00    +0.000 A 
ATOM      9  C   UNL     1       4.879   6.802  17.598  0.00  0.00    +0.000 A 
ATOM     10  N   UNL     1       4.079   7.861  17.567  0.00  0.00    +0.000 NA
ENDROOT
BRANCH   1  12
ATOM     11  O   UNL     1       2.041   9.704  17.176  0.00  0.00    +0.000 OA
ATOM     12  C   UNL     1       1.974   8.953  18.149  0.00  0.00    +0.000 C 
ATOM     13  N   UNL     1       1.068   9.182  19.216  0.00  0.00    +0.000 N 
ATOM     14  C   UNL     1       0.175  10.334  19.119  0.00  0.00    +0.000 C 
ATOM     15  C   UNL     1       0.612  11.480  20.035  0.00  0.00    +0.000 C 
ATOM     16  C   UNL     1       0.369  11.244  21.526  0.00  0.00    +0.000 C 
ATOM     17  C   UNL     1       0.968   9.954  22.083  0.00  0.00    +0.000 C 
ATOM     18  C   UNL     1       0.239   8.714  21.571  0.00  0.00    +0.000 C 
ATOM     19  C   UNL     1       0.784   8.184  20.250  0.00  0.00    +0.000 C 
ENDBRANCH   1  12
BRANCH   3  20
ATOM     20  C   UNL     1       2.683   4.409  19.575  0.00  0.00    +0.000 A 
ATOM     21  C   UNL     1       2.528   4.493  20.979  0.00  0.00    +0.000 A 
ATOM     22  C   UNL     1       2.048   3.429  21.751  0.00  0.00    +0.000 A 
ATOM     23  C   UNL     1       1.617   2.266  21.132  0.00  0.00    +0.000 A 
ATOM     24  C   UNL     1       1.687   2.167  19.747  0.00  0.00    +0.000 A 
ATOM     25  C   UNL     1       2.234   3.207  18.976  0.00  0.00    +0.000 A 
ATOM     26 CL   UNL     1       2.345   2.874  17.277  0.00  0.00    +0.000 Cl
ENDBRANCH   3  20
TORSDOF 2
ENDMDL
MODEL 5
REMARK VINA RESULT:      -8.0      3.919      6.983
REMARK  Name = 
REMARK  2 active torsions:
REMARK  status: ('A' for Active; 'I' for Inactive)
REMARK    1  A    between atoms: C_2  and  C_3
REMARK    2  A    between atoms: C_5  and  C_6
REMARK                            x       y       z     vdW  Elec       q    Type
REMARK                         _______ _______ _______ _____ _____    ______ ____
ROOT
ATOM      1  C   UNL     1       0.878  12.369  19.727  0.00  0.00    +0.000 A 
ATOM      2  N   UNL     1       1.495  11.184  19.609  0.00  0.00    +0.000 NA
ATOM      3  C   UNL     1       0.831  10.195  18.971  0.00  0.00    +0.000 A 
ATOM      4  C   UNL     1      -0.442  10.418  18.381  0.00  0.00    +0.000 A 
ATOM      5  C   UNL     1      -1.264   9.474  17.699  0.00  0.00    +0.000 A 
ATOM      6  C   UNL     1      -2.421   9.860  17.023  0.00  0.00    +0.000 A 
ATOM      7  C   UNL     1      -2.819  11.184  17.062  0.00  0.00    +0.000 A 
ATOM      8  C   UNL     1      -2.084  12.096  17.820  0.00  0.00    +0.000 A 
ATOM      9  C   UNL     1      -0.922  11.732  18.489  0.00  0.00    +0.000 A 
ATOM     10  N   UNL     1      -0.309  12.678  19.191  0.00  0.00    +0.000 NA
ENDROOT
BRANCH   1  12
ATOM     11  O   UNL     1       1.289  13.543  21.732  0.00  0.00    +0.000 OA
ATOM     12  C   UNL     1       1.578  13.439  20.540  0.00  0.00    +0.000 C 
ATOM     13  N   UNL     1       2.535  14.283  19.920  0.00  0.00    +0.000 N 
ATOM     14  C   UNL     1       3.205  15.280  20.750  0.00  0.00    +0.000 C 
ATOM     15  C   UNL     1       2.674  16.693  20.495  0.00  0.00    +0.000 C 
ATOM     16  C   UNL     1       3.101  17.313  19.164  0.00  0.00    +0.000 C 
ATOM     17  C   UNL     1       2.788  16.472  17.928  0.00  0.00    +0.000 C 
ATOM     18  C   UNL     1       3.662  15.223  17.847  0.00  0.00    +0.000 C 
ATOM     19  C   UNL     1       3.085  14.022  18.588  0.00  0.00    +0.000 C 
ENDBRANCH   1  12
BRANCH   3  20
ATOM     20  C   UNL     1       1.609   8.921  18.876  0.00  0.00    +0.000 A 
ATOM     21  C   UNL     1       2.392   8.640  17.732  0.00  0.00    +0.000 A 
ATOM     22  C   UNL     1       3.104   7.444  17.578  0.00  0.00    +0.000 A 
ATOM     23  C   UNL     1       3.131   6.520  18.610  0.00  0.00    +0.000 A 
ATOM     24  C   UNL     1       2.431   6.786  19.781  0.00  0.00    +0.000 A 
ATOM     25  C   UNL     1       1.658   7.954  19.909  0.00  0.00    +0.000 A 
ATOM     26 CL   UNL     1       0.763   8.076  21.390  0.00  0.00    +0.000 Cl
ENDBRANCH   3  20
TORSDOF 2
ENDMDL
MODEL 6
REMARK VINA RESULT:      -8.0      1.097      1.386
REMARK  Name = 
REMARK  2 active torsions:
REMARK  status: ('A' for Active; 'I' for Inactive)
REMARK    1  A    between atoms: C_2  and  C_3
REMARK    2  A    between atoms: C_5  and  C_6
REMARK                            x       y       z     vdW  Elec       q    Type
REMARK                         _______ _______ _______ _____ _____    ______ ____
ROOT
ATOM      1  C   UNL     1       2.351   7.134  19.254  0.00  0.00    +0.000 A 
ATOM      2  N   UNL     1       3.302   6.783  18.376  0.00  0.00    +0.000 NA
ATOM      3  C   UNL     1       3.897   5.583  18.547  0.00  0.00    +0.000 A 
ATOM      4  C   UNL     1       3.485   4.690  19.573  0.00  0.00    +0.000 A 
ATOM      5  C   UNL     1       4.029   3.409  19.886  0.00  0.00    +0.000 A 
ATOM      6  C   UNL     1       3.426   2.562  20.815  0.00  0.00    +0.000 A 
ATOM      7  C   UNL     1       2.304   2.995  21.499  0.00  0.00    +0.000 A 
ATOM      8  C   UNL     1       1.830   4.289  21.283  0.00  0.00    +0.000 A 
ATOM      9  C   UNL     1       2.410   5.143  20.353  0.00  0.00    +0.000 A 
ATOM     10  N   UNL     1       1.884   6.357  20.239  0.00  0.00    +0.000 NA
ENDROOT
BRANCH   1  12
ATOM     11  O   UNL     1       2.205   9.259  18.237  0.00  0.00    +0.000 OA
ATOM     12  C   UNL     1       1.767   8.527  19.125  0.00  0.00    +0.000 C 
ATOM     13  N   UNL     1       0.747   8.949  20.016  0.00  0.00    +0.000 N 
ATOM     14  C   UNL     1       0.195  10.289  19.836  0.00  0.00    +0.000 C 
ATOM     15  C   UNL     1       0.702  11.269  20.897  0.00  0.00    +0.000 C 
ATOM     16  C   UNL     1       0.116  11.066  22.296  0.00  0.00    +0.000 C 
ATOM     17  C   UNL     1       0.265   9.655  22.861  0.00  0.00    +0.000 C 
ATOM     18  C   UNL     1      -0.622   8.649  22.134  0.00  0.00    +0.000 C 
ATOM     19  C   UNL     1       0.032   8.029  20.905  0.00  0.00    +0.000 C 
ENDBRANCH   1  12
BRANCH   3  20
ATOM     20  C   UNL     1       4.929   5.276  17.509  0.00  0.00    +0.000 A 
ATOM     21  C   UNL     1       6.151   5.990  17.475  0.00  0.00    +0.000 A 
ATOM     22  C   UNL     1       7.130   5.768  16.499  0.00  0.00    +0.000 A 
ATOM     23  C   UNL     1       6.960   4.753  15.570  0.00  0.00    +0.000 A 
ATOM     24  C   UNL     1       5.805   3.981  15.609  0.00  0.00    +0.000 A 
ATOM     25  C   UNL     1       4.790   4.248  16.544  0.00  0.00    +0.000 A 
ATOM     26 CL   UNL     1       3.372   3.261  16.383  0.00  0.00    +0.000 Cl
ENDBRANCH   3  20
TORSDOF 2
ENDMDL
MODEL 7
REMARK VINA RESULT:      -7.9      1.262      1.731
REMARK  Name = 
REMARK  2 active torsions:
REMARK  status: ('A' for Active; 'I' for Inactive)
REMARK    1  A    between atoms: C_2  and  C_3
REMARK    2  A    between atoms: C_5  and  C_6
REMARK                            x       y       z     vdW  Elec       q    Type
REMARK                         _______ _______ _______ _____ _____    ______ ____
ROOT
ATOM      1  C   UNL     1       2.343   7.102  18.859  0.00  0.00    +0.000 A 
ATOM      2  N   UNL     1       3.584   6.738  18.501  0.00  0.00    +0.000 NA
ATOM      3  C   UNL     1       4.055   5.567  18.983  0.00  0.00    +0.000 A 
ATOM      4  C   UNL     1       3.245   4.715  19.781  0.00  0.00    +0.000 A 
ATOM      5  C   UNL     1       3.608   3.470  20.373  0.00  0.00    +0.000 A 
ATOM      6  C   UNL     1       2.668   2.652  20.999  0.00  0.00    +0.000 A 
ATOM      7  C   UNL     1       1.357   3.082  21.104  0.00  0.00    +0.000 A 
ATOM      8  C   UNL     1       1.014   4.348  20.628  0.00  0.00    +0.000 A 
ATOM      9  C   UNL     1       1.935   5.171  19.991  0.00  0.00    +0.000 A 
ATOM     10  N   UNL     1       1.502   6.360  19.589  0.00  0.00    +0.000 NA
ENDROOT
BRANCH   1  12
ATOM     11  O   UNL     1       2.229   8.874  17.305  0.00  0.00    +0.000 OA
ATOM     12  C   UNL     1       1.863   8.467  18.407  0.00  0.00    +0.000 C 
ATOM     13  N   UNL     1       1.019   9.232  19.252  0.00  0.00    +0.000 N 
ATOM     14  C   UNL     1       0.558  10.529  18.763  0.00  0.00    +0.000 C 
ATOM     15  C   UNL     1       1.290  11.692  19.438  0.00  0.00    +0.000 C 
ATOM     16  C   UNL     1       0.895  11.946  20.894  0.00  0.00    +0.000 C 
ATOM     17  C   UNL     1       1.006  10.734  21.816  0.00  0.00    +0.000 C 
ATOM     18  C   UNL     1      -0.055   9.680  21.510  0.00  0.00    +0.000 C 
ATOM     19  C   UNL     1       0.364   8.679  20.440  0.00  0.00    +0.000 C 
ENDBRANCH   1  12
BRANCH   3  20
ATOM     20  C   UNL     1       5.437   5.242  18.514  0.00  0.00    +0.000 A 
ATOM     21  C   UNL     1       6.560   5.542  19.320  0.00  0.00    +0.000 A 
ATOM     22  C   UNL     1       7.875   5.294  18.908  0.00  0.00    +0.000 A 
ATOM     23  C   UNL     1       8.110   4.650  17.704  0.00  0.00    +0.000 A 
ATOM     24  C   UNL     1       7.033   4.275  16.911  0.00  0.00    +0.000 A 
ATOM     25  C   UNL     1       5.715   4.586  17.290  0.00  0.00    +0.000 A 
ATOM     26 CL   UNL     1       4.500   4.143  16.134  0.00  0.00    +0.000 Cl
ENDBRANCH   3  20
TORSDOF 2
ENDMDL
MODEL 8
REMARK VINA RESULT:      -7.9      4.075      7.300
REMARK  Name = 
REMARK  2 active torsions:
REMARK  status: ('A' for Active; 'I' for Inactive)
REMARK    1  A    between atoms: C_2  and  C_3
REMARK    2  A    between atoms: C_5  and  C_6
REMARK                            x       y       z     vdW  Elec       q    Type
REMARK                         _______ _______ _______ _____ _____    ______ ____
ROOT
ATOM      1  C   UNL     1       0.025  12.611  20.225  0.00  0.00    +0.000 A 
ATOM      2  N   UNL     1       0.764  11.519  19.978  0.00  0.00    +0.000 NA
ATOM      3  C   UNL     1       0.176  10.507  19.304  0.00  0.00    +0.000 A 
ATOM      4  C   UNL     1      -1.151  10.618  18.809  0.00  0.00    +0.000 A 
ATOM      5  C   UNL     1      -1.904   9.635  18.103  0.00  0.00    +0.000 A 
ATOM      6  C   UNL     1      -3.140   9.928  17.528  0.00  0.00    +0.000 A 
ATOM      7  C   UNL     1      -3.683  11.189  17.695  0.00  0.00    +0.000 A 
ATOM      8  C   UNL     1      -3.007  12.126  18.479  0.00  0.00    +0.000 A 
ATOM      9  C   UNL     1      -1.769  11.855  19.049  0.00  0.00    +0.000 A 
ATOM     10  N   UNL     1      -1.222  12.815  19.785  0.00  0.00    +0.000 NA
ENDROOT
BRANCH   1  12
ATOM     11  O   UNL     1       0.445  13.671  22.292  0.00  0.00    +0.000 OA
ATOM     12  C   UNL     1       0.653  13.695  21.078  0.00  0.00    +0.000 C 
ATOM     13  N   UNL     1       1.451  14.698  20.470  0.00  0.00    +0.000 N 
ATOM     14  C   UNL     1       2.058  15.705  21.336  0.00  0.00    +0.000 C 
ATOM     15  C   UNL     1       1.343  17.055  21.238  0.00  0.00    +0.000 C 
ATOM     16  C   UNL     1       1.589  17.824  19.938  0.00  0.00    +0.000 C 
ATOM     17  C   UNL     1       1.286  17.047  18.659  0.00  0.00    +0.000 C 
ATOM     18  C   UNL     1       2.294  15.928  18.414  0.00  0.00    +0.000 C 
ATOM     19  C   UNL     1       1.925  14.611  19.087  0.00  0.00    +0.000 C 
ENDBRANCH   1  12
BRANCH   3  20
ATOM     20  C   UNL     1       1.086   9.344  19.063  0.00  0.00    +0.000 A 
ATOM     21  C   UNL     1       1.792   9.224  17.842  0.00  0.00    +0.000 A 
ATOM     22  C   UNL     1       2.623   8.135  17.554  0.00  0.00    +0.000 A 
ATOM     23  C   UNL     1       2.849   7.165  18.518  0.00  0.00    +0.000 A 
ATOM     24  C   UNL     1       2.228   7.279  19.756  0.00  0.00    +0.000 A 
ATOM     25  C   UNL     1       1.339   8.335  20.023  0.00  0.00    +0.000 A 
ATOM     26 CL   UNL     1       0.571   8.265  21.577  0.00  0.00    +0.000 Cl
ENDBRANCH   3  20
TORSDOF 2
ENDMDL
MODEL 9
REMARK VINA RESULT:      -7.9      4.627      7.708
REMARK  Name = 
REMARK  2 active torsions:
REMARK  status: ('A' for Active; 'I' for Inactive)
REMARK    1  A    between atoms: C_2  and  C_3
REMARK    2  A    between atoms: C_5  and  C_6
REMARK                            x       y       z     vdW  Elec       q    Type
REMARK                         _______ _______ _______ _____ _____    ______ ____
ROOT
ATOM      1  C   UNL     1      -2.007  11.393  18.158  0.00  0.00    +0.000 A 
ATOM      2  N   UNL     1      -1.181  10.363  18.394  0.00  0.00    +0.000 NA
ATOM      3  C   UNL     1       0.116  10.646  18.645  0.00  0.00    +0.000 A 
ATOM      4  C   UNL     1       0.578  11.987  18.730  0.00  0.00    +0.000 A 
ATOM      5  C   UNL     1       1.911  12.436  18.966  0.00  0.00    +0.000 A 
ATOM      6  C   UNL     1       2.204  13.782  19.188  0.00  0.00    +0.000 A 
ATOM      7  C   UNL     1       1.187  14.717  19.119  0.00  0.00    +0.000 A 
ATOM      8  C   UNL     1      -0.100  14.303  18.778  0.00  0.00    +0.000 A 
ATOM      9  C   UNL     1      -0.413  12.966  18.565  0.00  0.00    +0.000 A 
ATOM     10  N   UNL     1      -1.668  12.686  18.233  0.00  0.00    +0.000 NA
ENDROOT
BRANCH   1  12
ATOM     11  O   UNL     1      -3.615  10.394  16.750  0.00  0.00    +0.000 OA
ATOM     12  C   UNL     1      -3.433  11.064  17.766  0.00  0.00    +0.000 C 
ATOM     13  N   UNL     1      -4.509  11.529  18.566  0.00  0.00    +0.000 N 
ATOM     14  C   UNL     1      -5.865  11.163  18.165  0.00  0.00    +0.000 C 
ATOM     15  C   UNL     1      -6.614  12.337  17.528  0.00  0.00    +0.000 C 
ATOM     16  C   UNL     1      -7.049  13.431  18.505  0.00  0.00    +0.000 C 
ATOM     17  C   UNL     1      -5.931  14.011  19.368  0.00  0.00    +0.000 C 
ATOM     18  C   UNL     1      -5.433  13.012  20.409  0.00  0.00    +0.000 C 
ATOM     19  C   UNL     1      -4.322  12.099  19.902  0.00  0.00    +0.000 C 
ENDBRANCH   1  12
BRANCH   3  20
ATOM     20  C   UNL     1       0.950   9.434  18.913  0.00  0.00    +0.000 A 
ATOM     21  C   UNL     1       1.743   8.865  17.888  0.00  0.00    +0.000 A 
ATOM     22  C   UNL     1       2.508   7.708  18.077  0.00  0.00    +0.000 A 
ATOM     23  C   UNL     1       2.579   7.127  19.333  0.00  0.00    +0.000 A 
ATOM     24  C   UNL     1       1.870   7.692  20.386  0.00  0.00    +0.000 A 
ATOM     25  C   UNL     1       1.046   8.812  20.182  0.00  0.00    +0.000 A 
ATOM     26 CL   UNL     1       0.150   9.322  21.577  0.00  0.00    +0.000 Cl
ENDBRANCH   3  20
TORSDOF 2
ENDMDL
