MODEL 1
REMARK VINA RESULT:      -7.1      0.000      0.000
REMARK  Name = 
REMARK  6 active torsions:
REMARK  status: ('A' for Active; 'I' for Inactive)
REMARK    1  A    between atoms: C_1  and  N_2
REMARK    2  A    between atoms: N_2  and  C_13
REMARK    3  A    between atoms: C_3  and  S_4
REMARK    4  A    between atoms: N_5  and  C_6
REMARK    5  A    between atoms: C_13  and  C_14
REMARK    6  A    between atoms: C_13  and  C_20
REMARK                            x       y       z     vdW  Elec       q    Type
REMARK                         _______ _______ _______ _____ _____    ______ ____
ROOT
ATOM      1  C   UNL     1       2.535   6.383  20.829  0.00  0.00    +0.000 C 
ATOM      2  N   UNL     1       2.501   6.903  19.463  0.00  0.00    +0.000 N 
ATOM      3  C   UNL     1       1.821   8.099  19.212  0.00  0.00    +0.000 C 
ATOM      4  N   UNL     1       0.895   8.513  20.036  0.00  0.00    +0.000 NA
ENDROOT
BRANCH   4   5
ATOM      5  C   UNL     1       0.257   9.771  20.020  0.00  0.00    +0.000 A 
ATOM      6  C   UNL     1      -0.842  10.124  19.233  0.00  0.00    +0.000 A 
ATOM      7  C   UNL     1      -1.304  11.444  19.173  0.00  0.00    +0.000 A 
ATOM      8  C   UNL     1      -0.738  12.402  19.999  0.00  0.00    +0.000 A 
ATOM      9  F   UNL     1      -1.168  13.670  19.933  0.00  0.00    +0.000 F 
ATOM     10  C   UNL     1       0.265  12.059  20.893  0.00  0.00    +0.000 A 
ATOM     11  C   UNL     1       0.760  10.750  20.897  0.00  0.00    +0.000 A 
ENDBRANCH   4   5
BRANCH   3  12
ATOM     12  S   UNL     1       2.386   9.057  17.835  0.00  0.00    +0.000 S 
ATOM     13  H   UNL     1       1.682   8.402  16.911  0.00  0.00    +0.000 HD
ENDBRANCH   3  12
BRANCH   2  14
ATOM     14  C   UNL     1       2.987   5.936  18.451  0.00  0.00    +0.000 C 
BRANCH  14  15
ATOM     15  C   UNL     1       4.504   6.062  18.250  0.00  0.00    +0.000 A 
ATOM     16  C   UNL     1       5.094   6.785  17.201  0.00  0.00    +0.000 A 
ATOM     17  C   UNL     1       6.487   6.851  17.071  0.00  0.00    +0.000 A 
ATOM     18  C   UNL     1       7.312   6.201  17.986  0.00  0.00    +0.000 A 
ATOM     19  C   UNL     1       6.751   5.485  19.035  0.00  0.00    +0.000 A 
ATOM     20  C   UNL     1       5.360   5.420  19.167  0.00  0.00    +0.000 A 
ENDBRANCH  14  15
BRANCH  14  21
ATOM     21  C   UNL     1       2.366   4.532  18.555  0.00  0.00    +0.000 A 
ATOM     22  C   UNL     1       1.282   4.226  19.395  0.00  0.00    +0.000 A 
ATOM     23  C   UNL     1       0.748   2.936  19.463  0.00  0.00    +0.000 A 
ATOM     24  C   UNL     1       1.244   1.929  18.642  0.00  0.00    +0.000 A 
ATOM     25  C   UNL     1       2.281   2.217  17.758  0.00  0.00    +0.000 A 
ATOM     26  C   UNL     1       2.833   3.501  17.713  0.00  0.00    +0.000 A 
ENDBRANCH  14  21
ENDBRANCH   2  14
TORSDOF 5
ENDMDL
MODEL 2
REMARK VINA RESULT:      -7.1      1.928      4.343
REMARK  Name = 
REMARK  6 active torsions:
REMARK  status: ('A' for Active; 'I' for Inactive)
REMARK    1  A    between atoms: C_1  and  N_2
REMARK    2  A    between atoms: N_2  and  C_13
REMARK    3  A    between atoms: C_3  and  S_4
REMARK    4  A    between atoms: N_5  and  C_6
REMARK    5  A    between atoms: C_13  and  C_14
REMARK    6  A    between atoms: C_13  and  C_20
REMARK                            x       y       z     vdW  Elec       q    Type
REMARK                         _______ _______ _______ _____ _____    ______ ____
ROOT
ATOM      1  C   UNL     1       2.952   7.549  17.532  0.00  0.00    +0.000 C 
ATOM      2  N   UNL     1       2.851   6.753  18.754  0.00  0.00    +0.000 N 
ATOM      3  C   UNL     1       2.143   7.272  19.842  0.00  0.00    +0.000 C 
ATOM      4  N   UNL     1       1.953   8.561  19.947  0.00  0.00    +0.000 NA
ENDROOT
BRANCH   4   5
ATOM      5  C   UNL     1       1.115   9.214  20.874  0.00  0.00    +0.000 A 
ATOM      6  C   UNL     1       1.138   9.047  22.261  0.00  0.00    +0.000 A 
ATOM      7  C   UNL     1       0.161   9.621  23.082  0.00  0.00    +0.000 A 
ATOM      8  C   UNL     1      -0.782  10.472  22.527  0.00  0.00    +0.000 A 
ATOM      9  F   UNL     1      -1.728  11.011  23.308  0.00  0.00    +0.000 F 
ATOM     10  C   UNL     1      -0.752  10.770  21.173  0.00  0.00    +0.000 A 
ATOM     11  C   UNL     1       0.190  10.139  20.353  0.00  0.00    +0.000 A 
ENDBRANCH   4   5
BRANCH   3  12
ATOM     12  S   UNL     1       1.415   6.097  20.947  0.00  0.00    +0.000 S 
ATOM     13  H   UNL     1       0.216   6.680  21.002  0.00  0.00    +0.000 HD
ENDBRANCH   3  12
BRANCH   2  14
ATOM     14  C   UNL     1       3.753   5.577  18.769  0.00  0.00    +0.000 C 
BRANCH  14  15
ATOM     15  C   UNL     1       2.959   4.273  18.935  0.00  0.00    +0.000 A 
ATOM     16  C   UNL     1       3.354   3.221  19.776  0.00  0.00    +0.000 A 
ATOM     17  C   UNL     1       2.586   2.054  19.872  0.00  0.00    +0.000 A 
ATOM     18  C   UNL     1       1.412   1.920  19.135  0.00  0.00    +0.000 A 
ATOM     19  C   UNL     1       0.998   2.950  18.301  0.00  0.00    +0.000 A 
ATOM     20  C   UNL     1       1.763   4.116  18.205  0.00  0.00    +0.000 A 
ENDBRANCH  14  15
BRANCH  14  21
ATOM     21  C   UNL     1       4.890   5.628  17.734  0.00  0.00    +0.000 A 
ATOM     22  C   UNL     1       6.110   6.291  17.956  0.00  0.00    +0.000 A 
ATOM     23  C   UNL     1       7.117   6.317  16.988  0.00  0.00    +0.000 A 
ATOM     24  C   UNL     1       6.958   5.624  15.793  0.00  0.00    +0.000 A 
ATOM     25  C   UNL     1       5.783   4.910  15.568  0.00  0.00    +0.000 A 
ATOM     26  C   UNL     1       4.764   4.910  16.525  0.00  0.00    +0.000 A 
ENDBRANCH  14  21
ENDBRANCH   2  14
TORSDOF 5
ENDMDL
MODEL 3
REMARK VINA RESULT:      -7.0      1.926      4.324
REMARK  Name = 
REMARK  6 active torsions:
REMARK  status: ('A' for Active; 'I' for Inactive)
REMARK    1  A    between atoms: C_1  and  N_2
REMARK    2  A    between atoms: N_2  and  C_13
REMARK    3  A    between atoms: C_3  and  S_4
REMARK    4  A    between atoms: N_5  and  C_6
REMARK    5  A    between atoms: C_13  and  C_14
REMARK    6  A    between atoms: C_13  and  C_20
REMARK                            x       y       z     vdW  Elec       q    Type
REMARK                         _______ _______ _______ _____ _____    ______ ____
ROOT
ATOM      1  C   UNL     1       3.003   7.609  17.608  0.00  0.00    +0.000 C 
ATOM      2  N   UNL     1       2.849   6.771  18.796  0.00  0.00    +0.000 N 
ATOM      3  C   UNL     1       2.129   7.269  19.885  0.00  0.00    +0.000 C 
ATOM      4  N   UNL     1       1.972   8.558  20.035  0.00  0.00    +0.000 NA
ENDROOT
BRANCH   4   5
ATOM      5  C   UNL     1       1.129   9.199  20.966  0.00  0.00    +0.000 A 
ATOM      6  C   UNL     1       1.153   9.023  22.352  0.00  0.00    +0.000 A 
ATOM      7  C   UNL     1       0.172   9.586  23.176  0.00  0.00    +0.000 A 
ATOM      8  C   UNL     1      -0.776  10.433  22.626  0.00  0.00    +0.000 A 
ATOM      9  F   UNL     1      -1.726  10.962  23.411  0.00  0.00    +0.000 F 
ATOM     10  C   UNL     1      -0.749  10.740  21.275  0.00  0.00    +0.000 A 
ATOM     11  C   UNL     1       0.198  10.120  20.451  0.00  0.00    +0.000 A 
ENDBRANCH   4   5
BRANCH   3  12
ATOM     12  S   UNL     1       1.341   6.074  20.927  0.00  0.00    +0.000 S 
ATOM     13  H   UNL     1       0.286   6.831  21.235  0.00  0.00    +0.000 HD
ENDBRANCH   3  12
BRANCH   2  14
ATOM     14  C   UNL     1       3.718   5.570  18.787  0.00  0.00    +0.000 C 
BRANCH  14  15
ATOM     15  C   UNL     1       2.884   4.284  18.883  0.00  0.00    +0.000 A 
ATOM     16  C   UNL     1       1.712   4.057  18.145  0.00  0.00    +0.000 A 
ATOM     17  C   UNL     1       0.994   2.864  18.289  0.00  0.00    +0.000 A 
ATOM     18  C   UNL     1       1.435   1.877  19.167  0.00  0.00    +0.000 A 
ATOM     19  C   UNL     1       2.596   2.076  19.904  0.00  0.00    +0.000 A 
ATOM     20  C   UNL     1       3.314   3.267  19.759  0.00  0.00    +0.000 A 
ENDBRANCH  14  15
BRANCH  14  21
ATOM     21  C   UNL     1       4.882   5.628  17.784  0.00  0.00    +0.000 A 
ATOM     22  C   UNL     1       4.795   5.140  16.468  0.00  0.00    +0.000 A 
ATOM     23  C   UNL     1       5.877   5.208  15.587  0.00  0.00    +0.000 A 
ATOM     24  C   UNL     1       7.061   5.825  15.979  0.00  0.00    +0.000 A 
ATOM     25  C   UNL     1       7.158   6.368  17.258  0.00  0.00    +0.000 A 
ATOM     26  C   UNL     1       6.084   6.273  18.148  0.00  0.00    +0.000 A 
ENDBRANCH  14  21
ENDBRANCH   2  14
TORSDOF 5
ENDMDL
MODEL 4
REMARK VINA RESULT:      -7.0      0.283      1.382
REMARK  Name = 
REMARK  6 active torsions:
REMARK  status: ('A' for Active; 'I' for Inactive)
REMARK    1  A    between atoms: C_1  and  N_2
REMARK    2  A    between atoms: N_2  and  C_13
REMARK    3  A    between atoms: C_3  and  S_4
REMARK    4  A    between atoms: N_5  and  C_6
REMARK    5  A    between atoms: C_13  and  C_14
REMARK    6  A    between atoms: C_13  and  C_20
REMARK                            x       y       z     vdW  Elec       q    Type
REMARK                         _______ _______ _______ _____ _____    ______ ____
ROOT
ATOM      1  C   UNL     1       2.484   6.513  20.868  0.00  0.00    +0.000 C 
ATOM      2  N   UNL     1       2.471   6.986  19.485  0.00  0.00    +0.000 N 
ATOM      3  C   UNL     1       1.819   8.186  19.187  0.00  0.00    +0.000 C 
ATOM      4  N   UNL     1       0.895   8.647  19.989  0.00  0.00    +0.000 NA
ENDROOT
BRANCH   4   5
ATOM      5  C   UNL     1       0.284   9.917  19.924  0.00  0.00    +0.000 A 
ATOM      6  C   UNL     1       0.724  11.074  20.572  0.00  0.00    +0.000 A 
ATOM      7  C   UNL     1      -0.039  12.246  20.571  0.00  0.00    +0.000 A 
ATOM      8  C   UNL     1      -1.199  12.304  19.815  0.00  0.00    +0.000 A 
ATOM      9  F   UNL     1      -1.941  13.421  19.825  0.00  0.00    +0.000 F 
ATOM     10  C   UNL     1      -1.596  11.219  19.050  0.00  0.00    +0.000 A 
ATOM     11  C   UNL     1      -0.858  10.031  19.109  0.00  0.00    +0.000 A 
ENDBRANCH   4   5
BRANCH   3  12
ATOM     12  S   UNL     1       2.413   9.083  17.782  0.00  0.00    +0.000 S 
ATOM     13  H   UNL     1       2.503  10.263  18.397  0.00  0.00    +0.000 HD
ENDBRANCH   3  12
BRANCH   2  14
ATOM     14  C   UNL     1       2.944   5.973  18.511  0.00  0.00    +0.000 C 
BRANCH  14  15
ATOM     15  C   UNL     1       4.468   6.049  18.332  0.00  0.00    +0.000 A 
ATOM     16  C   UNL     1       5.386   5.428  19.192  0.00  0.00    +0.000 A 
ATOM     17  C   UNL     1       6.765   5.547  18.975  0.00  0.00    +0.000 A 
ATOM     18  C   UNL     1       7.248   6.283  17.896  0.00  0.00    +0.000 A 
ATOM     19  C   UNL     1       6.357   6.901  17.027  0.00  0.00    +0.000 A 
ATOM     20  C   UNL     1       4.981   6.782  17.242  0.00  0.00    +0.000 A 
ENDBRANCH  14  15
BRANCH  14  21
ATOM     21  C   UNL     1       2.280   4.593  18.647  0.00  0.00    +0.000 A 
ATOM     22  C   UNL     1       1.253   4.315  19.565  0.00  0.00    +0.000 A 
ATOM     23  C   UNL     1       0.678   3.045  19.660  0.00  0.00    +0.000 A 
ATOM     24  C   UNL     1       1.070   2.032  18.792  0.00  0.00    +0.000 A 
ATOM     25  C   UNL     1       2.046   2.293  17.833  0.00  0.00    +0.000 A 
ATOM     26  C   UNL     1       2.642   3.556  17.759  0.00  0.00    +0.000 A 
ENDBRANCH  14  21
ENDBRANCH   2  14
TORSDOF 5
ENDMDL
MODEL 5
REMARK VINA RESULT:      -7.0      4.251      7.375
REMARK  Name = 
REMARK  6 active torsions:
REMARK  status: ('A' for Active; 'I' for Inactive)
REMARK    1  A    between atoms: C_1  and  N_2
REMARK    2  A    between atoms: N_2  and  C_13
REMARK    3  A    between atoms: C_3  and  S_4
REMARK    4  A    between atoms: N_5  and  C_6
REMARK    5  A    between atoms: C_13  and  C_14
REMARK    6  A    between atoms: C_13  and  C_20
REMARK                            x       y       z     vdW  Elec       q    Type
REMARK                         _______ _______ _______ _____ _____    ______ ____
ROOT
ATOM      1  C   UNL     1       2.066   4.345  17.196  0.00  0.00    +0.000 C 
ATOM      2  N   UNL     1       3.231   5.126  17.609  0.00  0.00    +0.000 N 
ATOM      3  C   UNL     1       4.338   5.190  16.758  0.00  0.00    +0.000 C 
ATOM      4  N   UNL     1       4.525   4.265  15.853  0.00  0.00    +0.000 NA
ENDROOT
BRANCH   4   5
ATOM      5  C   UNL     1       5.479   4.287  14.814  0.00  0.00    +0.000 A 
ATOM      6  C   UNL     1       6.743   4.878  14.873  0.00  0.00    +0.000 A 
ATOM      7  C   UNL     1       7.554   4.983  13.737  0.00  0.00    +0.000 A 
ATOM      8  C   UNL     1       7.150   4.385  12.554  0.00  0.00    +0.000 A 
ATOM      9  F   UNL     1       7.917   4.496  11.460  0.00  0.00    +0.000 F 
ATOM     10  C   UNL     1       5.963   3.672  12.494  0.00  0.00    +0.000 A 
ATOM     11  C   UNL     1       5.132   3.628  13.620  0.00  0.00    +0.000 A 
ENDBRANCH   4   5
BRANCH   3  12
ATOM     12  S   UNL     1       5.350   6.637  16.883  0.00  0.00    +0.000 S 
ATOM     13  H   UNL     1       4.719   7.331  15.934  0.00  0.00    +0.000 HD
ENDBRANCH   3  12
BRANCH   2  14
ATOM     14  C   UNL     1       3.184   5.549  19.029  0.00  0.00    +0.000 C 
BRANCH  14  15
ATOM     15  C   UNL     1       2.463   6.896  19.180  0.00  0.00    +0.000 A 
ATOM     16  C   UNL     1       2.270   7.800  18.123  0.00  0.00    +0.000 A 
ATOM     17  C   UNL     1       1.611   9.018  18.334  0.00  0.00    +0.000 A 
ATOM     18  C   UNL     1       1.132   9.352  19.598  0.00  0.00    +0.000 A 
ATOM     19  C   UNL     1       1.306   8.470  20.657  0.00  0.00    +0.000 A 
ATOM     20  C   UNL     1       1.962   7.253  20.448  0.00  0.00    +0.000 A 
ENDBRANCH  14  15
BRANCH  14  21
ATOM     21  C   UNL     1       2.866   4.421  20.025  0.00  0.00    +0.000 A 
ATOM     22  C   UNL     1       1.648   4.323  20.720  0.00  0.00    +0.000 A 
ATOM     23  C   UNL     1       1.399   3.283  21.620  0.00  0.00    +0.000 A 
ATOM     24  C   UNL     1       2.339   2.274  21.802  0.00  0.00    +0.000 A 
ATOM     25  C   UNL     1       3.532   2.314  21.084  0.00  0.00    +0.000 A 
ATOM     26  C   UNL     1       3.792   3.371  20.206  0.00  0.00    +0.000 A 
ENDBRANCH  14  21
ENDBRANCH   2  14
TORSDOF 5
ENDMDL
MODEL 6
REMARK VINA RESULT:      -7.0      0.261      1.378
REMARK  Name = 
REMARK  6 active torsions:
REMARK  status: ('A' for Active; 'I' for Inactive)
REMARK    1  A    between atoms: C_1  and  N_2
REMARK    2  A    between atoms: N_2  and  C_13
REMARK    3  A    between atoms: C_3  and  S_4
REMARK    4  A    between atoms: N_5  and  C_6
REMARK    5  A    between atoms: C_13  and  C_14
REMARK    6  A    between atoms: C_13  and  C_20
REMARK                            x       y       z     vdW  Elec       q    Type
REMARK                         _______ _______ _______ _____ _____    ______ ____
ROOT
ATOM      1  C   UNL     1       2.492   6.437  20.800  0.00  0.00    +0.000 C 
ATOM      2  N   UNL     1       2.480   6.960  19.434  0.00  0.00    +0.000 N 
ATOM      3  C   UNL     1       1.821   8.166  19.179  0.00  0.00    +0.000 C 
ATOM      4  N   UNL     1       0.892   8.593  19.994  0.00  0.00    +0.000 NA
ENDROOT
BRANCH   4   5
ATOM      5  C   UNL     1       0.274   9.860  19.974  0.00  0.00    +0.000 A 
ATOM      6  C   UNL     1       0.682  10.984  20.697  0.00  0.00    +0.000 A 
ATOM      7  C   UNL     1      -0.091  12.150  20.730  0.00  0.00    +0.000 A 
ATOM      8  C   UNL     1      -1.224  12.240  19.938  0.00  0.00    +0.000 A 
ATOM      9  F   UNL     1      -1.975  13.350  19.979  0.00  0.00    +0.000 F 
ATOM     10  C   UNL     1      -1.585  11.195  19.103  0.00  0.00    +0.000 A 
ATOM     11  C   UNL     1      -0.840  10.010  19.126  0.00  0.00    +0.000 A 
ENDBRANCH   4   5
BRANCH   3  12
ATOM     12  S   UNL     1       2.414   9.118  17.809  0.00  0.00    +0.000 S 
ATOM     13  H   UNL     1       2.413  10.291  18.443  0.00  0.00    +0.000 HD
ENDBRANCH   3  12
BRANCH   2  14
ATOM     14  C   UNL     1       2.961   5.987  18.425  0.00  0.00    +0.000 C 
BRANCH  14  15
ATOM     15  C   UNL     1       4.483   6.087  18.244  0.00  0.00    +0.000 A 
ATOM     16  C   UNL     1       5.100   6.798  17.204  0.00  0.00    +0.000 A 
ATOM     17  C   UNL     1       6.495   6.840  17.092  0.00  0.00    +0.000 A 
ATOM     18  C   UNL     1       7.296   6.176  18.018  0.00  0.00    +0.000 A 
ATOM     19  C   UNL     1       6.709   5.470  19.060  0.00  0.00    +0.000 A 
ATOM     20  C   UNL     1       5.316   5.430  19.173  0.00  0.00    +0.000 A 
ENDBRANCH  14  15
BRANCH  14  21
ATOM     21  C   UNL     1       2.314   4.594  18.516  0.00  0.00    +0.000 A 
ATOM     22  C   UNL     1       2.716   3.501  17.730  0.00  0.00    +0.000 A 
ATOM     23  C   UNL     1       2.099   2.252  17.840  0.00  0.00    +0.000 A 
ATOM     24  C   UNL     1       1.103   2.044  18.789  0.00  0.00    +0.000 A 
ATOM     25  C   UNL     1       0.723   3.094  19.622  0.00  0.00    +0.000 A 
ATOM     26  C   UNL     1       1.321   4.351  19.489  0.00  0.00    +0.000 A 
ENDBRANCH  14  21
ENDBRANCH   2  14
TORSDOF 5
ENDMDL
MODEL 7
REMARK VINA RESULT:      -7.0      1.914      4.184
REMARK  Name = 
REMARK  6 active torsions:
REMARK  status: ('A' for Active; 'I' for Inactive)
REMARK    1  A    between atoms: C_1  and  N_2
REMARK    2  A    between atoms: N_2  and  C_13
REMARK    3  A    between atoms: C_3  and  S_4
REMARK    4  A    between atoms: N_5  and  C_6
REMARK    5  A    between atoms: C_13  and  C_14
REMARK    6  A    between atoms: C_13  and  C_20
REMARK                            x       y       z     vdW  Elec       q    Type
REMARK                         _______ _______ _______ _____ _____    ______ ____
ROOT
ATOM      1  C   UNL     1       3.012   7.562  17.465  0.00  0.00    +0.000 C 
ATOM      2  N   UNL     1       2.861   6.770  18.684  0.00  0.00    +0.000 N 
ATOM      3  C   UNL     1       2.094   7.285  19.734  0.00  0.00    +0.000 C 
ATOM      4  N   UNL     1       1.885   8.572  19.824  0.00  0.00    +0.000 NA
ENDROOT
BRANCH   4   5
ATOM      5  C   UNL     1       0.995   9.219  20.706  0.00  0.00    +0.000 A 
ATOM      6  C   UNL     1       0.010  10.143  20.347  0.00  0.00    +0.000 A 
ATOM      7  C   UNL     1      -0.717  10.847  21.314  0.00  0.00    +0.000 A 
ATOM      8  C   UNL     1      -0.545  10.539  22.654  0.00  0.00    +0.000 A 
ATOM      9  F   UNL     1      -1.229  11.222  23.583  0.00  0.00    +0.000 F 
ATOM     10  C   UNL     1       0.324   9.532  23.040  0.00  0.00    +0.000 A 
ATOM     11  C   UNL     1       1.093   8.879  22.069  0.00  0.00    +0.000 A 
ENDBRANCH   4   5
BRANCH   3  12
ATOM     12  S   UNL     1       1.327   6.105  20.807  0.00  0.00    +0.000 S 
ATOM     13  H   UNL     1       2.442   5.760  21.455  0.00  0.00    +0.000 HD
ENDBRANCH   3  12
BRANCH   2  14
ATOM     14  C   UNL     1       3.775   5.605  18.748  0.00  0.00    +0.000 C 
BRANCH  14  15
ATOM     15  C   UNL     1       2.989   4.293  18.883  0.00  0.00    +0.000 A 
ATOM     16  C   UNL     1       1.821   4.005  18.160  0.00  0.00    +0.000 A 
ATOM     17  C   UNL     1       1.148   2.790  18.341  0.00  0.00    +0.000 A 
ATOM     18  C   UNL     1       1.630   1.843  19.240  0.00  0.00    +0.000 A 
ATOM     19  C   UNL     1       2.789   2.103  19.962  0.00  0.00    +0.000 A 
ATOM     20  C   UNL     1       3.463   3.314  19.781  0.00  0.00    +0.000 A 
ENDBRANCH  14  15
BRANCH  14  21
ATOM     21  C   UNL     1       4.959   5.664  17.768  0.00  0.00    +0.000 A 
ATOM     22  C   UNL     1       6.175   6.305  18.061  0.00  0.00    +0.000 A 
ATOM     23  C   UNL     1       7.227   6.340  17.142  0.00  0.00    +0.000 A 
ATOM     24  C   UNL     1       7.114   5.677  15.924  0.00  0.00    +0.000 A 
ATOM     25  C   UNL     1       5.942   4.986  15.628  0.00  0.00    +0.000 A 
ATOM     26  C   UNL     1       4.879   4.977  16.537  0.00  0.00    +0.000 A 
ENDBRANCH  14  21
ENDBRANCH   2  14
TORSDOF 5
ENDMDL
MODEL 8
REMARK VINA RESULT:      -7.0      1.530      4.081
REMARK  Name = 
REMARK  6 active torsions:
REMARK  status: ('A' for Active; 'I' for Inactive)
REMARK    1  A    between atoms: C_1  and  N_2
REMARK    2  A    between atoms: N_2  and  C_13
REMARK    3  A    between atoms: C_3  and  S_4
REMARK    4  A    between atoms: N_5  and  C_6
REMARK    5  A    between atoms: C_13  and  C_14
REMARK    6  A    between atoms: C_13  and  C_20
REMARK                            x       y       z     vdW  Elec       q    Type
REMARK                         _______ _______ _______ _____ _____    ______ ____
ROOT
ATOM      1  C   UNL     1       1.974   6.217  17.419  0.00  0.00    +0.000 C 
ATOM      2  N   UNL     1       2.343   6.748  18.730  0.00  0.00    +0.000 N 
ATOM      3  C   UNL     1       1.887   8.017  19.098  0.00  0.00    +0.000 C 
ATOM      4  N   UNL     1       1.529   8.877  18.181  0.00  0.00    +0.000 NA
ENDROOT
BRANCH   4   5
ATOM      5  C   UNL     1       0.884  10.113  18.394  0.00  0.00    +0.000 A 
ATOM      6  C   UNL     1      -0.496  10.315  18.478  0.00  0.00    +0.000 A 
ATOM      7  C   UNL     1      -1.044  11.601  18.534  0.00  0.00    +0.000 A 
ATOM      8  C   UNL     1      -0.201  12.697  18.628  0.00  0.00    +0.000 A 
ATOM      9  F   UNL     1      -0.722  13.932  18.667  0.00  0.00    +0.000 F 
ATOM     10  C   UNL     1       1.173  12.527  18.685  0.00  0.00    +0.000 A 
ATOM     11  C   UNL     1       1.710  11.239  18.564  0.00  0.00    +0.000 A 
ENDBRANCH   4   5
BRANCH   3  12
ATOM     12  S   UNL     1       1.691   8.317  20.831  0.00  0.00    +0.000 S 
ATOM     13  H   UNL     1       0.861   9.353  20.701  0.00  0.00    +0.000 HD
ENDBRANCH   3  12
BRANCH   2  14
ATOM     14  C   UNL     1       3.392   5.954  19.414  0.00  0.00    +0.000 C 
BRANCH  14  15
ATOM     15  C   UNL     1       2.841   4.600  19.885  0.00  0.00    +0.000 A 
ATOM     16  C   UNL     1       2.890   3.428  19.114  0.00  0.00    +0.000 A 
ATOM     17  C   UNL     1       2.359   2.227  19.602  0.00  0.00    +0.000 A 
ATOM     18  C   UNL     1       1.776   2.176  20.865  0.00  0.00    +0.000 A 
ATOM     19  C   UNL     1       1.722   3.322  21.649  0.00  0.00    +0.000 A 
ATOM     20  C   UNL     1       2.254   4.521  21.164  0.00  0.00    +0.000 A 
ENDBRANCH  14  15
BRANCH  14  21
ATOM     21  C   UNL     1       4.773   6.001  18.740  0.00  0.00    +0.000 A 
ATOM     22  C   UNL     1       5.044   6.748  17.580  0.00  0.00    +0.000 A 
ATOM     23  C   UNL     1       6.313   6.761  16.995  0.00  0.00    +0.000 A 
ATOM     24  C   UNL     1       7.366   6.077  17.593  0.00  0.00    +0.000 A 
ATOM     25  C   UNL     1       7.142   5.373  18.774  0.00  0.00    +0.000 A 
ATOM     26  C   UNL     1       5.864   5.337  19.341  0.00  0.00    +0.000 A 
ENDBRANCH  14  21
ENDBRANCH   2  14
TORSDOF 5
ENDMDL
MODEL 9
REMARK VINA RESULT:      -6.9      0.405      1.398
REMARK  Name = 
REMARK  6 active torsions:
REMARK  status: ('A' for Active; 'I' for Inactive)
REMARK    1  A    between atoms: C_1  and  N_2
REMARK    2  A    between atoms: N_2  and  C_13
REMARK    3  A    between atoms: C_3  and  S_4
REMARK    4  A    between atoms: N_5  and  C_6
REMARK    5  A    between atoms: C_13  and  C_14
REMARK    6  A    between atoms: C_13  and  C_20
REMARK                            x       y       z     vdW  Elec       q    Type
REMARK                         _______ _______ _______ _____ _____    ______ ____
ROOT
ATOM      1  C   UNL     1       2.433   6.690  20.924  0.00  0.00    +0.000 C 
ATOM      2  N   UNL     1       2.359   7.109  19.525  0.00  0.00    +0.000 N 
ATOM      3  C   UNL     1       1.681   8.289  19.208  0.00  0.00    +0.000 C 
ATOM      4  N   UNL     1       0.784   8.772  20.027  0.00  0.00    +0.000 NA
ENDROOT
BRANCH   4   5
ATOM      5  C   UNL     1       0.156  10.031  19.937  0.00  0.00    +0.000 A 
ATOM      6  C   UNL     1      -0.982  10.329  19.182  0.00  0.00    +0.000 A 
ATOM      7  C   UNL     1      -1.436  11.644  19.034  0.00  0.00    +0.000 A 
ATOM      8  C   UNL     1      -0.821  12.662  19.745  0.00  0.00    +0.000 A 
ATOM      9  F   UNL     1      -1.244  13.925  19.594  0.00  0.00    +0.000 F 
ATOM     10  C   UNL     1       0.225  12.384  20.611  0.00  0.00    +0.000 A 
ATOM     11  C   UNL     1       0.712  11.074  20.701  0.00  0.00    +0.000 A 
ENDBRANCH   4   5
BRANCH   3  12
ATOM     12  S   UNL     1       2.209   9.137  17.746  0.00  0.00    +0.000 S 
ATOM     13  H   UNL     1       1.029   9.697  17.475  0.00  0.00    +0.000 HD
ENDBRANCH   3  12
BRANCH   2  14
ATOM     14  C   UNL     1       2.806   6.064  18.573  0.00  0.00    +0.000 C 
BRANCH  14  15
ATOM     15  C   UNL     1       4.331   6.093  18.397  0.00  0.00    +0.000 A 
ATOM     16  C   UNL     1       5.226   5.409  19.234  0.00  0.00    +0.000 A 
ATOM     17  C   UNL     1       6.608   5.487  19.022  0.00  0.00    +0.000 A 
ATOM     18  C   UNL     1       7.119   6.245  17.972  0.00  0.00    +0.000 A 
ATOM     19  C   UNL     1       6.252   6.926  17.126  0.00  0.00    +0.000 A 
ATOM     20  C   UNL     1       4.872   6.847  17.336  0.00  0.00    +0.000 A 
ENDBRANCH  14  15
BRANCH  14  21
ATOM     21  C   UNL     1       2.102   4.706  18.734  0.00  0.00    +0.000 A 
ATOM     22  C   UNL     1       2.205   3.665  17.794  0.00  0.00    +0.000 A 
ATOM     23  C   UNL     1       1.547   2.446  17.975  0.00  0.00    +0.000 A 
ATOM     24  C   UNL     1       0.817   2.210  19.136  0.00  0.00    +0.000 A 
ATOM     25  C   UNL     1       0.744   3.202  20.111  0.00  0.00    +0.000 A 
ATOM     26  C   UNL     1       1.379   4.432  19.914  0.00  0.00    +0.000 A 
ENDBRANCH  14  21
ENDBRANCH   2  14
TORSDOF 5
ENDMDL
