MODEL 1
REMARK VINA RESULT:      -6.6      0.000      0.000
REMARK  Name = 
REMARK  3 active torsions:
REMARK  status: ('A' for Active; 'I' for Inactive)
REMARK    1  A    between atoms: C_2  and  C_3
REMARK    2  A    between atoms: C_17  and  O_18
REMARK    3  A    between atoms: O_18  and  C_19
REMARK                            x       y       z     vdW  Elec       q    Type
REMARK                         _______ _______ _______ _____ _____    ______ ____
ROOT
ATOM      1  O   UNL     1       3.491   5.400  20.026  0.00  0.00    +0.000 OA
ATOM      2  C   UNL     1       3.565   6.098  19.007  0.00  0.00    +0.000 C 
ATOM      3  N   UNL     1       2.726   7.229  18.882  0.00  0.00    +0.000 N 
ATOM      4  C   UNL     1       2.687   7.957  17.592  0.00  0.00    +0.000 C 
ATOM      5  C   UNL     1       2.157   9.408  17.666  0.00  0.00    +0.000 C 
ATOM      6  O   UNL     1       1.015   9.559  18.517  0.00  0.00    +0.000 OA
ATOM      7  C   UNL     1       1.374   9.111  19.832  0.00  0.00    +0.000 C 
ATOM      8  C   UNL     1       1.499   7.567  19.722  0.00  0.00    +0.000 C 
ATOM      9  C   UNL     1       1.204   7.107  21.150  0.00  0.00    +0.000 C 
ATOM     10  C   UNL     1       0.271   8.180  21.771  0.00  0.00    +0.000 C 
ATOM     11  C   UNL     1       0.332   9.461  20.909  0.00  0.00    +0.000 C 
ENDROOT
BRANCH   2  12
ATOM     12  C   UNL     1       4.753   5.831  17.941  0.00  0.00    +0.000 C 
ATOM     13  C   UNL     1       4.536   4.761  16.836  0.00  0.00    +0.000 C 
ATOM     14  C   UNL     1       5.751   4.660  15.888  0.00  0.00    +0.000 C 
ATOM     15  O   UNL     1       6.948   4.370  16.602  0.00  0.00    +0.000 OA
ATOM     16  C   UNL     1       7.240   5.370  17.575  0.00  0.00    +0.000 C 
ATOM     17  C   UNL     1       6.107   5.457  18.607  0.00  0.00    +0.000 C 
ENDBRANCH   2  12
BRANCH  11  18
ATOM     18  O   UNL     1       0.740  10.497  21.836  0.00  0.00    +0.000 OA
BRANCH  18  19
ATOM     19  C   UNL     1      -0.104  11.553  22.099  0.00  0.00    +0.000 A 
ATOM     20  C   UNL     1      -1.283  11.244  22.773  0.00  0.00    +0.000 A 
ATOM     21  C   UNL     1      -2.120  12.282  23.188  0.00  0.00    +0.000 A 
ATOM     22  C   UNL     1      -1.753  13.586  22.919  0.00  0.00    +0.000 A 
ATOM     23  C   UNL     1      -0.574  13.798  22.207  0.00  0.00    +0.000 A 
ATOM     24  N   UNL     1       0.258  12.809  21.795  0.00  0.00    +0.000 NA
ENDBRANCH  18  19
ENDBRANCH  11  18
TORSDOF 3
ENDMDL
MODEL 2
REMARK VINA RESULT:      -6.6      2.120      2.787
REMARK  Name = 
REMARK  3 active torsions:
REMARK  status: ('A' for Active; 'I' for Inactive)
REMARK    1  A    between atoms: C_2  and  C_3
REMARK    2  A    between atoms: C_17  and  O_18
REMARK    3  A    between atoms: O_18  and  C_19
REMARK                            x       y       z     vdW  Elec       q    Type
REMARK                         _______ _______ _______ _____ _____    ______ ____
ROOT
ATOM      1  O   UNL     1       1.859   6.375  20.882  0.00  0.00    +0.000 OA
ATOM      2  C   UNL     1       2.172   6.823  19.772  0.00  0.00    +0.000 C 
ATOM      3  N   UNL     1       1.746   8.119  19.404  0.00  0.00    +0.000 N 
ATOM      4  C   UNL     1       1.967   8.583  18.015  0.00  0.00    +0.000 C 
ATOM      5  C   UNL     1       1.933  10.115  17.813  0.00  0.00    +0.000 C 
ATOM      6  O   UNL     1       0.886  10.766  18.542  0.00  0.00    +0.000 OA
ATOM      7  C   UNL     1       1.057  10.468  19.936  0.00  0.00    +0.000 C 
ATOM      8  C   UNL     1       0.678   8.970  20.086  0.00  0.00    +0.000 C 
ATOM      9  C   UNL     1       0.225   8.886  21.544  0.00  0.00    +0.000 C 
ATOM     10  C   UNL     1      -0.322  10.290  21.912  0.00  0.00    +0.000 C 
ATOM     11  C   UNL     1       0.164  11.313  20.862  0.00  0.00    +0.000 C 
ENDROOT
BRANCH   2  12
ATOM     12  C   UNL     1       3.229   6.011  18.855  0.00  0.00    +0.000 C 
ATOM     13  C   UNL     1       2.690   4.948  17.860  0.00  0.00    +0.000 C 
ATOM     14  C   UNL     1       3.826   4.296  17.042  0.00  0.00    +0.000 C 
ATOM     15  O   UNL     1       4.805   3.702  17.889  0.00  0.00    +0.000 OA
ATOM     16  C   UNL     1       5.395   4.656  18.768  0.00  0.00    +0.000 C 
ATOM     17  C   UNL     1       4.326   5.277  19.678  0.00  0.00    +0.000 C 
ENDBRANCH   2  12
BRANCH  11  18
ATOM     18  O   UNL     1       0.869  12.315  21.637  0.00  0.00    +0.000 OA
BRANCH  18  19
ATOM     19  C   UNL     1       1.602  13.287  20.994  0.00  0.00    +0.000 A 
ATOM     20  C   UNL     1       0.893  14.129  20.141  0.00  0.00    +0.000 A 
ATOM     21  C   UNL     1       1.547  15.218  19.561  0.00  0.00    +0.000 A 
ATOM     22  C   UNL     1       2.881  15.429  19.852  0.00  0.00    +0.000 A 
ATOM     23  C   UNL     1       3.519  14.514  20.687  0.00  0.00    +0.000 A 
ATOM     24  N   UNL     1       2.906  13.451  21.265  0.00  0.00    +0.000 NA
ENDBRANCH  18  19
ENDBRANCH  11  18
TORSDOF 3
ENDMDL
MODEL 3
REMARK VINA RESULT:      -6.6      2.874      8.186
REMARK  Name = 
REMARK  3 active torsions:
REMARK  status: ('A' for Active; 'I' for Inactive)
REMARK    1  A    between atoms: C_2  and  C_3
REMARK    2  A    between atoms: C_17  and  O_18
REMARK    3  A    between atoms: O_18  and  C_19
REMARK                            x       y       z     vdW  Elec       q    Type
REMARK                         _______ _______ _______ _____ _____    ______ ____
ROOT
ATOM      1  O   UNL     1       2.253  12.347  18.181  0.00  0.00    +0.000 OA
ATOM      2  C   UNL     1       1.661  12.310  19.266  0.00  0.00    +0.000 C 
ATOM      3  N   UNL     1       1.284  11.060  19.807  0.00  0.00    +0.000 N 
ATOM      4  C   UNL     1       0.421  11.027  21.011  0.00  0.00    +0.000 C 
ATOM      5  C   UNL     1       0.451   9.704  21.811  0.00  0.00    +0.000 C 
ATOM      6  O   UNL     1       0.435   8.534  20.985  0.00  0.00    +0.000 OA
ATOM      7  C   UNL     1       1.570   8.590  20.107  0.00  0.00    +0.000 C 
ATOM      8  C   UNL     1       1.247   9.715  19.088  0.00  0.00    +0.000 C 
ATOM      9  C   UNL     1       2.066   9.300  17.865  0.00  0.00    +0.000 C 
ATOM     10  C   UNL     1       2.191   7.756  17.926  0.00  0.00    +0.000 C 
ATOM     11  C   UNL     1       1.829   7.276  19.349  0.00  0.00    +0.000 C 
ENDROOT
BRANCH   2  12
ATOM     12  C   UNL     1       1.516  13.664  20.141  0.00  0.00    +0.000 C 
ATOM     13  C   UNL     1       1.085  14.972  19.423  0.00  0.00    +0.000 C 
ATOM     14  C   UNL     1       0.963  16.155  20.408  0.00  0.00    +0.000 C 
ATOM     15  O   UNL     1       2.181  16.377  21.111  0.00  0.00    +0.000 OA
ATOM     16  C   UNL     1       2.579  15.230  21.858  0.00  0.00    +0.000 C 
ATOM     17  C   UNL     1       2.808  14.036  20.922  0.00  0.00    +0.000 C 
ENDBRANCH   2  12
BRANCH  11  18
ATOM     18  O   UNL     1       3.000   6.542  19.788  0.00  0.00    +0.000 OA
BRANCH  18  19
ATOM     19  C   UNL     1       2.897   5.202  20.084  0.00  0.00    +0.000 A 
ATOM     20  C   UNL     1       1.785   4.821  20.833  0.00  0.00    +0.000 A 
ATOM     21  C   UNL     1       1.548   3.463  21.055  0.00  0.00    +0.000 A 
ATOM     22  C   UNL     1       2.424   2.536  20.525  0.00  0.00    +0.000 A 
ATOM     23  C   UNL     1       3.529   3.010  19.821  0.00  0.00    +0.000 A 
ATOM     24  N   UNL     1       3.781   4.322  19.588  0.00  0.00    +0.000 NA
ENDBRANCH  18  19
ENDBRANCH  11  18
TORSDOF 3
ENDMDL
MODEL 4
REMARK VINA RESULT:      -6.6      2.532      3.711
REMARK  Name = 
REMARK  3 active torsions:
REMARK  status: ('A' for Active; 'I' for Inactive)
REMARK    1  A    between atoms: C_2  and  C_3
REMARK    2  A    between atoms: C_17  and  O_18
REMARK    3  A    between atoms: O_18  and  C_19
REMARK                            x       y       z     vdW  Elec       q    Type
REMARK                         _______ _______ _______ _____ _____    ______ ____
ROOT
ATOM      1  O   UNL     1       2.822   8.265  17.810  0.00  0.00    +0.000 OA
ATOM      2  C   UNL     1       2.375   7.727  18.830  0.00  0.00    +0.000 C 
ATOM      3  N   UNL     1       1.507   8.457  19.674  0.00  0.00    +0.000 N 
ATOM      4  C   UNL     1       1.118   7.878  20.981  0.00  0.00    +0.000 C 
ATOM      5  C   UNL     1      -0.165   8.467  21.611  0.00  0.00    +0.000 C 
ATOM      6  O   UNL     1      -0.261   9.891  21.492  0.00  0.00    +0.000 OA
ATOM      7  C   UNL     1      -0.211  10.229  20.098  0.00  0.00    +0.000 C 
ATOM      8  C   UNL     1       1.255   9.961  19.661  0.00  0.00    +0.000 C 
ATOM      9  C   UNL     1       1.428  10.915  18.479  0.00  0.00    +0.000 C 
ATOM     10  C   UNL     1       0.465  12.104  18.732  0.00  0.00    +0.000 C 
ATOM     11  C   UNL     1      -0.568  11.697  19.806  0.00  0.00    +0.000 C 
ENDROOT
BRANCH   2  12
ATOM     12  C   UNL     1       2.621   6.145  19.069  0.00  0.00    +0.000 C 
ATOM     13  C   UNL     1       4.080   5.626  19.181  0.00  0.00    +0.000 C 
ATOM     14  C   UNL     1       4.131   4.105  19.442  0.00  0.00    +0.000 C 
ATOM     15  O   UNL     1       3.443   3.378  18.430  0.00  0.00    +0.000 OA
ATOM     16  C   UNL     1       2.072   3.758  18.343  0.00  0.00    +0.000 C 
ATOM     17  C   UNL     1       1.951   5.247  17.992  0.00  0.00    +0.000 C 
ENDBRANCH   2  12
BRANCH  11  18
ATOM     18  O   UNL     1      -1.851  11.894  19.161  0.00  0.00    +0.000 OA
BRANCH  18  19
ATOM     19  C   UNL     1      -2.939  12.291  19.906  0.00  0.00    +0.000 A 
ATOM     20  C   UNL     1      -4.183  12.168  19.292  0.00  0.00    +0.000 A 
ATOM     21  C   UNL     1      -5.336  12.427  20.036  0.00  0.00    +0.000 A 
ATOM     22  C   UNL     1      -5.209  12.797  21.361  0.00  0.00    +0.000 A 
ATOM     23  C   UNL     1      -3.923  12.930  21.880  0.00  0.00    +0.000 A 
ATOM     24  N   UNL     1      -2.787  12.682  21.181  0.00  0.00    +0.000 NA
ENDBRANCH  18  19
ENDBRANCH  11  18
TORSDOF 3
ENDMDL
MODEL 5
REMARK VINA RESULT:      -6.4      2.268      2.976
REMARK  Name = 
REMARK  3 active torsions:
REMARK  status: ('A' for Active; 'I' for Inactive)
REMARK    1  A    between atoms: C_2  and  C_3
REMARK    2  A    between atoms: C_17  and  O_18
REMARK    3  A    between atoms: O_18  and  C_19
REMARK                            x       y       z     vdW  Elec       q    Type
REMARK                         _______ _______ _______ _____ _____    ______ ____
ROOT
ATOM      1  O   UNL     1       1.898   6.480  20.930  0.00  0.00    +0.000 OA
ATOM      2  C   UNL     1       2.163   6.881  19.790  0.00  0.00    +0.000 C 
ATOM      3  N   UNL     1       1.765   8.181  19.404  0.00  0.00    +0.000 N 
ATOM      4  C   UNL     1       1.922   8.592  17.990  0.00  0.00    +0.000 C 
ATOM      5  C   UNL     1       1.934  10.118  17.740  0.00  0.00    +0.000 C 
ATOM      6  O   UNL     1       0.956  10.832  18.505  0.00  0.00    +0.000 OA
ATOM      7  C   UNL     1       1.197  10.570  19.896  0.00  0.00    +0.000 C 
ATOM      8  C   UNL     1       0.772   9.094  20.117  0.00  0.00    +0.000 C 
ATOM      9  C   UNL     1       0.401   9.074  21.600  0.00  0.00    +0.000 C 
ATOM     10  C   UNL     1      -0.071  10.508  21.952  0.00  0.00    +0.000 C 
ATOM     11  C   UNL     1       0.392  11.478  20.842  0.00  0.00    +0.000 C 
ENDROOT
BRANCH   2  12
ATOM     12  C   UNL     1       3.134   6.000  18.841  0.00  0.00    +0.000 C 
ATOM     13  C   UNL     1       2.510   4.861  17.990  0.00  0.00    +0.000 C 
ATOM     14  C   UNL     1       3.568   4.148  17.120  0.00  0.00    +0.000 C 
ATOM     15  O   UNL     1       4.628   3.623  17.912  0.00  0.00    +0.000 OA
ATOM     16  C   UNL     1       5.292   4.644  18.653  0.00  0.00    +0.000 C 
ATOM     17  C   UNL     1       4.310   5.335  19.610  0.00  0.00    +0.000 C 
ENDBRANCH   2  12
BRANCH  11  18
ATOM     18  O   UNL     1       1.178  12.475  21.542  0.00  0.00    +0.000 OA
BRANCH  18  19
ATOM     19  C   UNL     1       1.664  13.567  20.860  0.00  0.00    +0.000 A 
ATOM     20  C   UNL     1       3.025  13.826  21.002  0.00  0.00    +0.000 A 
ATOM     21  C   UNL     1       3.610  14.835  20.235  0.00  0.00    +0.000 A 
ATOM     22  C   UNL     1       2.819  15.549  19.354  0.00  0.00    +0.000 A 
ATOM     23  C   UNL     1       1.460  15.246  19.305  0.00  0.00    +0.000 A 
ATOM     24  N   UNL     1       0.868  14.269  20.037  0.00  0.00    +0.000 NA
ENDBRANCH  18  19
ENDBRANCH  11  18
TORSDOF 3
ENDMDL
MODEL 6
REMARK VINA RESULT:      -6.4      2.450      4.242
REMARK  Name = 
REMARK  3 active torsions:
REMARK  status: ('A' for Active; 'I' for Inactive)
REMARK    1  A    between atoms: C_2  and  C_3
REMARK    2  A    between atoms: C_17  and  O_18
REMARK    3  A    between atoms: O_18  and  C_19
REMARK                            x       y       z     vdW  Elec       q    Type
REMARK                         _______ _______ _______ _____ _____    ______ ____
ROOT
ATOM      1  O   UNL     1       1.684   8.821  18.508  0.00  0.00    +0.000 OA
ATOM      2  C   UNL     1       1.735   8.455  19.689  0.00  0.00    +0.000 C 
ATOM      3  N   UNL     1       1.112   9.242  20.683  0.00  0.00    +0.000 N 
ATOM      4  C   UNL     1       1.324   8.902  22.109  0.00  0.00    +0.000 C 
ATOM      5  C   UNL     1       0.269   9.464  23.090  0.00  0.00    +0.000 C 
ATOM      6  O   UNL     1      -0.112  10.816  22.809  0.00  0.00    +0.000 OA
ATOM      7  C   UNL     1      -0.624  10.868  21.469  0.00  0.00    +0.000 C 
ATOM      8  C   UNL     1       0.610  10.677  20.548  0.00  0.00    +0.000 C 
ATOM      9  C   UNL     1       0.178  11.385  19.263  0.00  0.00    +0.000 C 
ATOM     10  C   UNL     1      -0.823  12.489  19.688  0.00  0.00    +0.000 C 
ATOM     11  C   UNL     1      -1.315  12.199  21.124  0.00  0.00    +0.000 C 
ENDROOT
BRANCH   2  12
ATOM     12  C   UNL     1       2.324   6.990  20.045  0.00  0.00    +0.000 C 
ATOM     13  C   UNL     1       3.196   6.261  18.988  0.00  0.00    +0.000 C 
ATOM     14  C   UNL     1       3.703   4.896  19.503  0.00  0.00    +0.000 C 
ATOM     15  O   UNL     1       2.624   4.053  19.894  0.00  0.00    +0.000 OA
ATOM     16  C   UNL     1       1.838   4.641  20.927  0.00  0.00    +0.000 C 
ATOM     17  C   UNL     1       1.226   5.964  20.444  0.00  0.00    +0.000 C 
ENDBRANCH   2  12
BRANCH  11  18
ATOM     18  O   UNL     1      -2.757  12.121  21.000  0.00  0.00    +0.000 OA
BRANCH  18  19
ATOM     19  C   UNL     1      -3.557  12.487  22.059  0.00  0.00    +0.000 A 
ATOM     20  C   UNL     1      -4.888  12.767  21.757  0.00  0.00    +0.000 A 
ATOM     21  C   UNL     1      -5.783  13.015  22.799  0.00  0.00    +0.000 A 
ATOM     22  C   UNL     1      -5.323  12.974  24.101  0.00  0.00    +0.000 A 
ATOM     23  C   UNL     1      -3.968  12.723  24.306  0.00  0.00    +0.000 A 
ATOM     24  N   UNL     1      -3.078  12.476  23.313  0.00  0.00    +0.000 NA
ENDBRANCH  18  19
ENDBRANCH  11  18
TORSDOF 3
ENDMDL
MODEL 7
REMARK VINA RESULT:      -6.4      3.030      4.385
REMARK  Name = 
REMARK  3 active torsions:
REMARK  status: ('A' for Active; 'I' for Inactive)
REMARK    1  A    between atoms: C_2  and  C_3
REMARK    2  A    between atoms: C_17  and  O_18
REMARK    3  A    between atoms: O_18  and  C_19
REMARK                            x       y       z     vdW  Elec       q    Type
REMARK                         _______ _______ _______ _____ _____    ______ ____
ROOT
ATOM      1  O   UNL     1       2.691   8.073  17.716  0.00  0.00    +0.000 OA
ATOM      2  C   UNL     1       2.333   7.561  18.784  0.00  0.00    +0.000 C 
ATOM      3  N   UNL     1       1.557   8.321  19.689  0.00  0.00    +0.000 N 
ATOM      4  C   UNL     1       1.282   7.774  21.038  0.00  0.00    +0.000 C 
ATOM      5  C   UNL     1       0.072   8.396  21.772  0.00  0.00    +0.000 C 
ATOM      6  O   UNL     1      -0.014   9.819  21.633  0.00  0.00    +0.000 OA
ATOM      7  C   UNL     1      -0.089  10.129  20.234  0.00  0.00    +0.000 C 
ATOM      8  C   UNL     1       1.326   9.829  19.669  0.00  0.00    +0.000 C 
ATOM      9  C   UNL     1       1.402  10.757  18.456  0.00  0.00    +0.000 C 
ATOM     10  C   UNL     1       0.484  11.966  18.772  0.00  0.00    +0.000 C 
ATOM     11  C   UNL     1      -0.451  11.596  19.946  0.00  0.00    +0.000 C 
ENDROOT
BRANCH   2  12
ATOM     12  C   UNL     1       2.576   5.981  19.032  0.00  0.00    +0.000 C 
ATOM     13  C   UNL     1       4.030   5.475  19.240  0.00  0.00    +0.000 C 
ATOM     14  C   UNL     1       4.077   3.953  19.498  0.00  0.00    +0.000 C 
ATOM     15  O   UNL     1       3.467   3.225  18.438  0.00  0.00    +0.000 OA
ATOM     16  C   UNL     1       2.102   3.592  18.259  0.00  0.00    +0.000 C 
ATOM     17  C   UNL     1       1.991   5.082  17.907  0.00  0.00    +0.000 C 
ENDBRANCH   2  12
BRANCH  11  18
ATOM     18  O   UNL     1      -1.786  11.801  19.418  0.00  0.00    +0.000 OA
BRANCH  18  19
ATOM     19  C   UNL     1      -2.162  11.182  18.248  0.00  0.00    +0.000 A 
ATOM     20  C   UNL     1      -2.813   9.957  18.381  0.00  0.00    +0.000 A 
ATOM     21  C   UNL     1      -3.339   9.340  17.245  0.00  0.00    +0.000 A 
ATOM     22  C   UNL     1      -3.199   9.962  16.020  0.00  0.00    +0.000 A 
ATOM     23  C   UNL     1      -2.500  11.167  15.976  0.00  0.00    +0.000 A 
ATOM     24  N   UNL     1      -1.982  11.789  17.064  0.00  0.00    +0.000 NA
ENDBRANCH  18  19
ENDBRANCH  11  18
TORSDOF 3
ENDMDL
MODEL 8
REMARK VINA RESULT:      -6.4      1.683      2.372
REMARK  Name = 
REMARK  3 active torsions:
REMARK  status: ('A' for Active; 'I' for Inactive)
REMARK    1  A    between atoms: C_2  and  C_3
REMARK    2  A    between atoms: C_17  and  O_18
REMARK    3  A    between atoms: O_18  and  C_19
REMARK                            x       y       z     vdW  Elec       q    Type
REMARK                         _______ _______ _______ _____ _____    ______ ____
ROOT
ATOM      1  O   UNL     1       1.860   6.335  20.827  0.00  0.00    +0.000 OA
ATOM      2  C   UNL     1       2.175   6.790  19.721  0.00  0.00    +0.000 C 
ATOM      3  N   UNL     1       1.773   8.100  19.373  0.00  0.00    +0.000 N 
ATOM      4  C   UNL     1       1.993   8.576  17.987  0.00  0.00    +0.000 C 
ATOM      5  C   UNL     1       1.990  10.112  17.806  0.00  0.00    +0.000 C 
ATOM      6  O   UNL     1       0.962  10.775  18.551  0.00  0.00    +0.000 OA
ATOM      7  C   UNL     1       1.138  10.455  19.939  0.00  0.00    +0.000 C 
ATOM      8  C   UNL     1       0.729   8.964  20.073  0.00  0.00    +0.000 C 
ATOM      9  C   UNL     1       0.285   8.871  21.533  0.00  0.00    +0.000 C 
ATOM     10  C   UNL     1      -0.230  10.281  21.924  0.00  0.00    +0.000 C 
ATOM     11  C   UNL     1       0.270  11.307  20.882  0.00  0.00    +0.000 C 
ENDROOT
BRANCH   2  12
ATOM     12  C   UNL     1       3.208   5.968  18.785  0.00  0.00    +0.000 C 
ATOM     13  C   UNL     1       2.658   4.815  17.902  0.00  0.00    +0.000 C 
ATOM     14  C   UNL     1       3.768   4.163  17.050  0.00  0.00    +0.000 C 
ATOM     15  O   UNL     1       4.831   3.676  17.861  0.00  0.00    +0.000 OA
ATOM     16  C   UNL     1       5.429   4.714  18.632  0.00  0.00    +0.000 C 
ATOM     17  C   UNL     1       4.394   5.345  19.573  0.00  0.00    +0.000 C 
ENDBRANCH   2  12
BRANCH  11  18
ATOM     18  O   UNL     1       1.001  12.284  21.665  0.00  0.00    +0.000 OA
BRANCH  18  19
ATOM     19  C   UNL     1       0.811  13.628  21.434  0.00  0.00    +0.000 A 
ATOM     20  C   UNL     1       0.694  14.012  20.100  0.00  0.00    +0.000 A 
ATOM     21  C   UNL     1       0.367  15.336  19.801  0.00  0.00    +0.000 A 
ATOM     22  C   UNL     1       0.169  16.227  20.838  0.00  0.00    +0.000 A 
ATOM     23  C   UNL     1       0.344  15.763  22.139  0.00  0.00    +0.000 A 
ATOM     24  N   UNL     1       0.657  14.482  22.458  0.00  0.00    +0.000 NA
ENDBRANCH  18  19
ENDBRANCH  11  18
TORSDOF 3
ENDMDL
MODEL 9
REMARK VINA RESULT:      -6.3      2.374      8.673
REMARK  Name = 
REMARK  3 active torsions:
REMARK  status: ('A' for Active; 'I' for Inactive)
REMARK    1  A    between atoms: C_2  and  C_3
REMARK    2  A    between atoms: C_17  and  O_18
REMARK    3  A    between atoms: O_18  and  C_19
REMARK                            x       y       z     vdW  Elec       q    Type
REMARK                         _______ _______ _______ _____ _____    ______ ____
ROOT
ATOM      1  O   UNL     1      -0.349   9.402  22.142  0.00  0.00    +0.000 OA
ATOM      2  C   UNL     1      -0.040  10.216  21.264  0.00  0.00    +0.000 C 
ATOM      3  N   UNL     1       0.834   9.816  20.227  0.00  0.00    +0.000 N 
ATOM      4  C   UNL     1       1.344  10.837  19.281  0.00  0.00    +0.000 C 
ATOM      5  C   UNL     1       1.872  10.288  17.935  0.00  0.00    +0.000 C 
ATOM      6  O   UNL     1       2.655   9.097  18.069  0.00  0.00    +0.000 OA
ATOM      7  C   UNL     1       1.847   8.099  18.712  0.00  0.00    +0.000 C 
ATOM      8  C   UNL     1       1.709   8.567  20.186  0.00  0.00    +0.000 C 
ATOM      9  C   UNL     1       1.475   7.253  20.931  0.00  0.00    +0.000 C 
ATOM     10  C   UNL     1       2.177   6.148  20.100  0.00  0.00    +0.000 C 
ATOM     11  C   UNL     1       2.468   6.691  18.683  0.00  0.00    +0.000 C 
ENDROOT
BRANCH   2  12
ATOM     12  C   UNL     1      -0.797  11.645  21.199  0.00  0.00    +0.000 C 
ATOM     13  C   UNL     1      -1.297  12.284  22.523  0.00  0.00    +0.000 C 
ATOM     14  C   UNL     1      -1.963  13.656  22.283  0.00  0.00    +0.000 C 
ATOM     15  O   UNL     1      -3.046  13.558  21.364  0.00  0.00    +0.000 OA
ATOM     16  C   UNL     1      -2.624  13.054  20.099  0.00  0.00    +0.000 C 
ATOM     17  C   UNL     1      -2.033  11.646  20.255  0.00  0.00    +0.000 C 
ENDBRANCH   2  12
BRANCH  11  18
ATOM     18  O   UNL     1       1.805   5.753  17.797  0.00  0.00    +0.000 OA
BRANCH  18  19
ATOM     19  C   UNL     1       2.201   4.435  17.776  0.00  0.00    +0.000 A 
ATOM     20  C   UNL     1       3.540   4.199  17.474  0.00  0.00    +0.000 A 
ATOM     21  C   UNL     1       4.039   2.899  17.565  0.00  0.00    +0.000 A 
ATOM     22  C   UNL     1       3.188   1.882  17.953  0.00  0.00    +0.000 A 
ATOM     23  C   UNL     1       1.856   2.204  18.199  0.00  0.00    +0.000 A 
ATOM     24  N   UNL     1       1.346   3.459  18.121  0.00  0.00    +0.000 NA
ENDBRANCH  18  19
ENDBRANCH  11  18
TORSDOF 3
ENDMDL
