MODEL 1
REMARK VINA RESULT:      -7.5      0.000      0.000
REMARK  Name = 
REMARK  8 active torsions:
REMARK  status: ('A' for Active; 'I' for Inactive)
REMARK    1  A    between atoms: C_1  and  C_2
REMARK    2  A    between atoms: C_2  and  O_4
REMARK    3  A    between atoms: O_4  and  C_5
REMARK    4  A    between atoms: C_7  and  C_8
REMARK    5  A    between atoms: C_8  and  C_9
REMARK    6  A    between atoms: C_9  and  O_10
REMARK    7  A    between atoms: C_11  and  C_12
REMARK    8  A    between atoms: C_18  and  C_19
REMARK                            x       y       z     vdW  Elec       q    Type
REMARK                         _______ _______ _______ _____ _____    ______ ____
ROOT
ATOM      1  C   UNL     1       2.751   6.287  18.054  0.00  0.00    +0.000 C 
ATOM      2  C   UNL     1       4.024   6.458  17.274  0.00  0.00    +0.000 C 
ATOM      3  C   UNL     1       5.084   5.664  17.535  0.00  0.00    +0.000 C 
ATOM      4  C   UNL     1       5.229   4.575  16.493  0.00  0.00    +0.000 C 
ATOM      5  C   UNL     1       6.680   4.273  16.143  0.00  0.00    +0.000 C 
ATOM      6  C   UNL     1       4.384   3.386  17.007  0.00  0.00    +0.000 C 
ATOM      7  C   UNL     1       2.861   3.678  17.108  0.00  0.00    +0.000 C 
ATOM      8  O   UNL     1       2.212   2.482  17.591  0.00  0.00    +0.000 OA
ATOM      9  C   UNL     1       1.230   2.769  18.483  0.00  0.00    +0.000 C 
ATOM     10  O   UNL     1       0.414   1.944  18.879  0.00  0.00    +0.000 OA
ATOM     11  C   UNL     1       1.319   4.196  18.965  0.00  0.00    +0.000 C 
ATOM     12  C   UNL     1       1.804   4.161  20.401  0.00  0.00    +0.000 C 
ATOM     13  C   UNL     1       2.167   4.846  17.873  0.00  0.00    +0.000 C 
ENDROOT
BRANCH   1  14
ATOM     14  O   UNL     1       2.986   6.773  19.373  0.00  0.00    +0.000 OA
BRANCH  14  16
ATOM     15  C   UNL     1       1.740   8.679  18.784  0.00  0.00    +0.000 C 
ATOM     16  C   UNL     1       2.085   7.676  19.846  0.00  0.00    +0.000 C 
ATOM     17  O   UNL     1       1.592   7.661  20.961  0.00  0.00    +0.000 OA
ENDBRANCH  14  16
ENDBRANCH   1  14
BRANCH   3  18
ATOM     18  C   UNL     1       5.643   5.355  18.920  0.00  0.00    +0.000 C 
BRANCH  18  19
ATOM     19  C   UNL     1       7.102   5.775  19.069  0.00  0.00    +0.000 C 
BRANCH  19  20
ATOM     20  O   UNL     1       7.568   5.372  20.352  0.00  0.00    +0.000 OA
ATOM     21  H   UNL     1       8.467   5.728  20.455  0.00  0.00    +0.000 HD
ENDBRANCH  19  20
ENDBRANCH  18  19
ENDBRANCH   3  18
TORSDOF 5
ENDMDL
MODEL 2
REMARK VINA RESULT:      -6.9      1.952      5.132
REMARK  Name = 
REMARK  8 active torsions:
REMARK  status: ('A' for Active; 'I' for Inactive)
REMARK    1  A    between atoms: C_1  and  C_2
REMARK    2  A    between atoms: C_2  and  O_4
REMARK    3  A    between atoms: O_4  and  C_5
REMARK    4  A    between atoms: C_7  and  C_8
REMARK    5  A    between atoms: C_8  and  C_9
REMARK    6  A    between atoms: C_9  and  O_10
REMARK    7  A    between atoms: C_11  and  C_12
REMARK    8  A    between atoms: C_18  and  C_19
REMARK                            x       y       z     vdW  Elec       q    Type
REMARK                         _______ _______ _______ _____ _____    ______ ____
ROOT
ATOM      1  C   UNL     1       3.204   4.385  17.600  0.00  0.00    +0.000 C 
ATOM      2  C   UNL     1       1.993   5.261  17.757  0.00  0.00    +0.000 C 
ATOM      3  C   UNL     1       2.067   6.384  18.502  0.00  0.00    +0.000 C 
ATOM      4  C   UNL     1       2.179   7.619  17.634  0.00  0.00    +0.000 C 
ATOM      5  C   UNL     1       1.402   8.808  18.183  0.00  0.00    +0.000 C 
ATOM      6  C   UNL     1       3.693   7.835  17.403  0.00  0.00    +0.000 C 
ATOM      7  C   UNL     1       4.390   6.693  16.612  0.00  0.00    +0.000 C 
ATOM      8  O   UNL     1       5.785   7.039  16.471  0.00  0.00    +0.000 OA
ATOM      9  C   UNL     1       6.589   5.957  16.630  0.00  0.00    +0.000 C 
ATOM     10  O   UNL     1       7.786   5.959  16.364  0.00  0.00    +0.000 OA
ATOM     11  C   UNL     1       5.840   4.794  17.231  0.00  0.00    +0.000 C 
ATOM     12  C   UNL     1       6.326   4.630  18.658  0.00  0.00    +0.000 C 
ATOM     13  C   UNL     1       4.388   5.169  16.942  0.00  0.00    +0.000 C 
ENDROOT
BRANCH   1  14
ATOM     14  O   UNL     1       3.422   3.728  18.845  0.00  0.00    +0.000 OA
BRANCH  14  16
ATOM     15  C   UNL     1       3.520   1.467  18.203  0.00  0.00    +0.000 C 
ATOM     16  C   UNL     1       2.809   2.523  19.000  0.00  0.00    +0.000 C 
ATOM     17  O   UNL     1       1.842   2.310  19.710  0.00  0.00    +0.000 OA
ENDBRANCH  14  16
ENDBRANCH   1  14
BRANCH   3  18
ATOM     18  C   UNL     1       2.668   6.482  19.901  0.00  0.00    +0.000 C 
BRANCH  18  19
ATOM     19  C   UNL     1       1.775   5.855  20.967  0.00  0.00    +0.000 C 
BRANCH  19  20
ATOM     20  O   UNL     1       2.436   4.718  21.512  0.00  0.00    +0.000 OA
ATOM     21  H   UNL     1       1.849   3.954  21.378  0.00  0.00    +0.000 HD
ENDBRANCH  19  20
ENDBRANCH  18  19
ENDBRANCH   3  18
TORSDOF 5
ENDMDL
MODEL 3
REMARK VINA RESULT:      -6.7      1.637      4.883
REMARK  Name = 
REMARK  8 active torsions:
REMARK  status: ('A' for Active; 'I' for Inactive)
REMARK    1  A    between atoms: C_1  and  C_2
REMARK    2  A    between atoms: C_2  and  O_4
REMARK    3  A    between atoms: O_4  and  C_5
REMARK    4  A    between atoms: C_7  and  C_8
REMARK    5  A    between atoms: C_8  and  C_9
REMARK    6  A    between atoms: C_9  and  O_10
REMARK    7  A    between atoms: C_11  and  C_12
REMARK    8  A    between atoms: C_18  and  C_19
REMARK                            x       y       z     vdW  Elec       q    Type
REMARK                         _______ _______ _______ _____ _____    ______ ____
ROOT
ATOM      1  C   UNL     1       2.799   4.324  17.843  0.00  0.00    +0.000 C 
ATOM      2  C   UNL     1       1.808   5.453  17.803  0.00  0.00    +0.000 C 
ATOM      3  C   UNL     1       2.073   6.604  18.455  0.00  0.00    +0.000 C 
ATOM      4  C   UNL     1       2.528   7.688  17.500  0.00  0.00    +0.000 C 
ATOM      5  C   UNL     1       1.997   9.067  17.867  0.00  0.00    +0.000 C 
ATOM      6  C   UNL     1       4.065   7.546  17.405  0.00  0.00    +0.000 C 
ATOM      7  C   UNL     1       4.548   6.204  16.788  0.00  0.00    +0.000 C 
ATOM      8  O   UNL     1       5.992   6.223  16.759  0.00  0.00    +0.000 OA
ATOM      9  C   UNL     1       6.517   5.016  17.089  0.00  0.00    +0.000 C 
ATOM     10  O   UNL     1       7.701   4.732  16.945  0.00  0.00    +0.000 OA
ATOM     11  C   UNL     1       5.480   4.112  17.708  0.00  0.00    +0.000 C 
ATOM     12  C   UNL     1       5.802   3.997  19.185  0.00  0.00    +0.000 C 
ATOM     13  C   UNL     1       4.177   4.760  17.244  0.00  0.00    +0.000 C 
ENDROOT
BRANCH   1  14
ATOM     14  O   UNL     1       2.764   3.769  19.155  0.00  0.00    +0.000 OA
BRANCH  14  16
ATOM     15  C   UNL     1       1.159   3.249  20.794  0.00  0.00    +0.000 C 
ATOM     16  C   UNL     1       1.712   2.951  19.430  0.00  0.00    +0.000 C 
ATOM     17  O   UNL     1       1.251   2.116  18.671  0.00  0.00    +0.000 OA
ENDBRANCH  14  16
ENDBRANCH   1  14
BRANCH   3  18
ATOM     18  C   UNL     1       2.568   6.716  19.894  0.00  0.00    +0.000 C 
BRANCH  18  19
ATOM     19  C   UNL     1       1.444   7.030  20.876  0.00  0.00    +0.000 C 
BRANCH  19  20
ATOM     20  O   UNL     1       1.783   8.205  21.604  0.00  0.00    +0.000 OA
ATOM     21  H   UNL     1       1.086   8.861  21.430  0.00  0.00    +0.000 HD
ENDBRANCH  19  20
ENDBRANCH  18  19
ENDBRANCH   3  18
TORSDOF 5
ENDMDL
MODEL 4
REMARK VINA RESULT:      -6.4      1.244      1.323
REMARK  Name = 
REMARK  8 active torsions:
REMARK  status: ('A' for Active; 'I' for Inactive)
REMARK    1  A    between atoms: C_1  and  C_2
REMARK    2  A    between atoms: C_2  and  O_4
REMARK    3  A    between atoms: O_4  and  C_5
REMARK    4  A    between atoms: C_7  and  C_8
REMARK    5  A    between atoms: C_8  and  C_9
REMARK    6  A    between atoms: C_9  and  O_10
REMARK    7  A    between atoms: C_11  and  C_12
REMARK    8  A    between atoms: C_18  and  C_19
REMARK                            x       y       z     vdW  Elec       q    Type
REMARK                         _______ _______ _______ _____ _____    ______ ____
ROOT
ATOM      1  C   UNL     1       2.779   6.247  17.770  0.00  0.00    +0.000 C 
ATOM      2  C   UNL     1       3.896   6.532  16.805  0.00  0.00    +0.000 C 
ATOM      3  C   UNL     1       5.110   5.977  16.999  0.00  0.00    +0.000 C 
ATOM      4  C   UNL     1       5.336   4.801  16.073  0.00  0.00    +0.000 C 
ATOM      5  C   UNL     1       6.767   4.713  15.558  0.00  0.00    +0.000 C 
ATOM      6  C   UNL     1       4.800   3.562  16.827  0.00  0.00    +0.000 C 
ATOM      7  C   UNL     1       3.272   3.595  17.109  0.00  0.00    +0.000 C 
ATOM      8  O   UNL     1       2.924   2.379  17.806  0.00  0.00    +0.000 OA
ATOM      9  C   UNL     1       2.017   2.606  18.790  0.00  0.00    +0.000 C 
ATOM     10  O   UNL     1       1.426   1.712  19.384  0.00  0.00    +0.000 OA
ATOM     11  C   UNL     1       1.889   4.078  19.096  0.00  0.00    +0.000 C 
ATOM     12  C   UNL     1       2.538   4.320  20.445  0.00  0.00    +0.000 C 
ATOM     13  C   UNL     1       2.463   4.715  17.832  0.00  0.00    +0.000 C 
ENDROOT
BRANCH   1  14
ATOM     14  O   UNL     1       3.071   6.938  18.981  0.00  0.00    +0.000 OA
BRANCH  14  16
ATOM     15  C   UNL     1       1.686   7.751  20.700  0.00  0.00    +0.000 C 
ATOM     16  C   UNL     1       2.222   7.949  19.311  0.00  0.00    +0.000 C 
ATOM     17  O   UNL     1       1.955   8.904  18.603  0.00  0.00    +0.000 OA
ENDBRANCH  14  16
ENDBRANCH   1  14
BRANCH   3  18
ATOM     18  C   UNL     1       5.877   5.958  18.318  0.00  0.00    +0.000 C 
BRANCH  18  19
ATOM     19  C   UNL     1       7.261   6.587  18.199  0.00  0.00    +0.000 C 
BRANCH  19  20
ATOM     20  O   UNL     1       7.199   7.663  17.269  0.00  0.00    +0.000 OA
ATOM     21  H   UNL     1       6.549   8.300  17.611  0.00  0.00    +0.000 HD
ENDBRANCH  19  20
ENDBRANCH  18  19
ENDBRANCH   3  18
TORSDOF 5
ENDMDL
MODEL 5
REMARK VINA RESULT:      -6.2      2.207      5.084
REMARK  Name = 
REMARK  8 active torsions:
REMARK  status: ('A' for Active; 'I' for Inactive)
REMARK    1  A    between atoms: C_1  and  C_2
REMARK    2  A    between atoms: C_2  and  O_4
REMARK    3  A    between atoms: O_4  and  C_5
REMARK    4  A    between atoms: C_7  and  C_8
REMARK    5  A    between atoms: C_8  and  C_9
REMARK    6  A    between atoms: C_9  and  O_10
REMARK    7  A    between atoms: C_11  and  C_12
REMARK    8  A    between atoms: C_18  and  C_19
REMARK                            x       y       z     vdW  Elec       q    Type
REMARK                         _______ _______ _______ _____ _____    ______ ____
ROOT
ATOM      1  C   UNL     1       4.349   4.090  16.845  0.00  0.00    +0.000 C 
ATOM      2  C   UNL     1       3.663   2.895  17.446  0.00  0.00    +0.000 C 
ATOM      3  C   UNL     1       3.448   2.842  18.777  0.00  0.00    +0.000 C 
ATOM      4  C   UNL     1       2.008   3.163  19.119  0.00  0.00    +0.000 C 
ATOM      5  C   UNL     1       1.464   2.319  20.265  0.00  0.00    +0.000 C 
ATOM      6  C   UNL     1       1.952   4.696  19.308  0.00  0.00    +0.000 C 
ATOM      7  C   UNL     1       2.277   5.513  18.026  0.00  0.00    +0.000 C 
ATOM      8  O   UNL     1       2.178   6.915  18.357  0.00  0.00    +0.000 OA
ATOM      9  C   UNL     1       3.161   7.641  17.766  0.00  0.00    +0.000 C 
ATOM     10  O   UNL     1       3.171   8.867  17.736  0.00  0.00    +0.000 OA
ATOM     11  C   UNL     1       4.253   6.755  17.221  0.00  0.00    +0.000 C 
ATOM     12  C   UNL     1       5.467   6.931  18.112  0.00  0.00    +0.000 C 
ATOM     13  C   UNL     1       3.546   5.404  17.127  0.00  0.00    +0.000 C 
ENDROOT
BRANCH   1  14
ATOM     14  O   UNL     1       5.722   4.029  17.219  0.00  0.00    +0.000 OA
BRANCH  14  16
ATOM     15  C   UNL     1       5.960   4.022  14.879  0.00  0.00    +0.000 C 
ATOM     16  C   UNL     1       6.623   4.200  16.214  0.00  0.00    +0.000 C 
ATOM     17  O   UNL     1       7.797   4.491  16.362  0.00  0.00    +0.000 OA
ENDBRANCH  14  16
ENDBRANCH   1  14
BRANCH   3  18
ATOM     18  C   UNL     1       4.484   3.144  19.856  0.00  0.00    +0.000 C 
BRANCH  18  19
ATOM     19  C   UNL     1       4.823   1.918  20.699  0.00  0.00    +0.000 C 
BRANCH  19  20
ATOM     20  O   UNL     1       5.206   0.855  19.832  0.00  0.00    +0.000 OA
ATOM     21  H   UNL     1       4.388   0.446  19.502  0.00  0.00    +0.000 HD
ENDBRANCH  19  20
ENDBRANCH  18  19
ENDBRANCH   3  18
TORSDOF 5
ENDMDL
MODEL 6
REMARK VINA RESULT:      -6.0      1.696      4.799
REMARK  Name = 
REMARK  8 active torsions:
REMARK  status: ('A' for Active; 'I' for Inactive)
REMARK    1  A    between atoms: C_1  and  C_2
REMARK    2  A    between atoms: C_2  and  O_4
REMARK    3  A    between atoms: O_4  and  C_5
REMARK    4  A    between atoms: C_7  and  C_8
REMARK    5  A    between atoms: C_8  and  C_9
REMARK    6  A    between atoms: C_9  and  O_10
REMARK    7  A    between atoms: C_11  and  C_12
REMARK    8  A    between atoms: C_18  and  C_19
REMARK                            x       y       z     vdW  Elec       q    Type
REMARK                         _______ _______ _______ _____ _____    ______ ____
ROOT
ATOM      1  C   UNL     1       3.326   6.415  19.330  0.00  0.00    +0.000 C 
ATOM      2  C   UNL     1       2.501   5.619  20.302  0.00  0.00    +0.000 C 
ATOM      3  C   UNL     1       2.151   4.351  20.006  0.00  0.00    +0.000 C 
ATOM      4  C   UNL     1       3.010   3.351  20.750  0.00  0.00    +0.000 C 
ATOM      5  C   UNL     1       2.233   2.127  21.218  0.00  0.00    +0.000 C 
ATOM      6  C   UNL     1       4.230   3.083  19.838  0.00  0.00    +0.000 C 
ATOM      7  C   UNL     1       5.133   4.325  19.595  0.00  0.00    +0.000 C 
ATOM      8  O   UNL     1       6.223   3.919  18.740  0.00  0.00    +0.000 OA
ATOM      9  C   UNL     1       6.518   4.869  17.817  0.00  0.00    +0.000 C 
ATOM     10  O   UNL     1       7.522   4.841  17.114  0.00  0.00    +0.000 OA
ATOM     11  C   UNL     1       5.430   5.910  17.727  0.00  0.00    +0.000 C 
ATOM     12  C   UNL     1       4.704   5.696  16.413  0.00  0.00    +0.000 C 
ATOM     13  C   UNL     1       4.702   5.722  19.057  0.00  0.00    +0.000 C 
ENDROOT
BRANCH   1  14
ATOM     14  O   UNL     1       2.489   6.742  18.224  0.00  0.00    +0.000 OA
BRANCH  14  16
ATOM     15  C   UNL     1       1.546   8.717  19.086  0.00  0.00    +0.000 C 
ATOM     16  C   UNL     1       2.319   8.069  17.975  0.00  0.00    +0.000 C 
ATOM     17  O   UNL     1       2.759   8.666  17.007  0.00  0.00    +0.000 OA
ENDBRANCH  14  16
ENDBRANCH   1  14
BRANCH   3  18
ATOM     18  C   UNL     1       1.556   3.880  18.682  0.00  0.00    +0.000 C 
BRANCH  18  19
ATOM     19  C   UNL     1       0.269   3.082  18.870  0.00  0.00    +0.000 C 
BRANCH  19  20
ATOM     20  O   UNL     1       0.429   1.802  18.267  0.00  0.00    +0.000 OA
ATOM     21  H   UNL     1       0.616   1.170  18.982  0.00  0.00    +0.000 HD
ENDBRANCH  19  20
ENDBRANCH  18  19
ENDBRANCH   3  18
TORSDOF 5
ENDMDL
MODEL 7
REMARK VINA RESULT:      -6.0      2.157      4.256
REMARK  Name = 
REMARK  8 active torsions:
REMARK  status: ('A' for Active; 'I' for Inactive)
REMARK    1  A    between atoms: C_1  and  C_2
REMARK    2  A    between atoms: C_2  and  O_4
REMARK    3  A    between atoms: O_4  and  C_5
REMARK    4  A    between atoms: C_7  and  C_8
REMARK    5  A    between atoms: C_8  and  C_9
REMARK    6  A    between atoms: C_9  and  O_10
REMARK    7  A    between atoms: C_11  and  C_12
REMARK    8  A    between atoms: C_18  and  C_19
REMARK                            x       y       z     vdW  Elec       q    Type
REMARK                         _______ _______ _______ _____ _____    ______ ____
ROOT
ATOM      1  C   UNL     1       5.312   4.870  19.040  0.00  0.00    +0.000 C 
ATOM      2  C   UNL     1       5.155   6.335  18.747  0.00  0.00    +0.000 C 
ATOM      3  C   UNL     1       4.304   6.741  17.782  0.00  0.00    +0.000 C 
ATOM      4  C   UNL     1       3.014   7.273  18.370  0.00  0.00    +0.000 C 
ATOM      5  C   UNL     1       2.463   8.475  17.613  0.00  0.00    +0.000 C 
ATOM      6  C   UNL     1       2.074   6.052  18.497  0.00  0.00    +0.000 C 
ATOM      7  C   UNL     1       2.572   4.959  19.483  0.00  0.00    +0.000 C 
ATOM      8  O   UNL     1       1.594   3.897  19.498  0.00  0.00    +0.000 OA
ATOM      9  C   UNL     1       2.181   2.674  19.540  0.00  0.00    +0.000 C 
ATOM     10  O   UNL     1       1.567   1.636  19.756  0.00  0.00    +0.000 OA
ATOM     11  C   UNL     1       3.654   2.756  19.221  0.00  0.00    +0.000 C 
ATOM     12  C   UNL     1       3.854   2.155  17.843  0.00  0.00    +0.000 C 
ATOM     13  C   UNL     1       3.951   4.232  19.477  0.00  0.00    +0.000 C 
ENDROOT
BRANCH   1  14
ATOM     14  O   UNL     1       6.026   4.289  17.952  0.00  0.00    +0.000 OA
BRANCH  14  16
ATOM     15  C   UNL     1       7.820   5.271  19.114  0.00  0.00    +0.000 C 
ATOM     16  C   UNL     1       7.335   4.642  17.840  0.00  0.00    +0.000 C 
ATOM     17  O   UNL     1       8.036   4.448  16.861  0.00  0.00    +0.000 OA
ENDBRANCH  14  16
ENDBRANCH   1  14
BRANCH   3  18
ATOM     18  C   UNL     1       4.218   6.163  16.373  0.00  0.00    +0.000 C 
BRANCH  18  19
ATOM     19  C   UNL     1       5.318   6.691  15.457  0.00  0.00    +0.000 C 
BRANCH  19  20
ATOM     20  O   UNL     1       6.061   5.589  14.947  0.00  0.00    +0.000 OA
ATOM     21  H   UNL     1       6.984   5.882  14.861  0.00  0.00    +0.000 HD
ENDBRANCH  19  20
ENDBRANCH  18  19
ENDBRANCH   3  18
TORSDOF 5
ENDMDL
MODEL 8
REMARK VINA RESULT:      -5.9      2.084      5.028
REMARK  Name = 
REMARK  8 active torsions:
REMARK  status: ('A' for Active; 'I' for Inactive)
REMARK    1  A    between atoms: C_1  and  C_2
REMARK    2  A    between atoms: C_2  and  O_4
REMARK    3  A    between atoms: O_4  and  C_5
REMARK    4  A    between atoms: C_7  and  C_8
REMARK    5  A    between atoms: C_8  and  C_9
REMARK    6  A    between atoms: C_9  and  O_10
REMARK    7  A    between atoms: C_11  and  C_12
REMARK    8  A    between atoms: C_18  and  C_19
REMARK                            x       y       z     vdW  Elec       q    Type
REMARK                         _______ _______ _______ _____ _____    ______ ____
ROOT
ATOM      1  C   UNL     1       5.998   4.370  18.632  0.00  0.00    +0.000 C 
ATOM      2  C   UNL     1       4.728   3.966  19.326  0.00  0.00    +0.000 C 
ATOM      3  C   UNL     1       3.554   4.518  18.956  0.00  0.00    +0.000 C 
ATOM      4  C   UNL     1       2.746   3.571  18.093  0.00  0.00    +0.000 C 
ATOM      5  C   UNL     1       1.251   3.636  18.376  0.00  0.00    +0.000 C 
ATOM      6  C   UNL     1       3.182   3.853  16.637  0.00  0.00    +0.000 C 
ATOM      7  C   UNL     1       4.674   3.531  16.341  0.00  0.00    +0.000 C 
ATOM      8  O   UNL     1       4.926   3.836  14.952  0.00  0.00    +0.000 OA
ATOM      9  C   UNL     1       6.138   4.422  14.778  0.00  0.00    +0.000 C 
ATOM     10  O   UNL     1       6.656   4.592  13.680  0.00  0.00    +0.000 OA
ATOM     11  C   UNL     1       6.720   4.888  16.090  0.00  0.00    +0.000 C 
ATOM     12  C   UNL     1       6.647   6.402  16.107  0.00  0.00    +0.000 C 
ATOM     13  C   UNL     1       5.929   4.059  17.100  0.00  0.00    +0.000 C 
ENDROOT
BRANCH   1  14
ATOM     14  O   UNL     1       6.313   5.696  19.051  0.00  0.00    +0.000 OA
BRANCH  14  16
ATOM     15  C   UNL     1       8.265   6.993  18.853  0.00  0.00    +0.000 C 
ATOM     16  C   UNL     1       7.558   5.879  19.568  0.00  0.00    +0.000 C 
ATOM     17  O   UNL     1       8.031   5.257  20.505  0.00  0.00    +0.000 OA
ENDBRANCH  14  16
ENDBRANCH   1  14
BRANCH   3  18
ATOM     18  C   UNL     1       3.299   6.008  18.750  0.00  0.00    +0.000 C 
BRANCH  18  19
ATOM     19  C   UNL     1       2.496   6.626  19.891  0.00  0.00    +0.000 C 
BRANCH  19  20
ATOM     20  O   UNL     1       2.398   5.680  20.950  0.00  0.00    +0.000 OA
ATOM     21  H   UNL     1       3.305   5.468  21.229  0.00  0.00    +0.000 HD
ENDBRANCH  19  20
ENDBRANCH  18  19
ENDBRANCH   3  18
TORSDOF 5
ENDMDL
MODEL 9
REMARK VINA RESULT:      -5.9      1.856      4.621
REMARK  Name = 
REMARK  8 active torsions:
REMARK  status: ('A' for Active; 'I' for Inactive)
REMARK    1  A    between atoms: C_1  and  C_2
REMARK    2  A    between atoms: C_2  and  O_4
REMARK    3  A    between atoms: O_4  and  C_5
REMARK    4  A    between atoms: C_7  and  C_8
REMARK    5  A    between atoms: C_8  and  C_9
REMARK    6  A    between atoms: C_9  and  O_10
REMARK    7  A    between atoms: C_11  and  C_12
REMARK    8  A    between atoms: C_18  and  C_19
REMARK                            x       y       z     vdW  Elec       q    Type
REMARK                         _______ _______ _______ _____ _____    ______ ____
ROOT
ATOM      1  C   UNL     1       3.802   6.092  19.157  0.00  0.00    +0.000 C 
ATOM      2  C   UNL     1       3.269   4.814  19.741  0.00  0.00    +0.000 C 
ATOM      3  C   UNL     1       3.054   3.748  18.942  0.00  0.00    +0.000 C 
ATOM      4  C   UNL     1       4.156   2.719  19.085  0.00  0.00    +0.000 C 
ATOM      5  C   UNL     1       3.645   1.285  19.024  0.00  0.00    +0.000 C 
ATOM      6  C   UNL     1       5.232   3.109  18.046  0.00  0.00    +0.000 C 
ATOM      7  C   UNL     1       5.902   4.488  18.303  0.00  0.00    +0.000 C 
ATOM      8  O   UNL     1       6.880   4.706  17.264  0.00  0.00    +0.000 OA
ATOM      9  C   UNL     1       6.883   5.995  16.840  0.00  0.00    +0.000 C 
ATOM     10  O   UNL     1       7.751   6.466  16.112  0.00  0.00    +0.000 OA
ATOM     11  C   UNL     1       5.661   6.738  17.319  0.00  0.00    +0.000 C 
ATOM     12  C   UNL     1       4.764   6.961  16.116  0.00  0.00    +0.000 C 
ATOM     13  C   UNL     1       5.197   5.867  18.484  0.00  0.00    +0.000 C 
ENDROOT
BRANCH   1  14
ATOM     14  O   UNL     1       2.756   6.683  18.390  0.00  0.00    +0.000 OA
BRANCH  14  16
ATOM     15  C   UNL     1       2.052   8.851  17.812  0.00  0.00    +0.000 C 
ATOM     16  C   UNL     1       2.218   7.826  18.895  0.00  0.00    +0.000 C 
ATOM     17  O   UNL     1       1.880   7.993  20.055  0.00  0.00    +0.000 OA
ENDBRANCH  14  16
ENDBRANCH   1  14
BRANCH   3  18
ATOM     18  C   UNL     1       2.320   3.773  17.605  0.00  0.00    +0.000 C 
BRANCH  18  19
ATOM     19  C   UNL     1       0.804   3.717  17.770  0.00  0.00    +0.000 C 
BRANCH  19  20
ATOM     20  O   UNL     1       0.459   2.519  18.457  0.00  0.00    +0.000 OA
ATOM     21  H   UNL     1       0.630   1.781  17.847  0.00  0.00    +0.000 HD
ENDBRANCH  19  20
ENDBRANCH  18  19
ENDBRANCH   3  18
TORSDOF 5
ENDMDL
