MODEL 1
REMARK VINA RESULT:      -8.8      0.000      0.000
REMARK  Name = 
REMARK  7 active torsions:
REMARK  status: ('A' for Active; 'I' for Inactive)
REMARK    1  A    between atoms: C_1  and  C_2
REMARK    2  A    between atoms: C_2  and  N_3
REMARK    3  A    between atoms: C_2  and  C_20
REMARK    4  A    between atoms: C_9  and  N_10
REMARK    5  A    between atoms: C_15  and  C_16
REMARK    6  A    between atoms: C_16  and  C_17
REMARK    7  A    between atoms: N_23  and  C_24
REMARK                            x       y       z     vdW  Elec       q    Type
REMARK                         _______ _______ _______ _____ _____    ______ ____
ROOT
ATOM      1  N   UNL     1       1.650   6.364  20.249  0.00  0.00    +0.000 N 
ATOM      2  C   UNL     1       2.570   5.355  20.097  0.00  0.00    +0.000 A 
ATOM      3  N   UNL     1       2.234   4.182  20.653  0.00  0.00    +0.000 NA
ATOM      4  C   UNL     1       3.045   3.130  20.409  0.00  0.00    +0.000 A 
ATOM      5  C   UNL     1       4.156   3.208  19.616  0.00  0.00    +0.000 A 
ATOM      6  F   UNL     1       4.979   2.165  19.467  0.00  0.00    +0.000 F 
ATOM      7  C   UNL     1       4.452   4.463  19.128  0.00  0.00    +0.000 A 
ATOM      8  N   UNL     1       3.692   5.548  19.382  0.00  0.00    +0.000 NA
ATOM      9  H   UNL     1       1.047   6.162  21.036  0.00  0.00    +0.000 HD
ENDROOT
BRANCH   7  10
ATOM     10  N   UNL     1       5.671   4.647  18.466  0.00  0.00    +0.000 N 
ATOM     11  C   UNL     1       6.838   4.959  19.110  0.00  0.00    +0.000 C 
ATOM     12  O   UNL     1       6.994   5.224  20.290  0.00  0.00    +0.000 OA
ATOM     13  O   UNL     1       7.873   4.888  18.215  0.00  0.00    +0.000 OA
ATOM     14  C   UNL     1       7.320   4.717  16.904  0.00  0.00    +0.000 C 
ATOM     15  C   UNL     1       5.896   4.228  17.114  0.00  0.00    +0.000 C 
BRANCH  15  16
ATOM     16  C   UNL     1       4.903   4.869  16.132  0.00  0.00    +0.000 C 
ATOM     17  C   UNL     1       5.067   6.364  15.950  0.00  0.00    +0.000 C 
ATOM     18  F   UNL     1       5.068   4.303  14.900  0.00  0.00    +0.000 F 
ENDBRANCH  15  16
ENDBRANCH   7  10
BRANCH   1  20
ATOM     19  C   UNL     1       1.943   8.045  18.558  0.00  0.00    +0.000 C 
ATOM     20  C   UNL     1       2.057   7.743  20.063  0.00  0.00    +0.000 C 
BRANCH  20  21
ATOM     21  C   UNL     1       1.292   8.740  20.883  0.00  0.00    +0.000 A 
ATOM     22  C   UNL     1       1.442   9.009  22.258  0.00  0.00    +0.000 A 
ATOM     23  N   UNL     1       0.654   9.996  22.685  0.00  0.00    +0.000 NA
ATOM     24  N   UNL     1      -0.065  10.362  21.594  0.00  0.00    +0.000 N 
ATOM     25  C   UNL     1       0.287   9.606  20.495  0.00  0.00    +0.000 A 
BRANCH  24  26
ATOM     26  C   UNL     1      -1.029  11.407  21.656  0.00  0.00    +0.000 A 
ATOM     27  C   UNL     1      -1.474  11.869  22.906  0.00  0.00    +0.000 A 
ATOM     28  C   UNL     1      -2.422  12.894  22.981  0.00  0.00    +0.000 A 
ATOM     29  C   UNL     1      -2.932  13.456  21.814  0.00  0.00    +0.000 A 
ATOM     30 CL   UNL     1      -4.109  14.707  21.905  0.00  0.00    +0.000 Cl
ATOM     31  C   UNL     1      -2.496  13.009  20.568  0.00  0.00    +0.000 A 
ATOM     32  C   UNL     1      -1.543  11.988  20.486  0.00  0.00    +0.000 A 
ENDBRANCH  24  26
ENDBRANCH  20  21
ENDBRANCH   1  20
TORSDOF 5
ENDMDL
MODEL 2
REMARK VINA RESULT:      -8.4      0.973      1.524
REMARK  Name = 
REMARK  7 active torsions:
REMARK  status: ('A' for Active; 'I' for Inactive)
REMARK    1  A    between atoms: C_1  and  C_2
REMARK    2  A    between atoms: C_2  and  N_3
REMARK    3  A    between atoms: C_2  and  C_20
REMARK    4  A    between atoms: C_9  and  N_10
REMARK    5  A    between atoms: C_15  and  C_16
REMARK    6  A    between atoms: C_16  and  C_17
REMARK    7  A    between atoms: N_23  and  C_24
REMARK                            x       y       z     vdW  Elec       q    Type
REMARK                         _______ _______ _______ _____ _____    ______ ____
ROOT
ATOM      1  N   UNL     1       1.708   6.923  19.571  0.00  0.00    +0.000 N 
ATOM      2  C   UNL     1       2.579   5.863  19.642  0.00  0.00    +0.000 A 
ATOM      3  N   UNL     1       2.169   4.831  20.394  0.00  0.00    +0.000 NA
ATOM      4  C   UNL     1       2.932   3.717  20.379  0.00  0.00    +0.000 A 
ATOM      5  C   UNL     1       4.067   3.595  19.626  0.00  0.00    +0.000 A 
ATOM      6  F   UNL     1       4.839   2.507  19.703  0.00  0.00    +0.000 F 
ATOM      7  C   UNL     1       4.439   4.722  18.924  0.00  0.00    +0.000 A 
ATOM      8  N   UNL     1       3.728   5.869  18.945  0.00  0.00    +0.000 NA
ATOM      9  H   UNL     1       1.074   6.899  20.359  0.00  0.00    +0.000 HD
ENDROOT
BRANCH   7  10
ATOM     10  N   UNL     1       5.683   4.724  18.284  0.00  0.00    +0.000 N 
ATOM     11  C   UNL     1       6.862   4.985  18.930  0.00  0.00    +0.000 C 
ATOM     12  O   UNL     1       7.019   5.348  20.083  0.00  0.00    +0.000 OA
ATOM     13  O   UNL     1       7.903   4.729  18.077  0.00  0.00    +0.000 OA
ATOM     14  C   UNL     1       7.362   4.484  16.772  0.00  0.00    +0.000 C 
ATOM     15  C   UNL     1       5.894   4.156  16.986  0.00  0.00    +0.000 C 
BRANCH  15  16
ATOM     16  C   UNL     1       4.988   4.789  15.918  0.00  0.00    +0.000 C 
ATOM     17  C   UNL     1       5.232   6.264  15.674  0.00  0.00    +0.000 C 
ATOM     18  F   UNL     1       5.194   4.154  14.726  0.00  0.00    +0.000 F 
ENDBRANCH  15  16
ENDBRANCH   7  10
BRANCH   1  20
ATOM     19  C   UNL     1       2.526   8.110  17.649  0.00  0.00    +0.000 C 
ATOM     20  C   UNL     1       2.189   8.223  19.147  0.00  0.00    +0.000 C 
BRANCH  20  21
ATOM     21  C   UNL     1       1.247   9.360  19.414  0.00  0.00    +0.000 A 
ATOM     22  C   UNL     1       0.866  10.381  18.520  0.00  0.00    +0.000 A 
ATOM     23  N   UNL     1      -0.036  11.216  19.037  0.00  0.00    +0.000 NA
ATOM     24  N   UNL     1      -0.229  10.775  20.306  0.00  0.00    +0.000 N 
ATOM     25  C   UNL     1       0.548   9.666  20.566  0.00  0.00    +0.000 A 
BRANCH  24  26
ATOM     26  C   UNL     1      -1.141  11.423  21.187  0.00  0.00    +0.000 A 
ATOM     27  C   UNL     1      -2.068  12.344  20.672  0.00  0.00    +0.000 A 
ATOM     28  C   UNL     1      -2.968  12.988  21.526  0.00  0.00    +0.000 A 
ATOM     29  C   UNL     1      -2.943  12.720  22.892  0.00  0.00    +0.000 A 
ATOM     30 CL   UNL     1      -4.041  13.524  23.946  0.00  0.00    +0.000 Cl
ATOM     31  C   UNL     1      -2.032  11.805  23.414  0.00  0.00    +0.000 A 
ATOM     32  C   UNL     1      -1.132  11.153  22.564  0.00  0.00    +0.000 A 
ENDBRANCH  24  26
ENDBRANCH  20  21
ENDBRANCH   1  20
TORSDOF 5
ENDMDL
MODEL 3
REMARK VINA RESULT:      -8.2      1.381      1.666
REMARK  Name = 
REMARK  7 active torsions:
REMARK  status: ('A' for Active; 'I' for Inactive)
REMARK    1  A    between atoms: C_1  and  C_2
REMARK    2  A    between atoms: C_2  and  N_3
REMARK    3  A    between atoms: C_2  and  C_20
REMARK    4  A    between atoms: C_9  and  N_10
REMARK    5  A    between atoms: C_15  and  C_16
REMARK    6  A    between atoms: C_16  and  C_17
REMARK    7  A    between atoms: N_23  and  C_24
REMARK                            x       y       z     vdW  Elec       q    Type
REMARK                         _______ _______ _______ _____ _____    ______ ____
ROOT
ATOM      1  N   UNL     1       1.499   6.745  18.338  0.00  0.00    +0.000 N 
ATOM      2  C   UNL     1       2.257   5.614  18.157  0.00  0.00    +0.000 A 
ATOM      3  N   UNL     1       1.569   4.466  18.074  0.00  0.00    +0.000 NA
ATOM      4  C   UNL     1       2.263   3.352  17.759  0.00  0.00    +0.000 A 
ATOM      5  C   UNL     1       3.606   3.353  17.503  0.00  0.00    +0.000 A 
ATOM      6  F   UNL     1       4.272   2.216  17.276  0.00  0.00    +0.000 F 
ATOM      7  C   UNL     1       4.241   4.567  17.660  0.00  0.00    +0.000 A 
ATOM      8  N   UNL     1       3.591   5.695  18.015  0.00  0.00    +0.000 NA
ATOM      9  H   UNL     1       0.597   6.495  18.723  0.00  0.00    +0.000 HD
ENDROOT
BRANCH   7  10
ATOM     10  N   UNL     1       5.638   4.598  17.594  0.00  0.00    +0.000 N 
ATOM     11  C   UNL     1       6.440   4.766  18.692  0.00  0.00    +0.000 C 
ATOM     12  O   UNL     1       6.099   5.013  19.836  0.00  0.00    +0.000 OA
ATOM     13  O   UNL     1       7.745   4.567  18.324  0.00  0.00    +0.000 OA
ATOM     14  C   UNL     1       7.796   4.462  16.895  0.00  0.00    +0.000 C 
ATOM     15  C   UNL     1       6.376   4.152  16.451  0.00  0.00    +0.000 C 
BRANCH  15  16
ATOM     16  C   UNL     1       5.982   4.909  15.171  0.00  0.00    +0.000 C 
ATOM     17  C   UNL     1       7.103   5.079  14.166  0.00  0.00    +0.000 C 
ATOM     18  F   UNL     1       4.987   4.221  14.537  0.00  0.00    +0.000 F 
ENDBRANCH  15  16
ENDBRANCH   7  10
BRANCH   1  20
ATOM     19  C   UNL     1       2.301   8.898  17.638  0.00  0.00    +0.000 C 
ATOM     20  C   UNL     1       2.120   7.955  18.840  0.00  0.00    +0.000 C 
BRANCH  20  21
ATOM     21  C   UNL     1       1.376   8.626  19.958  0.00  0.00    +0.000 A 
ATOM     22  C   UNL     1       1.383   8.272  21.322  0.00  0.00    +0.000 A 
ATOM     23  N   UNL     1       0.665   9.101  22.079  0.00  0.00    +0.000 NA
ATOM     24  N   UNL     1       0.134   9.995  21.206  0.00  0.00    +0.000 N 
ATOM     25  C   UNL     1       0.533   9.720  19.915  0.00  0.00    +0.000 A 
BRANCH  24  26
ATOM     26  C   UNL     1      -0.706  11.056  21.649  0.00  0.00    +0.000 A 
ATOM     27  C   UNL     1      -1.023  12.104  20.770  0.00  0.00    +0.000 A 
ATOM     28  C   UNL     1      -1.846  13.153  21.193  0.00  0.00    +0.000 A 
ATOM     29  C   UNL     1      -2.348  13.162  22.491  0.00  0.00    +0.000 A 
ATOM     30 CL   UNL     1      -3.348  14.460  23.017  0.00  0.00    +0.000 Cl
ATOM     31  C   UNL     1      -2.043  12.126  23.371  0.00  0.00    +0.000 A 
ATOM     32  C   UNL     1      -1.226  11.071  22.953  0.00  0.00    +0.000 A 
ENDBRANCH  24  26
ENDBRANCH  20  21
ENDBRANCH   1  20
TORSDOF 5
ENDMDL
MODEL 4
REMARK VINA RESULT:      -8.1      1.076      1.084
REMARK  Name = 
REMARK  7 active torsions:
REMARK  status: ('A' for Active; 'I' for Inactive)
REMARK    1  A    between atoms: C_1  and  C_2
REMARK    2  A    between atoms: C_2  and  N_3
REMARK    3  A    between atoms: C_2  and  C_20
REMARK    4  A    between atoms: C_9  and  N_10
REMARK    5  A    between atoms: C_15  and  C_16
REMARK    6  A    between atoms: C_16  and  C_17
REMARK    7  A    between atoms: N_23  and  C_24
REMARK                            x       y       z     vdW  Elec       q    Type
REMARK                         _______ _______ _______ _____ _____    ______ ____
ROOT
ATOM      1  N   UNL     1       1.453   6.626  19.214  0.00  0.00    +0.000 N 
ATOM      2  C   UNL     1       2.255   5.519  19.073  0.00  0.00    +0.000 A 
ATOM      3  N   UNL     1       1.686   4.350  19.400  0.00  0.00    +0.000 NA
ATOM      4  C   UNL     1       2.393   3.229  19.146  0.00  0.00    +0.000 A 
ATOM      5  C   UNL     1       3.627   3.237  18.559  0.00  0.00    +0.000 A 
ATOM      6  F   UNL     1       4.330   2.111  18.400  0.00  0.00    +0.000 F 
ATOM      7  C   UNL     1       4.155   4.484  18.302  0.00  0.00    +0.000 A 
ATOM      8  N   UNL     1       3.500   5.631  18.579  0.00  0.00    +0.000 NA
ATOM      9  H   UNL     1       0.700   6.423  19.859  0.00  0.00    +0.000 HD
ENDROOT
BRANCH   7  10
ATOM     10  N   UNL     1       5.485   4.566  17.874  0.00  0.00    +0.000 N 
ATOM     11  C   UNL     1       6.539   4.770  18.725  0.00  0.00    +0.000 C 
ATOM     12  O   UNL     1       6.499   5.010  19.920  0.00  0.00    +0.000 OA
ATOM     13  O   UNL     1       7.709   4.616  18.029  0.00  0.00    +0.000 OA
ATOM     14  C   UNL     1       7.389   4.505  16.636  0.00  0.00    +0.000 C 
ATOM     15  C   UNL     1       5.915   4.141  16.576  0.00  0.00    +0.000 C 
BRANCH  15  16
ATOM     16  C   UNL     1       5.174   4.875  15.447  0.00  0.00    +0.000 C 
ATOM     17  C   UNL     1       5.278   6.386  15.498  0.00  0.00    +0.000 C 
ATOM     18  F   UNL     1       5.696   4.486  14.246  0.00  0.00    +0.000 F 
ENDBRANCH  15  16
ENDBRANCH   7  10
BRANCH   1  20
ATOM     19  C   UNL     1       1.937   8.567  17.885  0.00  0.00    +0.000 C 
ATOM     20  C   UNL     1       2.051   7.944  19.287  0.00  0.00    +0.000 C 
BRANCH  20  21
ATOM     21  C   UNL     1       1.465   8.843  20.337  0.00  0.00    +0.000 A 
ATOM     22  C   UNL     1       1.492   8.655  21.734  0.00  0.00    +0.000 A 
ATOM     23  N   UNL     1       0.935   9.662  22.406  0.00  0.00    +0.000 NA
ATOM     24  N   UNL     1       0.490  10.514  21.447  0.00  0.00    +0.000 N 
ATOM     25  C   UNL     1       0.781  10.034  20.188  0.00  0.00    +0.000 A 
BRANCH  24  26
ATOM     26  C   UNL     1      -0.171  11.730  21.782  0.00  0.00    +0.000 A 
ATOM     27  C   UNL     1      -1.145  11.734  22.793  0.00  0.00    +0.000 A 
ATOM     28  C   UNL     1      -1.803  12.922  23.131  0.00  0.00    +0.000 A 
ATOM     29  C   UNL     1      -1.495  14.102  22.460  0.00  0.00    +0.000 A 
ATOM     30 CL   UNL     1      -2.314  15.560  22.865  0.00  0.00    +0.000 Cl
ATOM     31  C   UNL     1      -0.527  14.110  21.458  0.00  0.00    +0.000 A 
ATOM     32  C   UNL     1       0.139  12.928  21.119  0.00  0.00    +0.000 A 
ENDBRANCH  24  26
ENDBRANCH  20  21
ENDBRANCH   1  20
TORSDOF 5
ENDMDL
MODEL 5
REMARK VINA RESULT:      -8.1      6.116      8.138
REMARK  Name = 
REMARK  7 active torsions:
REMARK  status: ('A' for Active; 'I' for Inactive)
REMARK    1  A    between atoms: C_1  and  C_2
REMARK    2  A    between atoms: C_2  and  N_3
REMARK    3  A    between atoms: C_2  and  C_20
REMARK    4  A    between atoms: C_9  and  N_10
REMARK    5  A    between atoms: C_15  and  C_16
REMARK    6  A    between atoms: C_16  and  C_17
REMARK    7  A    between atoms: N_23  and  C_24
REMARK                            x       y       z     vdW  Elec       q    Type
REMARK                         _______ _______ _______ _____ _____    ______ ____
ROOT
ATOM      1  N   UNL     1       7.080   5.444  17.582  0.00  0.00    +0.000 N 
ATOM      2  C   UNL     1       5.950   4.662  17.609  0.00  0.00    +0.000 A 
ATOM      3  N   UNL     1       5.492   4.271  16.412  0.00  0.00    +0.000 NA
ATOM      4  C   UNL     1       4.468   3.391  16.401  0.00  0.00    +0.000 A 
ATOM      5  C   UNL     1       3.909   2.877  17.538  0.00  0.00    +0.000 A 
ATOM      6  F   UNL     1       2.842   2.073  17.488  0.00  0.00    +0.000 F 
ATOM      7  C   UNL     1       4.409   3.373  18.723  0.00  0.00    +0.000 A 
ATOM      8  N   UNL     1       5.403   4.285  18.778  0.00  0.00    +0.000 NA
ATOM      9  H   UNL     1       7.175   5.876  16.672  0.00  0.00    +0.000 HD
ENDROOT
BRANCH   7  10
ATOM     10  N   UNL     1       3.759   3.029  19.914  0.00  0.00    +0.000 N 
ATOM     11  C   UNL     1       4.203   2.046  20.757  0.00  0.00    +0.000 C 
ATOM     12  O   UNL     1       5.125   1.268  20.579  0.00  0.00    +0.000 OA
ATOM     13  O   UNL     1       3.464   2.081  21.910  0.00  0.00    +0.000 OA
ATOM     14  C   UNL     1       2.375   2.993  21.715  0.00  0.00    +0.000 C 
ATOM     15  C   UNL     1       2.764   3.857  20.528  0.00  0.00    +0.000 C 
BRANCH  15  16
ATOM     16  C   UNL     1       1.579   4.137  19.590  0.00  0.00    +0.000 C 
ATOM     17  C   UNL     1       0.637   2.966  19.393  0.00  0.00    +0.000 C 
ATOM     18  F   UNL     1       0.834   5.158  20.108  0.00  0.00    +0.000 F 
ENDBRANCH  15  16
ENDBRANCH   7  10
BRANCH   1  20
ATOM     19  C   UNL     1       8.519   5.481  19.505  0.00  0.00    +0.000 C 
ATOM     20  C   UNL     1       7.427   6.248  18.737  0.00  0.00    +0.000 C 
BRANCH  20  21
ATOM     21  C   UNL     1       7.860   7.649  18.420  0.00  0.00    +0.000 A 
ATOM     22  C   UNL     1       7.407   8.465  17.364  0.00  0.00    +0.000 A 
ATOM     23  N   UNL     1       7.940   9.686  17.383  0.00  0.00    +0.000 NA
ATOM     24  N   UNL     1       8.794   9.675  18.438  0.00  0.00    +0.000 N 
ATOM     25  C   UNL     1       8.779   8.451  19.072  0.00  0.00    +0.000 A 
BRANCH  24  26
ATOM     26  C   UNL     1       9.559  10.824  18.786  0.00  0.00    +0.000 A 
ATOM     27  C   UNL     1      10.027  10.975  20.101  0.00  0.00    +0.000 A 
ATOM     28  C   UNL     1      10.778  12.100  20.457  0.00  0.00    +0.000 A 
ATOM     29  C   UNL     1      11.060  13.076  19.505  0.00  0.00    +0.000 A 
ATOM     30 CL   UNL     1      11.972  14.467  19.945  0.00  0.00    +0.000 Cl
ATOM     31  C   UNL     1      10.605  12.936  18.196  0.00  0.00    +0.000 A 
ATOM     32  C   UNL     1       9.858  11.810  17.832  0.00  0.00    +0.000 A 
ENDBRANCH  24  26
ENDBRANCH  20  21
ENDBRANCH   1  20
TORSDOF 5
ENDMDL
MODEL 6
REMARK VINA RESULT:      -8.0      1.433      1.518
REMARK  Name = 
REMARK  7 active torsions:
REMARK  status: ('A' for Active; 'I' for Inactive)
REMARK    1  A    between atoms: C_1  and  C_2
REMARK    2  A    between atoms: C_2  and  N_3
REMARK    3  A    between atoms: C_2  and  C_20
REMARK    4  A    between atoms: C_9  and  N_10
REMARK    5  A    between atoms: C_15  and  C_16
REMARK    6  A    between atoms: C_16  and  C_17
REMARK    7  A    between atoms: N_23  and  C_24
REMARK                            x       y       z     vdW  Elec       q    Type
REMARK                         _______ _______ _______ _____ _____    ______ ____
ROOT
ATOM      1  N   UNL     1       1.540   6.885  18.241  0.00  0.00    +0.000 N 
ATOM      2  C   UNL     1       2.290   5.749  18.055  0.00  0.00    +0.000 A 
ATOM      3  N   UNL     1       1.590   4.616  17.899  0.00  0.00    +0.000 NA
ATOM      4  C   UNL     1       2.284   3.503  17.579  0.00  0.00    +0.000 A 
ATOM      5  C   UNL     1       3.638   3.492  17.386  0.00  0.00    +0.000 A 
ATOM      6  F   UNL     1       4.298   2.354  17.152  0.00  0.00    +0.000 F 
ATOM      7  C   UNL     1       4.280   4.690  17.616  0.00  0.00    +0.000 A 
ATOM      8  N   UNL     1       3.630   5.815  17.980  0.00  0.00    +0.000 NA
ATOM      9  H   UNL     1       0.617   6.635  18.573  0.00  0.00    +0.000 HD
ENDROOT
BRANCH   7  10
ATOM     10  N   UNL     1       5.679   4.702  17.618  0.00  0.00    +0.000 N 
ATOM     11  C   UNL     1       6.430   4.832  18.756  0.00  0.00    +0.000 C 
ATOM     12  O   UNL     1       6.039   5.056  19.889  0.00  0.00    +0.000 OA
ATOM     13  O   UNL     1       7.748   4.622  18.446  0.00  0.00    +0.000 OA
ATOM     14  C   UNL     1       7.866   4.551  17.019  0.00  0.00    +0.000 C 
ATOM     15  C   UNL     1       6.466   4.273  16.500  0.00  0.00    +0.000 C 
BRANCH  15  16
ATOM     16  C   UNL     1       6.144   5.066  15.223  0.00  0.00    +0.000 C 
ATOM     17  C   UNL     1       5.414   4.277  14.155  0.00  0.00    +0.000 C 
ATOM     18  F   UNL     1       5.342   6.123  15.546  0.00  0.00    +0.000 F 
ENDBRANCH  15  16
ENDBRANCH   7  10
BRANCH   1  20
ATOM     19  C   UNL     1       2.387   9.056  17.658  0.00  0.00    +0.000 C 
ATOM     20  C   UNL     1       2.152   8.067  18.814  0.00  0.00    +0.000 C 
BRANCH  20  21
ATOM     21  C   UNL     1       1.373   8.701  19.929  0.00  0.00    +0.000 A 
ATOM     22  C   UNL     1       1.384   8.340  21.291  0.00  0.00    +0.000 A 
ATOM     23  N   UNL     1       0.626   9.134  22.047  0.00  0.00    +0.000 NA
ATOM     24  N   UNL     1       0.066  10.011  21.175  0.00  0.00    +0.000 N 
ATOM     25  C   UNL     1       0.486   9.760  19.886  0.00  0.00    +0.000 A 
BRANCH  24  26
ATOM     26  C   UNL     1      -0.819  11.034  21.617  0.00  0.00    +0.000 A 
ATOM     27  C   UNL     1      -1.256  11.046  22.951  0.00  0.00    +0.000 A 
ATOM     28  C   UNL     1      -2.128  12.045  23.397  0.00  0.00    +0.000 A 
ATOM     29  C   UNL     1      -2.568  13.028  22.515  0.00  0.00    +0.000 A 
ATOM     30 CL   UNL     1      -3.652  14.249  23.060  0.00  0.00    +0.000 Cl
ATOM     31  C   UNL     1      -2.138  13.029  21.190  0.00  0.00    +0.000 A 
ATOM     32  C   UNL     1      -1.262  12.037  20.739  0.00  0.00    +0.000 A 
ENDBRANCH  24  26
ENDBRANCH  20  21
ENDBRANCH   1  20
TORSDOF 5
ENDMDL
MODEL 7
REMARK VINA RESULT:      -7.9      1.059      1.396
REMARK  Name = 
REMARK  7 active torsions:
REMARK  status: ('A' for Active; 'I' for Inactive)
REMARK    1  A    between atoms: C_1  and  C_2
REMARK    2  A    between atoms: C_2  and  N_3
REMARK    3  A    between atoms: C_2  and  C_20
REMARK    4  A    between atoms: C_9  and  N_10
REMARK    5  A    between atoms: C_15  and  C_16
REMARK    6  A    between atoms: C_16  and  C_17
REMARK    7  A    between atoms: N_23  and  C_24
REMARK                            x       y       z     vdW  Elec       q    Type
REMARK                         _______ _______ _______ _____ _____    ______ ____
ROOT
ATOM      1  N   UNL     1       1.710   6.913  19.682  0.00  0.00    +0.000 N 
ATOM      2  C   UNL     1       2.580   5.851  19.743  0.00  0.00    +0.000 A 
ATOM      3  N   UNL     1       2.167   4.811  20.483  0.00  0.00    +0.000 NA
ATOM      4  C   UNL     1       2.929   3.697  20.457  0.00  0.00    +0.000 A 
ATOM      5  C   UNL     1       4.064   3.581  19.704  0.00  0.00    +0.000 A 
ATOM      6  F   UNL     1       4.835   2.491  19.770  0.00  0.00    +0.000 F 
ATOM      7  C   UNL     1       4.439   4.715  19.015  0.00  0.00    +0.000 A 
ATOM      8  N   UNL     1       3.729   5.863  19.047  0.00  0.00    +0.000 NA
ATOM      9  H   UNL     1       1.075   6.881  20.469  0.00  0.00    +0.000 HD
ENDROOT
BRANCH   7  10
ATOM     10  N   UNL     1       5.683   4.723  18.376  0.00  0.00    +0.000 N 
ATOM     11  C   UNL     1       6.852   5.058  19.007  0.00  0.00    +0.000 C 
ATOM     12  O   UNL     1       6.994   5.489  20.139  0.00  0.00    +0.000 OA
ATOM     13  O   UNL     1       7.903   4.789  18.170  0.00  0.00    +0.000 OA
ATOM     14  C   UNL     1       7.373   4.455  16.880  0.00  0.00    +0.000 C 
ATOM     15  C   UNL     1       5.916   4.091  17.111  0.00  0.00    +0.000 C 
BRANCH  15  16
ATOM     16  C   UNL     1       4.992   4.635  16.010  0.00  0.00    +0.000 C 
ATOM     17  C   UNL     1       5.548   4.525  14.605  0.00  0.00    +0.000 C 
ATOM     18  F   UNL     1       3.821   3.932  16.025  0.00  0.00    +0.000 F 
ENDBRANCH  15  16
ENDBRANCH   7  10
BRANCH   1  20
ATOM     19  C   UNL     1       2.679   8.079  17.819  0.00  0.00    +0.000 C 
ATOM     20  C   UNL     1       2.193   8.217  19.273  0.00  0.00    +0.000 C 
BRANCH  20  21
ATOM     21  C   UNL     1       1.196   9.330  19.415  0.00  0.00    +0.000 A 
ATOM     22  C   UNL     1       0.583  10.064  18.380  0.00  0.00    +0.000 A 
ATOM     23  N   UNL     1      -0.306  10.952  18.827  0.00  0.00    +0.000 NA
ATOM     24  N   UNL     1      -0.255  10.842  20.179  0.00  0.00    +0.000 N 
ATOM     25  C   UNL     1       0.658   9.882  20.562  0.00  0.00    +0.000 A 
BRANCH  24  26
ATOM     26  C   UNL     1      -1.079  11.642  21.021  0.00  0.00    +0.000 A 
ATOM     27  C   UNL     1      -0.687  11.887  22.347  0.00  0.00    +0.000 A 
ATOM     28  C   UNL     1      -1.488  12.670  23.184  0.00  0.00    +0.000 A 
ATOM     29  C   UNL     1      -2.681  13.204  22.704  0.00  0.00    +0.000 A 
ATOM     30 CL   UNL     1      -3.674  14.155  23.738  0.00  0.00    +0.000 Cl
ATOM     31  C   UNL     1      -3.078  12.971  21.390  0.00  0.00    +0.000 A 
ATOM     32  C   UNL     1      -2.278  12.194  20.545  0.00  0.00    +0.000 A 
ENDBRANCH  24  26
ENDBRANCH  20  21
ENDBRANCH   1  20
TORSDOF 5
ENDMDL
MODEL 8
REMARK VINA RESULT:      -7.8      4.839      7.905
REMARK  Name = 
REMARK  7 active torsions:
REMARK  status: ('A' for Active; 'I' for Inactive)
REMARK    1  A    between atoms: C_1  and  C_2
REMARK    2  A    between atoms: C_2  and  N_3
REMARK    3  A    between atoms: C_2  and  C_20
REMARK    4  A    between atoms: C_9  and  N_10
REMARK    5  A    between atoms: C_15  and  C_16
REMARK    6  A    between atoms: C_16  and  C_17
REMARK    7  A    between atoms: N_23  and  C_24
REMARK                            x       y       z     vdW  Elec       q    Type
REMARK                         _______ _______ _______ _____ _____    ______ ____
ROOT
ATOM      1  N   UNL     1       6.907   4.512  18.340  0.00  0.00    +0.000 N 
ATOM      2  C   UNL     1       5.562   4.620  18.079  0.00  0.00    +0.000 A 
ATOM      3  N   UNL     1       5.133   3.963  16.991  0.00  0.00    +0.000 NA
ATOM      4  C   UNL     1       3.800   3.930  16.778  0.00  0.00    +0.000 A 
ATOM      5  C   UNL     1       2.891   4.505  17.621  0.00  0.00    +0.000 A 
ATOM      6  F   UNL     1       1.586   4.523  17.331  0.00  0.00    +0.000 F 
ATOM      7  C   UNL     1       3.424   5.201  18.685  0.00  0.00    +0.000 A 
ATOM      8  N   UNL     1       4.751   5.295  18.911  0.00  0.00    +0.000 NA
ATOM      9  H   UNL     1       7.400   4.253  17.495  0.00  0.00    +0.000 HD
ENDROOT
BRANCH   7  10
ATOM     10  N   UNL     1       2.561   5.965  19.478  0.00  0.00    +0.000 N 
ATOM     11  C   UNL     1       1.911   5.469  20.577  0.00  0.00    +0.000 C 
ATOM     12  O   UNL     1       1.885   4.316  20.974  0.00  0.00    +0.000 OA
ATOM     13  O   UNL     1       1.297   6.502  21.235  0.00  0.00    +0.000 OA
ATOM     14  C   UNL     1       1.393   7.674  20.415  0.00  0.00    +0.000 C 
ATOM     15  C   UNL     1       2.507   7.395  19.420  0.00  0.00    +0.000 C 
BRANCH  15  16
ATOM     16  C   UNL     1       2.179   7.909  18.009  0.00  0.00    +0.000 C 
ATOM     17  C   UNL     1       1.464   9.245  17.972  0.00  0.00    +0.000 C 
ATOM     18  F   UNL     1       3.343   8.068  17.312  0.00  0.00    +0.000 F 
ENDBRANCH  15  16
ENDBRANCH   7  10
BRANCH   1  20
ATOM     19  C   UNL     1       8.868   4.839  19.687  0.00  0.00    +0.000 C 
ATOM     20  C   UNL     1       7.549   5.474  19.214  0.00  0.00    +0.000 C 
BRANCH  20  21
ATOM     21  C   UNL     1       7.779   6.824  18.601  0.00  0.00    +0.000 A 
ATOM     22  C   UNL     1       7.314   7.287  17.353  0.00  0.00    +0.000 A 
ATOM     23  N   UNL     1       7.636   8.558  17.116  0.00  0.00    +0.000 NA
ATOM     24  N   UNL     1       8.364   8.939  18.196  0.00  0.00    +0.000 N 
ATOM     25  C   UNL     1       8.482   7.905  19.101  0.00  0.00    +0.000 A 
BRANCH  24  26
ATOM     26  C   UNL     1       8.891  10.256  18.309  0.00  0.00    +0.000 A 
ATOM     27  C   UNL     1       8.326  11.298  17.556  0.00  0.00    +0.000 A 
ATOM     28  C   UNL     1       8.837  12.596  17.656  0.00  0.00    +0.000 A 
ATOM     29  C   UNL     1       9.911  12.857  18.502  0.00  0.00    +0.000 A 
ATOM     30 CL   UNL     1      10.549  14.451  18.615  0.00  0.00    +0.000 Cl
ATOM     31  C   UNL     1      10.477  11.833  19.257  0.00  0.00    +0.000 A 
ATOM     32  C   UNL     1       9.968  10.533  19.166  0.00  0.00    +0.000 A 
ENDBRANCH  24  26
ENDBRANCH  20  21
ENDBRANCH   1  20
TORSDOF 5
ENDMDL
MODEL 9
REMARK VINA RESULT:      -7.8      1.707      2.139
REMARK  Name = 
REMARK  7 active torsions:
REMARK  status: ('A' for Active; 'I' for Inactive)
REMARK    1  A    between atoms: C_1  and  C_2
REMARK    2  A    between atoms: C_2  and  N_3
REMARK    3  A    between atoms: C_2  and  C_20
REMARK    4  A    between atoms: C_9  and  N_10
REMARK    5  A    between atoms: C_15  and  C_16
REMARK    6  A    between atoms: C_16  and  C_17
REMARK    7  A    between atoms: N_23  and  C_24
REMARK                            x       y       z     vdW  Elec       q    Type
REMARK                         _______ _______ _______ _____ _____    ______ ____
ROOT
ATOM      1  N   UNL     1       1.699   7.259  19.437  0.00  0.00    +0.000 N 
ATOM      2  C   UNL     1       2.534   6.176  19.569  0.00  0.00    +0.000 A 
ATOM      3  N   UNL     1       2.093   5.204  20.380  0.00  0.00    +0.000 NA
ATOM      4  C   UNL     1       2.818   4.066  20.428  0.00  0.00    +0.000 A 
ATOM      5  C   UNL     1       3.945   3.862  19.681  0.00  0.00    +0.000 A 
ATOM      6  F   UNL     1       4.681   2.755  19.819  0.00  0.00    +0.000 F 
ATOM      7  C   UNL     1       4.351   4.933  18.914  0.00  0.00    +0.000 A 
ATOM      8  N   UNL     1       3.680   6.103  18.870  0.00  0.00    +0.000 NA
ATOM      9  H   UNL     1       1.067   7.302  20.227  0.00  0.00    +0.000 HD
ENDROOT
BRANCH   7  10
ATOM     10  N   UNL     1       5.592   4.856  18.272  0.00  0.00    +0.000 N 
ATOM     11  C   UNL     1       6.786   5.054  18.913  0.00  0.00    +0.000 C 
ATOM     12  O   UNL     1       6.966   5.418  20.063  0.00  0.00    +0.000 OA
ATOM     13  O   UNL     1       7.808   4.729  18.061  0.00  0.00    +0.000 OA
ATOM     14  C   UNL     1       7.251   4.504  16.759  0.00  0.00    +0.000 C 
ATOM     15  C   UNL     1       5.767   4.265  16.979  0.00  0.00    +0.000 C 
BRANCH  15  16
ATOM     16  C   UNL     1       4.897   4.941  15.907  0.00  0.00    +0.000 C 
ATOM     17  C   UNL     1       5.293   6.365  15.575  0.00  0.00    +0.000 C 
ATOM     18  F   UNL     1       4.988   4.227  14.745  0.00  0.00    +0.000 F 
ENDBRANCH  15  16
ENDBRANCH   7  10
BRANCH   1  20
ATOM     19  C   UNL     1       2.693   8.262  17.495  0.00  0.00    +0.000 C 
ATOM     20  C   UNL     1       2.221   8.515  18.937  0.00  0.00    +0.000 C 
BRANCH  20  21
ATOM     21  C   UNL     1       1.261   9.667  19.007  0.00  0.00    +0.000 A 
ATOM     22  C   UNL     1       1.571  11.041  18.952  0.00  0.00    +0.000 A 
ATOM     23  N   UNL     1       0.490  11.820  18.980  0.00  0.00    +0.000 NA
ATOM     24  N   UNL     1      -0.554  10.961  19.099  0.00  0.00    +0.000 N 
ATOM     25  C   UNL     1      -0.115   9.654  19.137  0.00  0.00    +0.000 A 
BRANCH  24  26
ATOM     26  C   UNL     1      -1.897  11.428  19.159  0.00  0.00    +0.000 A 
ATOM     27  C   UNL     1      -2.845  10.936  18.248  0.00  0.00    +0.000 A 
ATOM     28  C   UNL     1      -4.167  11.389  18.295  0.00  0.00    +0.000 A 
ATOM     29  C   UNL     1      -4.546  12.333  19.245  0.00  0.00    +0.000 A 
ATOM     30 CL   UNL     1      -6.169  12.901  19.295  0.00  0.00    +0.000 Cl
ATOM     31  C   UNL     1      -3.615  12.825  20.158  0.00  0.00    +0.000 A 
ATOM     32  C   UNL     1      -2.292  12.373  20.120  0.00  0.00    +0.000 A 
ENDBRANCH  24  26
ENDBRANCH  20  21
ENDBRANCH   1  20
TORSDOF 5
ENDMDL
