MODEL 1
REMARK VINA RESULT:      -7.7      0.000      0.000
REMARK  Name = 
REMARK  4 active torsions:
REMARK  status: ('A' for Active; 'I' for Inactive)
REMARK    1  A    between atoms: C_1  and  C_2
REMARK    2  A    between atoms: C_4  and  N_5
REMARK    3  A    between atoms: N_8  and  C_9
REMARK    4  A    between atoms: C_22  and  O_23
REMARK                            x       y       z     vdW  Elec       q    Type
REMARK                         _______ _______ _______ _____ _____    ______ ____
ROOT
ATOM      1  C   UNL     1      -0.382   9.637  23.235  0.00  0.00    +0.000 C 
ATOM      2  C   UNL     1       0.044   9.777  21.803  0.00  0.00    +0.000 A 
ATOM      3  C   UNL     1       0.815   8.745  21.256  0.00  0.00    +0.000 A 
ATOM      4  C   UNL     1       1.298   8.821  19.954  0.00  0.00    +0.000 A 
ATOM      5  N   UNL     1       0.979   9.866  19.164  0.00  0.00    +0.000 NA
ATOM      6  C   UNL     1       0.204  10.864  19.663  0.00  0.00    +0.000 A 
ATOM      7  C   UNL     1      -0.139  11.911  18.808  0.00  0.00    +0.000 A 
ATOM      8  C   UNL     1      -0.891  13.012  19.232  0.00  0.00    +0.000 A 
ATOM      9  C   UNL     1      -1.302  13.099  20.551  0.00  0.00    +0.000 A 
ATOM     10  C   UNL     1      -0.982  12.061  21.426  0.00  0.00    +0.000 A 
ATOM     11  C   UNL     1      -0.263  10.901  20.994  0.00  0.00    +0.000 A 
ENDROOT
BRANCH   4  12
ATOM     12  N   UNL     1       2.190   7.820  19.544  0.00  0.00    +0.000 N 
ATOM     13  C   UNL     1       2.389   7.691  18.098  0.00  0.00    +0.000 C 
ATOM     14  C   UNL     1       3.578   6.717  17.828  0.00  0.00    +0.000 C 
ATOM     15  N   UNL     1       3.480   5.354  18.459  0.00  0.00    +0.000 NA
ATOM     16  C   UNL     1       3.231   5.605  19.905  0.00  0.00    +0.000 C 
ATOM     17  C   UNL     1       2.022   6.527  20.231  0.00  0.00    +0.000 C 
BRANCH  15  18
ATOM     18  C   UNL     1       2.454   4.513  17.786  0.00  0.00    +0.000 C 
ATOM     19  C   UNL     1       3.105   3.353  16.994  0.00  0.00    +0.000 C 
ATOM     20  C   UNL     1       3.642   2.230  17.878  0.00  0.00    +0.000 C 
ATOM     21  C   UNL     1       2.555   1.623  18.753  0.00  0.00    +0.000 C 
ATOM     22  C   UNL     1       1.733   2.664  19.505  0.00  0.00    +0.000 C 
ATOM     23  C   UNL     1       1.344   3.887  18.673  0.00  0.00    +0.000 C 
ENDBRANCH  15  18
ENDBRANCH   4  12
BRANCH  10  24
ATOM     24  O   UNL     1      -1.366  12.188  22.735  0.00  0.00    +0.000 OA
ATOM     25  H   UNL     1      -0.638  12.579  23.242  0.00  0.00    +0.000 HD
ENDBRANCH  10  24
TORSDOF 3
ENDMDL
MODEL 2
REMARK VINA RESULT:      -7.7      1.310      2.219
REMARK  Name = 
REMARK  4 active torsions:
REMARK  status: ('A' for Active; 'I' for Inactive)
REMARK    1  A    between atoms: C_1  and  C_2
REMARK    2  A    between atoms: C_4  and  N_5
REMARK    3  A    between atoms: N_8  and  C_9
REMARK    4  A    between atoms: C_22  and  O_23
REMARK                            x       y       z     vdW  Elec       q    Type
REMARK                         _______ _______ _______ _____ _____    ______ ____
ROOT
ATOM      1  C   UNL     1      -0.904  11.455  17.937  0.00  0.00    +0.000 C 
ATOM      2  C   UNL     1      -0.467  10.842  19.235  0.00  0.00    +0.000 A 
ATOM      3  C   UNL     1       0.478   9.812  19.176  0.00  0.00    +0.000 A 
ATOM      4  C   UNL     1       0.897   9.153  20.326  0.00  0.00    +0.000 A 
ATOM      5  N   UNL     1       0.448   9.537  21.538  0.00  0.00    +0.000 NA
ATOM      6  C   UNL     1      -0.445  10.556  21.624  0.00  0.00    +0.000 A 
ATOM      7  C   UNL     1      -0.860  10.954  22.894  0.00  0.00    +0.000 A 
ATOM      8  C   UNL     1      -1.812  11.959  23.094  0.00  0.00    +0.000 A 
ATOM      9  C   UNL     1      -2.395  12.584  22.004  0.00  0.00    +0.000 A 
ATOM     10  C   UNL     1      -1.991  12.213  20.721  0.00  0.00    +0.000 A 
ATOM     11  C   UNL     1      -0.977  11.227  20.502  0.00  0.00    +0.000 A 
ENDROOT
BRANCH   4  12
ATOM     12  N   UNL     1       1.723   8.033  20.156  0.00  0.00    +0.000 N 
ATOM     13  C   UNL     1       2.217   7.800  18.796  0.00  0.00    +0.000 C 
ATOM     14  C   UNL     1       3.304   6.680  18.829  0.00  0.00    +0.000 C 
ATOM     15  N   UNL     1       2.897   5.376  19.461  0.00  0.00    +0.000 NA
ATOM     16  C   UNL     1       2.369   5.735  20.806  0.00  0.00    +0.000 C 
ATOM     17  C   UNL     1       1.245   6.809  20.824  0.00  0.00    +0.000 C 
BRANCH  15  18
ATOM     18  C   UNL     1       1.945   4.624  18.598  0.00  0.00    +0.000 C 
ATOM     19  C   UNL     1       2.642   4.085  17.324  0.00  0.00    +0.000 C 
ATOM     20  C   UNL     1       3.560   2.893  17.583  0.00  0.00    +0.000 C 
ATOM     21  C   UNL     1       2.817   1.727  18.216  0.00  0.00    +0.000 C 
ATOM     22  C   UNL     1       1.972   2.131  19.420  0.00  0.00    +0.000 C 
ATOM     23  C   UNL     1       1.186   3.430  19.236  0.00  0.00    +0.000 C 
ENDBRANCH  15  18
ENDBRANCH   4  12
BRANCH  10  24
ATOM     24  O   UNL     1      -2.610  12.816  19.658  0.00  0.00    +0.000 OA
ATOM     25  H   UNL     1      -3.557  12.899  19.848  0.00  0.00    +0.000 HD
ENDBRANCH  10  24
TORSDOF 3
ENDMDL
MODEL 3
REMARK VINA RESULT:      -7.6      2.782      8.322
REMARK  Name = 
REMARK  4 active torsions:
REMARK  status: ('A' for Active; 'I' for Inactive)
REMARK    1  A    between atoms: C_1  and  C_2
REMARK    2  A    between atoms: C_4  and  N_5
REMARK    3  A    between atoms: N_8  and  C_9
REMARK    4  A    between atoms: C_22  and  O_23
REMARK                            x       y       z     vdW  Elec       q    Type
REMARK                         _______ _______ _______ _____ _____    ______ ____
ROOT
ATOM      1  C   UNL     1       4.339   5.634  17.096  0.00  0.00    +0.000 C 
ATOM      2  C   UNL     1       3.348   5.695  18.221  0.00  0.00    +0.000 A 
ATOM      3  C   UNL     1       2.941   6.962  18.654  0.00  0.00    +0.000 A 
ATOM      4  C   UNL     1       2.068   7.110  19.726  0.00  0.00    +0.000 A 
ATOM      5  N   UNL     1       1.541   6.029  20.335  0.00  0.00    +0.000 NA
ATOM      6  C   UNL     1       1.895   4.789  19.911  0.00  0.00    +0.000 A 
ATOM      7  C   UNL     1       1.302   3.692  20.537  0.00  0.00    +0.000 A 
ATOM      8  C   UNL     1       1.631   2.372  20.211  0.00  0.00    +0.000 A 
ATOM      9  C   UNL     1       2.596   2.119  19.250  0.00  0.00    +0.000 A 
ATOM     10  C   UNL     1       3.198   3.196  18.601  0.00  0.00    +0.000 A 
ATOM     11  C   UNL     1       2.831   4.551  18.882  0.00  0.00    +0.000 A 
ENDROOT
BRANCH   4  12
ATOM     12  N   UNL     1       1.841   8.413  20.190  0.00  0.00    +0.000 N 
ATOM     13  C   UNL     1       1.297   8.526  21.546  0.00  0.00    +0.000 C 
ATOM     14  C   UNL     1       1.338  10.021  21.994  0.00  0.00    +0.000 C 
ATOM     15  N   UNL     1       0.660  11.008  21.082  0.00  0.00    +0.000 NA
ATOM     16  C   UNL     1       1.250  10.772  19.735  0.00  0.00    +0.000 C 
ATOM     17  C   UNL     1       1.185   9.307  19.218  0.00  0.00    +0.000 C 
BRANCH  15  18
ATOM     18  C   UNL     1      -0.821  10.883  21.145  0.00  0.00    +0.000 C 
ATOM     19  C   UNL     1      -1.351  11.147  22.576  0.00  0.00    +0.000 C 
ATOM     20  C   UNL     1      -1.322  12.619  22.980  0.00  0.00    +0.000 C 
ATOM     21  C   UNL     1      -2.136  13.487  22.032  0.00  0.00    +0.000 C 
ATOM     22  C   UNL     1      -1.815  13.242  20.562  0.00  0.00    +0.000 C 
ATOM     23  C   UNL     1      -1.659  11.768  20.183  0.00  0.00    +0.000 C 
ENDBRANCH  15  18
ENDBRANCH   4  12
BRANCH  10  24
ATOM     24  O   UNL     1       4.177   2.922  17.682  0.00  0.00    +0.000 OA
ATOM     25  H   UNL     1       4.220   3.646  17.039  0.00  0.00    +0.000 HD
ENDBRANCH  10  24
TORSDOF 3
ENDMDL
MODEL 4
REMARK VINA RESULT:      -7.6      2.690      8.059
REMARK  Name = 
REMARK  4 active torsions:
REMARK  status: ('A' for Active; 'I' for Inactive)
REMARK    1  A    between atoms: C_1  and  C_2
REMARK    2  A    between atoms: C_4  and  N_5
REMARK    3  A    between atoms: N_8  and  C_9
REMARK    4  A    between atoms: C_22  and  O_23
REMARK                            x       y       z     vdW  Elec       q    Type
REMARK                         _______ _______ _______ _____ _____    ______ ____
ROOT
ATOM      1  C   UNL     1       1.074   3.405  20.856  0.00  0.00    +0.000 C 
ATOM      2  C   UNL     1       1.833   4.425  20.060  0.00  0.00    +0.000 A 
ATOM      3  C   UNL     1       1.704   5.766  20.439  0.00  0.00    +0.000 A 
ATOM      4  C   UNL     1       2.329   6.779  19.721  0.00  0.00    +0.000 A 
ATOM      5  N   UNL     1       3.131   6.487  18.677  0.00  0.00    +0.000 NA
ATOM      6  C   UNL     1       3.298   5.190  18.311  0.00  0.00    +0.000 A 
ATOM      7  C   UNL     1       4.163   4.919  17.251  0.00  0.00    +0.000 A 
ATOM      8  C   UNL     1       4.370   3.625  16.762  0.00  0.00    +0.000 A 
ATOM      9  C   UNL     1       3.685   2.558  17.320  0.00  0.00    +0.000 A 
ATOM     10  C   UNL     1       2.820   2.799  18.388  0.00  0.00    +0.000 A 
ATOM     11  C   UNL     1       2.641   4.109  18.937  0.00  0.00    +0.000 A 
ENDROOT
BRANCH   4  12
ATOM     12  N   UNL     1       2.017   8.099  20.076  0.00  0.00    +0.000 N 
ATOM     13  C   UNL     1       1.283   8.270  21.333  0.00  0.00    +0.000 C 
ATOM     14  C   UNL     1       1.236   9.786  21.699  0.00  0.00    +0.000 C 
ATOM     15  N   UNL     1       0.679  10.708  20.647  0.00  0.00    +0.000 NA
ATOM     16  C   UNL     1       1.457  10.416  19.412  0.00  0.00    +0.000 C 
ATOM     17  C   UNL     1       1.491   8.925  18.973  0.00  0.00    +0.000 C 
BRANCH  15  18
ATOM     18  C   UNL     1      -0.794  10.551  20.507  0.00  0.00    +0.000 C 
ATOM     19  C   UNL     1      -1.549  11.220  21.683  0.00  0.00    +0.000 C 
ATOM     20  C   UNL     1      -1.568  12.745  21.612  0.00  0.00    +0.000 C 
ATOM     21  C   UNL     1      -2.204  13.248  20.325  0.00  0.00    +0.000 C 
ATOM     22  C   UNL     1      -1.648  12.577  19.073  0.00  0.00    +0.000 C 
ATOM     23  C   UNL     1      -1.451  11.065  19.199  0.00  0.00    +0.000 C 
ENDBRANCH  15  18
ENDBRANCH   4  12
BRANCH  10  24
ATOM     24  O   UNL     1       2.124   1.735  18.898  0.00  0.00    +0.000 OA
ATOM     25  H   UNL     1       1.827   1.951  19.795  0.00  0.00    +0.000 HD
ENDBRANCH  10  24
TORSDOF 3
ENDMDL
MODEL 5
REMARK VINA RESULT:      -7.5      2.869      8.326
REMARK  Name = 
REMARK  4 active torsions:
REMARK  status: ('A' for Active; 'I' for Inactive)
REMARK    1  A    between atoms: C_1  and  C_2
REMARK    2  A    between atoms: C_4  and  N_5
REMARK    3  A    between atoms: N_8  and  C_9
REMARK    4  A    between atoms: C_22  and  O_23
REMARK                            x       y       z     vdW  Elec       q    Type
REMARK                         _______ _______ _______ _____ _____    ______ ____
ROOT
ATOM      1  C   UNL     1       5.237   5.707  16.376  0.00  0.00    +0.000 C 
ATOM      2  C   UNL     1       4.087   5.652  17.339  0.00  0.00    +0.000 A 
ATOM      3  C   UNL     1       3.567   6.870  17.792  0.00  0.00    +0.000 A 
ATOM      4  C   UNL     1       2.539   6.909  18.727  0.00  0.00    +0.000 A 
ATOM      5  N   UNL     1       1.972   5.769  19.171  0.00  0.00    +0.000 NA
ATOM      6  C   UNL     1       2.438   4.576  18.721  0.00  0.00    +0.000 A 
ATOM      7  C   UNL     1       1.804   3.418  19.171  0.00  0.00    +0.000 A 
ATOM      8  C   UNL     1       2.233   2.136  18.808  0.00  0.00    +0.000 A 
ATOM      9  C   UNL     1       3.340   1.986  17.989  0.00  0.00    +0.000 A 
ATOM     10  C   UNL     1       3.987   3.128  17.515  0.00  0.00    +0.000 A 
ATOM     11  C   UNL     1       3.525   4.446  17.832  0.00  0.00    +0.000 A 
ENDROOT
BRANCH   4  12
ATOM     12  N   UNL     1       2.190   8.166  19.241  0.00  0.00    +0.000 N 
ATOM     13  C   UNL     1       1.559   8.166  20.564  0.00  0.00    +0.000 C 
ATOM     14  C   UNL     1       1.465   9.633  21.088  0.00  0.00    +0.000 C 
ATOM     15  N   UNL     1       0.773  10.620  20.186  0.00  0.00    +0.000 NA
ATOM     16  C   UNL     1       1.457  10.500  18.869  0.00  0.00    +0.000 C 
ATOM     17  C   UNL     1       1.530   9.064  18.276  0.00  0.00    +0.000 C 
BRANCH  15  18
ATOM     18  C   UNL     1      -0.696  10.389  20.148  0.00  0.00    +0.000 C 
ATOM     19  C   UNL     1      -1.398  11.004  21.385  0.00  0.00    +0.000 C 
ATOM     20  C   UNL     1      -1.499  12.526  21.340  0.00  0.00    +0.000 C 
ATOM     21  C   UNL     1      -2.250  13.013  20.110  0.00  0.00    +0.000 C 
ATOM     22  C   UNL     1      -1.752  12.387  18.811  0.00  0.00    +0.000 C 
ATOM     23  C   UNL     1      -1.470  10.885  18.898  0.00  0.00    +0.000 C 
ENDBRANCH  15  18
ENDBRANCH   4  12
BRANCH  10  24
ATOM     24  O   UNL     1       5.102   2.954  16.740  0.00  0.00    +0.000 OA
ATOM     25  H   UNL     1       5.889   3.177  17.261  0.00  0.00    +0.000 HD
ENDBRANCH  10  24
TORSDOF 3
ENDMDL
MODEL 6
REMARK VINA RESULT:      -7.5      2.995      8.224
REMARK  Name = 
REMARK  4 active torsions:
REMARK  status: ('A' for Active; 'I' for Inactive)
REMARK    1  A    between atoms: C_1  and  C_2
REMARK    2  A    between atoms: C_4  and  N_5
REMARK    3  A    between atoms: N_8  and  C_9
REMARK    4  A    between atoms: C_22  and  O_23
REMARK                            x       y       z     vdW  Elec       q    Type
REMARK                         _______ _______ _______ _____ _____    ______ ____
ROOT
ATOM      1  C   UNL     1       2.948   3.856  19.957  0.00  0.00    +0.000 C 
ATOM      2  C   UNL     1       3.141   5.092  19.127  0.00  0.00    +0.000 A 
ATOM      3  C   UNL     1       2.349   6.204  19.432  0.00  0.00    +0.000 A 
ATOM      4  C   UNL     1       2.425   7.369  18.678  0.00  0.00    +0.000 A 
ATOM      5  N   UNL     1       3.314   7.478  17.671  0.00  0.00    +0.000 NA
ATOM      6  C   UNL     1       4.116   6.423  17.377  0.00  0.00    +0.000 A 
ATOM      7  C   UNL     1       5.051   6.581  16.354  0.00  0.00    +0.000 A 
ATOM      8  C   UNL     1       5.893   5.544  15.937  0.00  0.00    +0.000 A 
ATOM      9  C   UNL     1       5.798   4.298  16.534  0.00  0.00    +0.000 A 
ATOM     10  C   UNL     1       4.879   4.114  17.566  0.00  0.00    +0.000 A 
ATOM     11  C   UNL     1       4.051   5.181  18.042  0.00  0.00    +0.000 A 
ENDROOT
BRANCH   4  12
ATOM     12  N   UNL     1       1.485   8.372  18.956  0.00  0.00    +0.000 N 
ATOM     13  C   UNL     1       1.341   9.417  17.938  0.00  0.00    +0.000 C 
ATOM     14  C   UNL     1       0.100  10.300  18.280  0.00  0.00    +0.000 C 
ATOM     15  N   UNL     1       0.077  10.913  19.654  0.00  0.00    +0.000 NA
ATOM     16  C   UNL     1       0.281   9.779  20.597  0.00  0.00    +0.000 C 
ATOM     17  C   UNL     1       1.534   8.898  20.332  0.00  0.00    +0.000 C 
BRANCH  15  18
ATOM     18  C   UNL     1       1.072  12.012  19.779  0.00  0.00    +0.000 C 
ATOM     19  C   UNL     1       0.983  12.993  18.583  0.00  0.00    +0.000 C 
ATOM     20  C   UNL     1      -0.237  13.909  18.629  0.00  0.00    +0.000 C 
ATOM     21  C   UNL     1      -0.276  14.745  19.900  0.00  0.00    +0.000 C 
ATOM     22  C   UNL     1      -0.069  13.925  21.169  0.00  0.00    +0.000 C 
ATOM     23  C   UNL     1       1.036  12.872  21.071  0.00  0.00    +0.000 C 
ENDBRANCH  15  18
ENDBRANCH   4  12
BRANCH  10  24
ATOM     24  O   UNL     1       4.776   2.862  18.114  0.00  0.00    +0.000 OA
ATOM     25  H   UNL     1       5.022   2.203  17.447  0.00  0.00    +0.000 HD
ENDBRANCH  10  24
TORSDOF 3
ENDMDL
MODEL 7
REMARK VINA RESULT:      -7.3      2.998      8.345
REMARK  Name = 
REMARK  4 active torsions:
REMARK  status: ('A' for Active; 'I' for Inactive)
REMARK    1  A    between atoms: C_1  and  C_2
REMARK    2  A    between atoms: C_4  and  N_5
REMARK    3  A    between atoms: N_8  and  C_9
REMARK    4  A    between atoms: C_22  and  O_23
REMARK                            x       y       z     vdW  Elec       q    Type
REMARK                         _______ _______ _______ _____ _____    ______ ____
ROOT
ATOM      1  C   UNL     1       5.422   6.353  17.194  0.00  0.00    +0.000 C 
ATOM      2  C   UNL     1       4.236   6.161  18.092  0.00  0.00    +0.000 A 
ATOM      3  C   UNL     1       3.300   7.199  18.156  0.00  0.00    +0.000 A 
ATOM      4  C   UNL     1       2.201   7.126  19.004  0.00  0.00    +0.000 A 
ATOM      5  N   UNL     1       1.976   6.020  19.741  0.00  0.00    +0.000 NA
ATOM      6  C   UNL     1       2.853   4.985  19.671  0.00  0.00    +0.000 A 
ATOM      7  C   UNL     1       2.571   3.841  20.416  0.00  0.00    +0.000 A 
ATOM      8  C   UNL     1       3.430   2.737  20.455  0.00  0.00    +0.000 A 
ATOM      9  C   UNL     1       4.623   2.768  19.752  0.00  0.00    +0.000 A 
ATOM     10  C   UNL     1       4.926   3.896  18.990  0.00  0.00    +0.000 A 
ATOM     11  C   UNL     1       4.031   5.009  18.895  0.00  0.00    +0.000 A 
ENDROOT
BRANCH   4  12
ATOM     12  N   UNL     1       1.406   8.275  19.119  0.00  0.00    +0.000 N 
ATOM     13  C   UNL     1       1.447   9.201  17.985  0.00  0.00    +0.000 C 
ATOM     14  C   UNL     1       0.334  10.281  18.162  0.00  0.00    +0.000 C 
ATOM     15  N   UNL     1       0.352  11.050  19.456  0.00  0.00    +0.000 NA
ATOM     16  C   UNL     1       0.358  10.018  20.529  0.00  0.00    +0.000 C 
ATOM     17  C   UNL     1       1.482   8.947  20.429  0.00  0.00    +0.000 C 
BRANCH  15  18
ATOM     18  C   UNL     1       1.489  12.008  19.507  0.00  0.00    +0.000 C 
ATOM     19  C   UNL     1       1.356  13.101  18.417  0.00  0.00    +0.000 C 
ATOM     20  C   UNL     1       0.285  14.145  18.721  0.00  0.00    +0.000 C 
ATOM     21  C   UNL     1       0.539  14.856  20.041  0.00  0.00    +0.000 C 
ATOM     22  C   UNL     1       0.819  13.902  21.197  0.00  0.00    +0.000 C 
ATOM     23  C   UNL     1       1.752  12.740  20.850  0.00  0.00    +0.000 C 
ENDBRANCH  15  18
ENDBRANCH   4  12
BRANCH  10  24
ATOM     24  O   UNL     1       6.129   3.919  18.335  0.00  0.00    +0.000 OA
ATOM     25  H   UNL     1       6.334   4.832  18.080  0.00  0.00    +0.000 HD
ENDBRANCH  10  24
TORSDOF 3
ENDMDL
MODEL 8
REMARK VINA RESULT:      -7.2      1.891      2.143
REMARK  Name = 
REMARK  4 active torsions:
REMARK  status: ('A' for Active; 'I' for Inactive)
REMARK    1  A    between atoms: C_1  and  C_2
REMARK    2  A    between atoms: C_4  and  N_5
REMARK    3  A    between atoms: N_8  and  C_9
REMARK    4  A    between atoms: C_22  and  O_23
REMARK                            x       y       z     vdW  Elec       q    Type
REMARK                         _______ _______ _______ _____ _____    ______ ____
ROOT
ATOM      1  C   UNL     1      -2.050  10.321  18.543  0.00  0.00    +0.000 C 
ATOM      2  C   UNL     1      -0.567  10.554  18.539  0.00  0.00    +0.000 A 
ATOM      3  C   UNL     1       0.262   9.427  18.503  0.00  0.00    +0.000 A 
ATOM      4  C   UNL     1       1.646   9.551  18.552  0.00  0.00    +0.000 A 
ATOM      5  N   UNL     1       2.226  10.768  18.571  0.00  0.00    +0.000 NA
ATOM      6  C   UNL     1       1.442  11.877  18.574  0.00  0.00    +0.000 A 
ATOM      7  C   UNL     1       2.073  13.121  18.555  0.00  0.00    +0.000 A 
ATOM      8  C   UNL     1       1.363  14.325  18.605  0.00  0.00    +0.000 A 
ATOM      9  C   UNL     1      -0.019  14.308  18.699  0.00  0.00    +0.000 A 
ATOM     10  C   UNL     1      -0.677  13.078  18.710  0.00  0.00    +0.000 A 
ATOM     11  C   UNL     1       0.032  11.839  18.601  0.00  0.00    +0.000 A 
ENDROOT
BRANCH   4  12
ATOM     12  N   UNL     1       2.389   8.368  18.670  0.00  0.00    +0.000 N 
ATOM     13  C   UNL     1       2.851   7.772  17.413  0.00  0.00    +0.000 C 
ATOM     14  C   UNL     1       3.857   6.621  17.729  0.00  0.00    +0.000 C 
ATOM     15  N   UNL     1       3.367   5.546  18.661  0.00  0.00    +0.000 NA
ATOM     16  C   UNL     1       2.881   6.263  19.872  0.00  0.00    +0.000 C 
ATOM     17  C   UNL     1       1.835   7.385  19.617  0.00  0.00    +0.000 C 
BRANCH  15  18
ATOM     18  C   UNL     1       2.356   4.673  18.005  0.00  0.00    +0.000 C 
ATOM     19  C   UNL     1       3.025   3.632  17.075  0.00  0.00    +0.000 C 
ATOM     20  C   UNL     1       3.720   2.496  17.822  0.00  0.00    +0.000 C 
ATOM     21  C   UNL     1       2.760   1.738  18.728  0.00  0.00    +0.000 C 
ATOM     22  C   UNL     1       1.926   2.650  19.622  0.00  0.00    +0.000 C 
ATOM     23  C   UNL     1       1.375   3.894  18.923  0.00  0.00    +0.000 C 
ENDBRANCH  15  18
ENDBRANCH   4  12
BRANCH  10  24
ATOM     24  O   UNL     1      -2.040  13.085  18.843  0.00  0.00    +0.000 OA
ATOM     25  H   UNL     1      -2.269  13.339  19.751  0.00  0.00    +0.000 HD
ENDBRANCH  10  24
TORSDOF 3
ENDMDL
MODEL 9
REMARK VINA RESULT:      -7.0      2.681      8.429
REMARK  Name = 
REMARK  4 active torsions:
REMARK  status: ('A' for Active; 'I' for Inactive)
REMARK    1  A    between atoms: C_1  and  C_2
REMARK    2  A    between atoms: C_4  and  N_5
REMARK    3  A    between atoms: N_8  and  C_9
REMARK    4  A    between atoms: C_22  and  O_23
REMARK                            x       y       z     vdW  Elec       q    Type
REMARK                         _______ _______ _______ _____ _____    ______ ____
ROOT
ATOM      1  C   UNL     1       3.551   7.197  17.373  0.00  0.00    +0.000 C 
ATOM      2  C   UNL     1       2.736   6.929  18.604  0.00  0.00    +0.000 A 
ATOM      3  C   UNL     1       2.190   8.032  19.269  0.00  0.00    +0.000 A 
ATOM      4  C   UNL     1       1.469   7.877  20.447  0.00  0.00    +0.000 A 
ATOM      5  N   UNL     1       1.223   6.649  20.945  0.00  0.00    +0.000 NA
ATOM      6  C   UNL     1       1.715   5.560  20.299  0.00  0.00    +0.000 A 
ATOM      7  C   UNL     1       1.411   4.302  20.818  0.00  0.00    +0.000 A 
ATOM      8  C   UNL     1       1.906   3.118  20.261  0.00  0.00    +0.000 A 
ATOM      9  C   UNL     1       2.750   3.173  19.164  0.00  0.00    +0.000 A 
ATOM     10  C   UNL     1       3.063   4.418  18.618  0.00  0.00    +0.000 A 
ATOM     11  C   UNL     1       2.519   5.633  19.142  0.00  0.00    +0.000 A 
ENDROOT
BRANCH   4  12
ATOM     12  N   UNL     1       1.096   9.046  21.126  0.00  0.00    +0.000 N 
ATOM     13  C   UNL     1      -0.064   8.930  22.014  0.00  0.00    +0.000 C 
ATOM     14  C   UNL     1      -0.190  10.231  22.868  0.00  0.00    +0.000 C 
ATOM     15  N   UNL     1      -0.252  11.526  22.104  0.00  0.00    +0.000 NA
ATOM     16  C   UNL     1       0.936  11.514  21.207  0.00  0.00    +0.000 C 
ATOM     17  C   UNL     1       1.079  10.263  20.295  0.00  0.00    +0.000 C 
BRANCH  15  18
ATOM     18  C   UNL     1      -1.557  11.687  21.408  0.00  0.00    +0.000 C 
ATOM     19  C   UNL     1      -2.661  12.173  22.380  0.00  0.00    +0.000 C 
ATOM     20  C   UNL     1      -2.533  13.643  22.770  0.00  0.00    +0.000 C 
ATOM     21  C   UNL     1      -2.567  14.561  21.557  0.00  0.00    +0.000 C 
ATOM     22  C   UNL     1      -1.615  14.130  20.447  0.00  0.00    +0.000 C 
ATOM     23  C   UNL     1      -1.601  12.625  20.171  0.00  0.00    +0.000 C 
ENDBRANCH  15  18
ENDBRANCH   4  12
BRANCH  10  24
ATOM     24  O   UNL     1       3.931   4.449  17.558  0.00  0.00    +0.000 OA
ATOM     25  H   UNL     1       4.709   3.911  17.770  0.00  0.00    +0.000 HD
ENDBRANCH  10  24
TORSDOF 3
ENDMDL
