MODEL 1
REMARK VINA RESULT:      -7.2      0.000      0.000
REMARK  Name = 
REMARK  9 active torsions:
REMARK  status: ('A' for Active; 'I' for Inactive)
REMARK    1  A    between atoms: C_1  and  C_2
REMARK    2  A    between atoms: C_2  and  C_3
REMARK    3  A    between atoms: C_2  and  C_4
REMARK    4  A    between atoms: C_2  and  C_5
REMARK    5  A    between atoms: C_5  and  N_6
REMARK    6  A    between atoms: C_18  and  C_19
REMARK    7  A    between atoms: C_19  and  C_20
REMARK    8  A    between atoms: C_26  and  C_27
REMARK    9  A    between atoms: C_27  and  O_29
REMARK                            x       y       z     vdW  Elec       q    Type
REMARK                         _______ _______ _______ _____ _____    ______ ____
ROOT
ATOM      1  N   UNL     1      -1.834  14.215  22.669  0.00  0.00    +0.000 N 
ATOM      2  C   UNL     1      -2.065  14.061  21.326  0.00  0.00    +0.000 C 
ATOM      3  O   UNL     1      -2.659  14.889  20.659  0.00  0.00    +0.000 OA
ATOM      4  N   UNL     1      -1.571  12.893  20.778  0.00  0.00    +0.000 N 
ATOM      5  C   UNL     1      -1.671  12.649  19.326  0.00  0.00    +0.000 C 
ATOM      6  C   UNL     1      -0.312  12.210  18.712  0.00  0.00    +0.000 C 
ATOM      7  N   UNL     1       0.354  11.198  19.537  0.00  0.00    +0.000 N 
ATOM      8  C   UNL     1       0.907  10.041  18.976  0.00  0.00    +0.000 C 
ATOM      9  O   UNL     1       0.906   9.888  17.768  0.00  0.00    +0.000 OA
ATOM     10  N   UNL     1       1.421   9.086  19.848  0.00  0.00    +0.000 N 
ATOM     11  C   UNL     1       1.992   7.891  19.453  0.00  0.00    +0.000 C 
ATOM     12  O   UNL     1       2.689   7.592  18.499  0.00  0.00    +0.000 OA
ATOM     13  C   UNL     1       1.652   7.187  20.771  0.00  0.00    +0.000 C 
ATOM     14  C   UNL     1       0.739   8.438  21.016  0.00  0.00    +0.000 C 
ATOM     15  C   UNL     1       0.483  11.645  20.920  0.00  0.00    +0.000 C 
ATOM     16  C   UNL     1      -0.912  11.816  21.519  0.00  0.00    +0.000 C 
ATOM     17  H   UNL     1      -0.955  13.846  22.983  0.00  0.00    +0.000 HD
ENDROOT
BRANCH  14  18
ATOM     18  C   UNL     1       0.990   9.062  22.433  0.00  0.00    +0.000 C 
ATOM     19  O   UNL     1       2.036   9.529  22.899  0.00  0.00    +0.000 OA
BRANCH  18  20
ATOM     20  O   UNL     1      -0.108   9.095  23.215  0.00  0.00    +0.000 OA
ATOM     21  H   UNL     1      -0.652   8.346  22.884  0.00  0.00    +0.000 HD
ENDBRANCH  18  20
ENDBRANCH  14  18
BRANCH   1  22
ATOM     22  C   UNL     1      -2.272  15.410  23.376  0.00  0.00    +0.000 C 
BRANCH  22  24
ATOM     23  C   UNL     1      -3.613  13.638  24.612  0.00  0.00    +0.000 C 
ATOM     24  C   UNL     1      -3.171  15.110  24.603  0.00  0.00    +0.000 C 
ATOM     25  C   UNL     1      -4.425  16.001  24.585  0.00  0.00    +0.000 C 
ATOM     26  C   UNL     1      -2.379  15.386  25.899  0.00  0.00    +0.000 C 
ENDBRANCH  22  24
ENDBRANCH   1  22
BRANCH  13  27
ATOM     27  C   UNL     1       1.122   5.733  20.688  0.00  0.00    +0.000 C 
BRANCH  27  28
ATOM     28  C   UNL     1       2.173   4.605  20.970  0.00  0.00    +0.000 C 
ATOM     29  C   UNL     1       3.320   4.509  19.952  0.00  0.00    +0.000 C 
ATOM     30  C   UNL     1       2.853   3.951  18.605  0.00  0.00    +0.000 C 
ATOM     31  N   UNL     1       2.175   2.658  18.669  0.00  0.00    +0.000 NA
ATOM     32  C   UNL     1       1.138   2.579  19.693  0.00  0.00    +0.000 C 
ATOM     33  C   UNL     1       1.549   3.180  21.045  0.00  0.00    +0.000 C 
ATOM     34  H   UNL     1       2.843   1.900  18.784  0.00  0.00    +0.000 HD
ENDBRANCH  27  28
ENDBRANCH  13  27
TORSDOF 6
ENDMDL
MODEL 2
REMARK VINA RESULT:      -7.2      1.659      9.441
REMARK  Name = 
REMARK  9 active torsions:
REMARK  status: ('A' for Active; 'I' for Inactive)
REMARK    1  A    between atoms: C_1  and  C_2
REMARK    2  A    between atoms: C_2  and  C_3
REMARK    3  A    between atoms: C_2  and  C_4
REMARK    4  A    between atoms: C_2  and  C_5
REMARK    5  A    between atoms: C_5  and  N_6
REMARK    6  A    between atoms: C_18  and  C_19
REMARK    7  A    between atoms: C_19  and  C_20
REMARK    8  A    between atoms: C_26  and  C_27
REMARK    9  A    between atoms: C_27  and  O_29
REMARK                            x       y       z     vdW  Elec       q    Type
REMARK                         _______ _______ _______ _____ _____    ______ ____
ROOT
ATOM      1  N   UNL     1       2.614   6.469  19.918  0.00  0.00    +0.000 N 
ATOM      2  C   UNL     1       2.504   7.333  18.858  0.00  0.00    +0.000 C 
ATOM      3  O   UNL     1       2.952   7.084  17.753  0.00  0.00    +0.000 OA
ATOM      4  N   UNL     1       1.842   8.514  19.134  0.00  0.00    +0.000 N 
ATOM      5  C   UNL     1       1.574   9.489  18.058  0.00  0.00    +0.000 C 
ATOM      6  C   UNL     1       0.089   9.948  18.042  0.00  0.00    +0.000 C 
ATOM      7  N   UNL     1      -0.398  10.257  19.390  0.00  0.00    +0.000 N 
ATOM      8  C   UNL     1      -1.119  11.425  19.659  0.00  0.00    +0.000 C 
ATOM      9  O   UNL     1      -1.420  12.181  18.752  0.00  0.00    +0.000 OA
ATOM     10  N   UNL     1      -1.445  11.688  20.987  0.00  0.00    +0.000 N 
ATOM     11  C   UNL     1      -2.146  12.800  21.416  0.00  0.00    +0.000 C 
ATOM     12  O   UNL     1      -3.066  13.428  20.924  0.00  0.00    +0.000 OA
ATOM     13  C   UNL     1      -1.524  12.763  22.817  0.00  0.00    +0.000 C 
ATOM     14  C   UNL     1      -0.527  11.740  22.171  0.00  0.00    +0.000 C 
ATOM     15  C   UNL     1      -0.166   9.143  20.304  0.00  0.00    +0.000 C 
ATOM     16  C   UNL     1       1.339   8.922  20.447  0.00  0.00    +0.000 C 
ATOM     17  H   UNL     1       1.824   6.469  20.536  0.00  0.00    +0.000 HD
ENDROOT
BRANCH  14  18
ATOM     18  C   UNL     1      -0.399  10.440  23.039  0.00  0.00    +0.000 C 
ATOM     19  O   UNL     1       0.621   9.909  23.493  0.00  0.00    +0.000 OA
BRANCH  18  20
ATOM     20  O   UNL     1      -1.581   9.859  23.327  0.00  0.00    +0.000 OA
ATOM     21  H   UNL     1      -2.031  10.519  23.901  0.00  0.00    +0.000 HD
ENDBRANCH  18  20
ENDBRANCH  14  18
BRANCH   1  22
ATOM     22  C   UNL     1       3.262   5.174  19.768  0.00  0.00    +0.000 C 
BRANCH  22  24
ATOM     23  C   UNL     1       0.988   4.282  20.474  0.00  0.00    +0.000 C 
ATOM     24  C   UNL     1       2.266   3.990  19.672  0.00  0.00    +0.000 C 
ATOM     25  C   UNL     1       2.905   2.700  20.214  0.00  0.00    +0.000 C 
ATOM     26  C   UNL     1       1.871   3.771  18.196  0.00  0.00    +0.000 C 
ENDBRANCH  22  24
ENDBRANCH   1  22
BRANCH  13  27
ATOM     27  C   UNL     1      -1.094  14.114  23.443  0.00  0.00    +0.000 C 
BRANCH  27  28
ATOM     28  C   UNL     1      -1.912  14.580  24.695  0.00  0.00    +0.000 C 
ATOM     29  C   UNL     1      -3.437  14.448  24.567  0.00  0.00    +0.000 C 
ATOM     30  C   UNL     1      -4.028  15.482  23.604  0.00  0.00    +0.000 C 
ATOM     31  N   UNL     1      -3.702  16.873  23.909  0.00  0.00    +0.000 NA
ATOM     32  C   UNL     1      -2.287  17.109  24.177  0.00  0.00    +0.000 C 
ATOM     33  C   UNL     1      -1.643  16.061  25.095  0.00  0.00    +0.000 C 
ATOM     34  H   UNL     1      -4.270  17.222  24.678  0.00  0.00    +0.000 HD
ENDBRANCH  27  28
ENDBRANCH  13  27
TORSDOF 6
ENDMDL
MODEL 3
REMARK VINA RESULT:      -7.1      1.054      1.454
REMARK  Name = 
REMARK  9 active torsions:
REMARK  status: ('A' for Active; 'I' for Inactive)
REMARK    1  A    between atoms: C_1  and  C_2
REMARK    2  A    between atoms: C_2  and  C_3
REMARK    3  A    between atoms: C_2  and  C_4
REMARK    4  A    between atoms: C_2  and  C_5
REMARK    5  A    between atoms: C_5  and  N_6
REMARK    6  A    between atoms: C_18  and  C_19
REMARK    7  A    between atoms: C_19  and  C_20
REMARK    8  A    between atoms: C_26  and  C_27
REMARK    9  A    between atoms: C_27  and  O_29
REMARK                            x       y       z     vdW  Elec       q    Type
REMARK                         _______ _______ _______ _____ _____    ______ ____
ROOT
ATOM      1  N   UNL     1      -2.565  13.870  23.816  0.00  0.00    +0.000 N 
ATOM      2  C   UNL     1      -2.972  13.785  22.509  0.00  0.00    +0.000 C 
ATOM      3  O   UNL     1      -3.761  14.568  22.011  0.00  0.00    +0.000 OA
ATOM      4  N   UNL     1      -2.418  12.743  21.792  0.00  0.00    +0.000 N 
ATOM      5  C   UNL     1      -2.700  12.595  20.350  0.00  0.00    +0.000 C 
ATOM      6  C   UNL     1      -1.403  12.401  19.516  0.00  0.00    +0.000 C 
ATOM      7  N   UNL     1      -0.495  11.435  20.143  0.00  0.00    +0.000 N 
ATOM      8  C   UNL     1       0.113  10.413  19.406  0.00  0.00    +0.000 C 
ATOM      9  O   UNL     1      -0.048  10.351  18.200  0.00  0.00    +0.000 OA
ATOM     10  N   UNL     1       0.871   9.478  20.104  0.00  0.00    +0.000 N 
ATOM     11  C   UNL     1       1.527   8.410  19.524  0.00  0.00    +0.000 C 
ATOM     12  O   UNL     1       2.106   8.285  18.460  0.00  0.00    +0.000 OA
ATOM     13  C   UNL     1       1.482   7.568  20.805  0.00  0.00    +0.000 C 
ATOM     14  C   UNL     1       0.461   8.656  21.290  0.00  0.00    +0.000 C 
ATOM     15  C   UNL     1      -0.221  11.792  21.531  0.00  0.00    +0.000 C 
ATOM     16  C   UNL     1      -1.521  11.719  22.330  0.00  0.00    +0.000 C 
ATOM     17  H   UNL     1      -1.608  13.607  23.970  0.00  0.00    +0.000 HD
ENDROOT
BRANCH  14  18
ATOM     18  C   UNL     1       0.838   9.202  22.710  0.00  0.00    +0.000 C 
ATOM     19  O   UNL     1       1.916   9.664  23.102  0.00  0.00    +0.000 OA
BRANCH  18  20
ATOM     20  O   UNL     1      -0.180   9.167  23.594  0.00  0.00    +0.000 OA
ATOM     21  H   UNL     1      -0.164  10.061  24.003  0.00  0.00    +0.000 HD
ENDBRANCH  18  20
ENDBRANCH  14  18
BRANCH   1  22
ATOM     22  C   UNL     1      -3.043  14.935  24.686  0.00  0.00    +0.000 C 
BRANCH  22  24
ATOM     23  C   UNL     1      -0.974  16.153  23.851  0.00  0.00    +0.000 C 
ATOM     24  C   UNL     1      -1.965  15.999  25.016  0.00  0.00    +0.000 C 
ATOM     25  C   UNL     1      -1.183  15.603  26.280  0.00  0.00    +0.000 C 
ATOM     26  C   UNL     1      -2.647  17.363  25.255  0.00  0.00    +0.000 C 
ENDBRANCH  22  24
ENDBRANCH   1  22
BRANCH  13  27
ATOM     27  C   UNL     1       1.139   6.064  20.660  0.00  0.00    +0.000 C 
BRANCH  27  28
ATOM     28  C   UNL     1       2.357   5.104  20.435  0.00  0.00    +0.000 C 
ATOM     29  C   UNL     1       2.566   4.641  18.985  0.00  0.00    +0.000 C 
ATOM     30  C   UNL     1       1.498   3.640  18.537  0.00  0.00    +0.000 C 
ATOM     31  N   UNL     1       1.353   2.462  19.389  0.00  0.00    +0.000 NA
ATOM     32  C   UNL     1       1.269   2.763  20.815  0.00  0.00    +0.000 C 
ATOM     33  C   UNL     1       2.289   3.806  21.293  0.00  0.00    +0.000 C 
ATOM     34  H   UNL     1       2.096   1.790  19.214  0.00  0.00    +0.000 HD
ENDBRANCH  27  28
ENDBRANCH  13  27
TORSDOF 6
ENDMDL
MODEL 4
REMARK VINA RESULT:      -7.1      1.674      9.479
REMARK  Name = 
REMARK  9 active torsions:
REMARK  status: ('A' for Active; 'I' for Inactive)
REMARK    1  A    between atoms: C_1  and  C_2
REMARK    2  A    between atoms: C_2  and  C_3
REMARK    3  A    between atoms: C_2  and  C_4
REMARK    4  A    between atoms: C_2  and  C_5
REMARK    5  A    between atoms: C_5  and  N_6
REMARK    6  A    between atoms: C_18  and  C_19
REMARK    7  A    between atoms: C_19  and  C_20
REMARK    8  A    between atoms: C_26  and  C_27
REMARK    9  A    between atoms: C_27  and  O_29
REMARK                            x       y       z     vdW  Elec       q    Type
REMARK                         _______ _______ _______ _____ _____    ______ ____
ROOT
ATOM      1  N   UNL     1       2.594   6.537  19.908  0.00  0.00    +0.000 N 
ATOM      2  C   UNL     1       2.477   7.428  18.872  0.00  0.00    +0.000 C 
ATOM      3  O   UNL     1       2.927   7.212  17.761  0.00  0.00    +0.000 OA
ATOM      4  N   UNL     1       1.804   8.595  19.179  0.00  0.00    +0.000 N 
ATOM      5  C   UNL     1       1.527   9.595  18.129  0.00  0.00    +0.000 C 
ATOM      6  C   UNL     1       0.038  10.041  18.124  0.00  0.00    +0.000 C 
ATOM      7  N   UNL     1      -0.452  10.311  19.480  0.00  0.00    +0.000 N 
ATOM      8  C   UNL     1      -1.183  11.465  19.780  0.00  0.00    +0.000 C 
ATOM      9  O   UNL     1      -1.491  12.241  18.893  0.00  0.00    +0.000 OA
ATOM     10  N   UNL     1      -1.512  11.690  21.114  0.00  0.00    +0.000 N 
ATOM     11  C   UNL     1      -2.222  12.783  21.572  0.00  0.00    +0.000 C 
ATOM     12  O   UNL     1      -3.148  13.416  21.097  0.00  0.00    +0.000 OA
ATOM     13  C   UNL     1      -1.600  12.715  22.972  0.00  0.00    +0.000 C 
ATOM     14  C   UNL     1      -0.594  11.718  22.300  0.00  0.00    +0.000 C 
ATOM     15  C   UNL     1      -0.210   9.175  20.364  0.00  0.00    +0.000 C 
ATOM     16  C   UNL     1       1.297   8.964  20.502  0.00  0.00    +0.000 C 
ATOM     17  H   UNL     1       1.804   6.513  20.526  0.00  0.00    +0.000 HD
ENDROOT
BRANCH  14  18
ATOM     18  C   UNL     1      -0.454  10.397  23.133  0.00  0.00    +0.000 C 
ATOM     19  O   UNL     1       0.564   9.893  23.621  0.00  0.00    +0.000 OA
BRANCH  18  20
ATOM     20  O   UNL     1      -1.624   9.760  23.343  0.00  0.00    +0.000 OA
ATOM     21  H   UNL     1      -1.360   8.819  23.455  0.00  0.00    +0.000 HD
ENDBRANCH  18  20
ENDBRANCH  14  18
BRANCH   1  22
ATOM     22  C   UNL     1       3.253   5.252  19.725  0.00  0.00    +0.000 C 
BRANCH  22  24
ATOM     23  C   UNL     1       2.925   2.752  20.054  0.00  0.00    +0.000 C 
ATOM     24  C   UNL     1       2.268   4.062  19.592  0.00  0.00    +0.000 C 
ATOM     25  C   UNL     1       1.812   3.897  18.132  0.00  0.00    +0.000 C 
ATOM     26  C   UNL     1       1.030   4.321  20.477  0.00  0.00    +0.000 C 
ENDBRANCH  22  24
ENDBRANCH   1  22
BRANCH  13  27
ATOM     27  C   UNL     1      -1.182  14.052  23.633  0.00  0.00    +0.000 C 
BRANCH  27  28
ATOM     28  C   UNL     1      -2.268  14.745  24.525  0.00  0.00    +0.000 C 
ATOM     29  C   UNL     1      -3.094  15.834  23.824  0.00  0.00    +0.000 C 
ATOM     30  C   UNL     1      -2.279  17.102  23.565  0.00  0.00    +0.000 C 
ATOM     31  N   UNL     1      -1.642  17.684  24.745  0.00  0.00    +0.000 NA
ATOM     32  C   UNL     1      -0.922  16.719  25.571  0.00  0.00    +0.000 C 
ATOM     33  C   UNL     1      -1.686  15.409  25.808  0.00  0.00    +0.000 C 
ATOM     34  H   UNL     1      -2.315  18.198  25.308  0.00  0.00    +0.000 HD
ENDBRANCH  27  28
ENDBRANCH  13  27
TORSDOF 6
ENDMDL
MODEL 5
REMARK VINA RESULT:      -7.1      0.767      1.130
REMARK  Name = 
REMARK  9 active torsions:
REMARK  status: ('A' for Active; 'I' for Inactive)
REMARK    1  A    between atoms: C_1  and  C_2
REMARK    2  A    between atoms: C_2  and  C_3
REMARK    3  A    between atoms: C_2  and  C_4
REMARK    4  A    between atoms: C_2  and  C_5
REMARK    5  A    between atoms: C_5  and  N_6
REMARK    6  A    between atoms: C_18  and  C_19
REMARK    7  A    between atoms: C_19  and  C_20
REMARK    8  A    between atoms: C_26  and  C_27
REMARK    9  A    between atoms: C_27  and  O_29
REMARK                            x       y       z     vdW  Elec       q    Type
REMARK                         _______ _______ _______ _____ _____    ______ ____
ROOT
ATOM      1  N   UNL     1      -2.710  13.765  22.703  0.00  0.00    +0.000 N 
ATOM      2  C   UNL     1      -2.930  13.577  21.363  0.00  0.00    +0.000 C 
ATOM      3  O   UNL     1      -3.635  14.315  20.698  0.00  0.00    +0.000 OA
ATOM      4  N   UNL     1      -2.288  12.484  20.814  0.00  0.00    +0.000 N 
ATOM      5  C   UNL     1      -2.366  12.222  19.363  0.00  0.00    +0.000 C 
ATOM      6  C   UNL     1      -0.965  11.968  18.739  0.00  0.00    +0.000 C 
ATOM      7  N   UNL     1      -0.163  11.056  19.561  0.00  0.00    +0.000 N 
ATOM      8  C   UNL     1       0.535   9.982  18.999  0.00  0.00    +0.000 C 
ATOM      9  O   UNL     1       0.546   9.825  17.791  0.00  0.00    +0.000 OA
ATOM     10  N   UNL     1       1.180   9.108  19.869  0.00  0.00    +0.000 N 
ATOM     11  C   UNL     1       1.903   7.999  19.472  0.00  0.00    +0.000 C 
ATOM     12  O   UNL     1       2.626   7.793  18.513  0.00  0.00    +0.000 OA
ATOM     13  C   UNL     1       1.671   7.261  20.796  0.00  0.00    +0.000 C 
ATOM     14  C   UNL     1       0.601   8.379  21.045  0.00  0.00    +0.000 C 
ATOM     15  C   UNL     1      -0.084  11.523  20.942  0.00  0.00    +0.000 C 
ATOM     16  C   UNL     1      -1.484  11.508  21.553  0.00  0.00    +0.000 C 
ATOM     17  H   UNL     1      -1.787  13.519  23.011  0.00  0.00    +0.000 HD
ENDROOT
BRANCH  14  18
ATOM     18  C   UNL     1       0.778   9.037  22.457  0.00  0.00    +0.000 C 
ATOM     19  O   UNL     1       1.779   9.580  22.939  0.00  0.00    +0.000 OA
BRANCH  18  20
ATOM     20  O   UNL     1      -0.337   9.005  23.215  0.00  0.00    +0.000 OA
ATOM     21  H   UNL     1      -0.560   8.049  23.260  0.00  0.00    +0.000 HD
ENDBRANCH  18  20
ENDBRANCH  14  18
BRANCH   1  22
ATOM     22  C   UNL     1      -3.298  14.894  23.411  0.00  0.00    +0.000 C 
BRANCH  22  24
ATOM     23  C   UNL     1      -2.599  17.212  24.185  0.00  0.00    +0.000 C 
ATOM     24  C   UNL     1      -2.272  15.711  24.237  0.00  0.00    +0.000 C 
ATOM     25  C   UNL     1      -0.849  15.498  23.696  0.00  0.00    +0.000 C 
ATOM     26  C   UNL     1      -2.322  15.256  25.711  0.00  0.00    +0.000 C 
ENDBRANCH  22  24
ENDBRANCH   1  22
BRANCH  13  27
ATOM     27  C   UNL     1       1.341   5.749  20.721  0.00  0.00    +0.000 C 
BRANCH  27  28
ATOM     28  C   UNL     1       2.542   4.773  20.973  0.00  0.00    +0.000 C 
ATOM     29  C   UNL     1       3.410   4.472  19.742  0.00  0.00    +0.000 C 
ATOM     30  C   UNL     1       2.692   3.574  18.732  0.00  0.00    +0.000 C 
ATOM     31  N   UNL     1       2.189   2.312  19.271  0.00  0.00    +0.000 NA
ATOM     32  C   UNL     1       1.446   2.449  20.519  0.00  0.00    +0.000 C 
ATOM     33  C   UNL     1       2.107   3.388  21.538  0.00  0.00    +0.000 C 
ATOM     34  H   UNL     1       2.941   1.635  19.381  0.00  0.00    +0.000 HD
ENDBRANCH  27  28
ENDBRANCH  13  27
TORSDOF 6
ENDMDL
MODEL 6
REMARK VINA RESULT:      -7.0      1.688      9.471
REMARK  Name = 
REMARK  9 active torsions:
REMARK  status: ('A' for Active; 'I' for Inactive)
REMARK    1  A    between atoms: C_1  and  C_2
REMARK    2  A    between atoms: C_2  and  C_3
REMARK    3  A    between atoms: C_2  and  C_4
REMARK    4  A    between atoms: C_2  and  C_5
REMARK    5  A    between atoms: C_5  and  N_6
REMARK    6  A    between atoms: C_18  and  C_19
REMARK    7  A    between atoms: C_19  and  C_20
REMARK    8  A    between atoms: C_26  and  C_27
REMARK    9  A    between atoms: C_27  and  O_29
REMARK                            x       y       z     vdW  Elec       q    Type
REMARK                         _______ _______ _______ _____ _____    ______ ____
ROOT
ATOM      1  N   UNL     1       2.582   6.397  19.888  0.00  0.00    +0.000 N 
ATOM      2  C   UNL     1       2.551   7.309  18.864  0.00  0.00    +0.000 C 
ATOM      3  O   UNL     1       3.055   7.098  17.776  0.00  0.00    +0.000 OA
ATOM      4  N   UNL     1       1.901   8.492  19.156  0.00  0.00    +0.000 N 
ATOM      5  C   UNL     1       1.715   9.519  18.112  0.00  0.00    +0.000 C 
ATOM      6  C   UNL     1       0.243  10.015  18.034  0.00  0.00    +0.000 C 
ATOM      7  N   UNL     1      -0.312  10.277  19.366  0.00  0.00    +0.000 N 
ATOM      8  C   UNL     1      -1.021  11.450  19.647  0.00  0.00    +0.000 C 
ATOM      9  O   UNL     1      -1.254  12.251  18.759  0.00  0.00    +0.000 OA
ATOM     10  N   UNL     1      -1.415  11.663  20.964  0.00  0.00    +0.000 N 
ATOM     11  C   UNL     1      -2.114  12.771  21.404  0.00  0.00    +0.000 C 
ATOM     12  O   UNL     1      -2.991  13.442  20.890  0.00  0.00    +0.000 OA
ATOM     13  C   UNL     1      -1.574  12.658  22.834  0.00  0.00    +0.000 C 
ATOM     14  C   UNL     1      -0.565  11.640  22.199  0.00  0.00    +0.000 C 
ATOM     15  C   UNL     1      -0.157   9.119  20.240  0.00  0.00    +0.000 C 
ATOM     16  C   UNL     1       1.333   8.855  20.456  0.00  0.00    +0.000 C 
ATOM     17  H   UNL     1       1.758   6.389  20.461  0.00  0.00    +0.000 HD
ENDROOT
BRANCH  14  18
ATOM     18  C   UNL     1      -0.514  10.300  23.013  0.00  0.00    +0.000 C 
ATOM     19  O   UNL     1      -1.431   9.507  23.258  0.00  0.00    +0.000 OA
BRANCH  18  20
ATOM     20  O   UNL     1       0.713   9.993  23.478  0.00  0.00    +0.000 OA
ATOM     21  H   UNL     1       1.258   9.916  22.664  0.00  0.00    +0.000 HD
ENDBRANCH  18  20
ENDBRANCH  14  18
BRANCH   1  22
ATOM     22  C   UNL     1       3.208   5.094  19.717  0.00  0.00    +0.000 C 
BRANCH  22  24
ATOM     23  C   UNL     1       1.701   3.844  18.094  0.00  0.00    +0.000 C 
ATOM     24  C   UNL     1       2.192   3.935  19.548  0.00  0.00    +0.000 C 
ATOM     25  C   UNL     1       0.976   4.142  20.467  0.00  0.00    +0.000 C 
ATOM     26  C   UNL     1       2.874   2.599  19.913  0.00  0.00    +0.000 C 
ENDBRANCH  22  24
ENDBRANCH   1  22
BRANCH  13  27
ATOM     27  C   UNL     1      -1.150  13.969  23.543  0.00  0.00    +0.000 C 
BRANCH  27  28
ATOM     28  C   UNL     1      -2.317  14.866  24.079  0.00  0.00    +0.000 C 
ATOM     29  C   UNL     1      -2.398  16.272  23.465  0.00  0.00    +0.000 C 
ATOM     30  C   UNL     1      -1.269  17.183  23.953  0.00  0.00    +0.000 C 
ATOM     31  N   UNL     1      -1.157  17.311  25.404  0.00  0.00    +0.000 NA
ATOM     32  C   UNL     1      -1.195  16.040  26.120  0.00  0.00    +0.000 C 
ATOM     33  C   UNL     1      -2.280  15.076  25.622  0.00  0.00    +0.000 C 
ATOM     34  H   UNL     1      -1.864  17.944  25.771  0.00  0.00    +0.000 HD
ENDBRANCH  27  28
ENDBRANCH  13  27
TORSDOF 6
ENDMDL
MODEL 7
REMARK VINA RESULT:      -7.0      1.626      9.286
REMARK  Name = 
REMARK  9 active torsions:
REMARK  status: ('A' for Active; 'I' for Inactive)
REMARK    1  A    between atoms: C_1  and  C_2
REMARK    2  A    between atoms: C_2  and  C_3
REMARK    3  A    between atoms: C_2  and  C_4
REMARK    4  A    between atoms: C_2  and  C_5
REMARK    5  A    between atoms: C_5  and  N_6
REMARK    6  A    between atoms: C_18  and  C_19
REMARK    7  A    between atoms: C_19  and  C_20
REMARK    8  A    between atoms: C_26  and  C_27
REMARK    9  A    between atoms: C_27  and  O_29
REMARK                            x       y       z     vdW  Elec       q    Type
REMARK                         _______ _______ _______ _____ _____    ______ ____
ROOT
ATOM      1  N   UNL     1       2.700   5.845  20.094  0.00  0.00    +0.000 N 
ATOM      2  C   UNL     1       2.796   6.682  19.012  0.00  0.00    +0.000 C 
ATOM      3  O   UNL     1       3.350   6.362  17.976  0.00  0.00    +0.000 OA
ATOM      4  N   UNL     1       2.214   7.923  19.182  0.00  0.00    +0.000 N 
ATOM      5  C   UNL     1       2.165   8.884  18.062  0.00  0.00    +0.000 C 
ATOM      6  C   UNL     1       0.739   9.469  17.854  0.00  0.00    +0.000 C 
ATOM      7  N   UNL     1       0.123   9.860  19.126  0.00  0.00    +0.000 N 
ATOM      8  C   UNL     1      -0.518  11.093  19.282  0.00  0.00    +0.000 C 
ATOM      9  O   UNL     1      -0.639  11.844  18.330  0.00  0.00    +0.000 OA
ATOM     10  N   UNL     1      -0.977  11.424  20.554  0.00  0.00    +0.000 N 
ATOM     11  C   UNL     1      -1.622  12.604  20.872  0.00  0.00    +0.000 C 
ATOM     12  O   UNL     1      -2.417  13.294  20.259  0.00  0.00    +0.000 OA
ATOM     13  C   UNL     1      -1.180  12.557  22.340  0.00  0.00    +0.000 C 
ATOM     14  C   UNL     1      -0.208  11.432  21.841  0.00  0.00    +0.000 C 
ATOM     15  C   UNL     1       0.143   8.758  20.083  0.00  0.00    +0.000 C 
ATOM     16  C   UNL     1       1.594   8.413  20.415  0.00  0.00    +0.000 C 
ATOM     17  H   UNL     1       1.844   5.931  20.611  0.00  0.00    +0.000 HD
ENDROOT
BRANCH  14  18
ATOM     18  C   UNL     1      -0.301  10.153  22.743  0.00  0.00    +0.000 C 
ATOM     19  O   UNL     1      -1.254   9.380  22.895  0.00  0.00    +0.000 OA
BRANCH  18  20
ATOM     20  O   UNL     1       0.835   9.878  23.415  0.00  0.00    +0.000 OA
ATOM     21  H   UNL     1       0.883   8.896  23.400  0.00  0.00    +0.000 HD
ENDBRANCH  18  20
ENDBRANCH  14  18
BRANCH   1  22
ATOM     22  C   UNL     1       3.242   4.494  20.051  0.00  0.00    +0.000 C 
BRANCH  22  24
ATOM     23  C   UNL     1       2.349   2.746  21.666  0.00  0.00    +0.000 C 
ATOM     24  C   UNL     1       2.179   3.390  20.281  0.00  0.00    +0.000 C 
ATOM     25  C   UNL     1       2.296   2.293  19.209  0.00  0.00    +0.000 C 
ATOM     26  C   UNL     1       0.769   4.013  20.207  0.00  0.00    +0.000 C 
ENDBRANCH  22  24
ENDBRANCH   1  22
BRANCH  13  27
ATOM     27  C   UNL     1      -0.709  13.883  22.986  0.00  0.00    +0.000 C 
BRANCH  27  28
ATOM     28  C   UNL     1      -1.798  15.002  23.124  0.00  0.00    +0.000 C 
ATOM     29  C   UNL     1      -1.552  16.021  24.247  0.00  0.00    +0.000 C 
ATOM     30  C   UNL     1      -1.777  15.417  25.636  0.00  0.00    +0.000 C 
ATOM     31  N   UNL     1      -3.086  14.800  25.841  0.00  0.00    +0.000 NA
ATOM     32  C   UNL     1      -3.494  13.897  24.769  0.00  0.00    +0.000 C 
ATOM     33  C   UNL     1      -3.233  14.445  23.359  0.00  0.00    +0.000 C 
ATOM     34  H   UNL     1      -3.802  15.505  26.000  0.00  0.00    +0.000 HD
ENDBRANCH  27  28
ENDBRANCH  13  27
TORSDOF 6
ENDMDL
MODEL 8
REMARK VINA RESULT:      -6.9      0.478      1.114
REMARK  Name = 
REMARK  9 active torsions:
REMARK  status: ('A' for Active; 'I' for Inactive)
REMARK    1  A    between atoms: C_1  and  C_2
REMARK    2  A    between atoms: C_2  and  C_3
REMARK    3  A    between atoms: C_2  and  C_4
REMARK    4  A    between atoms: C_2  and  C_5
REMARK    5  A    between atoms: C_5  and  N_6
REMARK    6  A    between atoms: C_18  and  C_19
REMARK    7  A    between atoms: C_19  and  C_20
REMARK    8  A    between atoms: C_26  and  C_27
REMARK    9  A    between atoms: C_27  and  O_29
REMARK                            x       y       z     vdW  Elec       q    Type
REMARK                         _______ _______ _______ _____ _____    ______ ____
ROOT
ATOM      1  N   UNL     1      -2.049  14.066  22.431  0.00  0.00    +0.000 N 
ATOM      2  C   UNL     1      -2.292  13.840  21.100  0.00  0.00    +0.000 C 
ATOM      3  O   UNL     1      -2.936  14.605  20.406  0.00  0.00    +0.000 OA
ATOM      4  N   UNL     1      -1.747  12.673  20.598  0.00  0.00    +0.000 N 
ATOM      5  C   UNL     1      -1.855  12.357  19.160  0.00  0.00    +0.000 C 
ATOM      6  C   UNL     1      -0.484  11.959  18.544  0.00  0.00    +0.000 C 
ATOM      7  N   UNL     1       0.243  11.019  19.404  0.00  0.00    +0.000 N 
ATOM      8  C   UNL     1       0.845   9.867  18.887  0.00  0.00    +0.000 C 
ATOM      9  O   UNL     1       0.835   9.658  17.687  0.00  0.00    +0.000 OA
ATOM     10  N   UNL     1       1.419   8.980  19.793  0.00  0.00    +0.000 N 
ATOM     11  C   UNL     1       2.044   7.798  19.443  0.00  0.00    +0.000 C 
ATOM     12  O   UNL     1       2.741   7.490  18.493  0.00  0.00    +0.000 OA
ATOM     13  C   UNL     1       1.759   7.139  20.798  0.00  0.00    +0.000 C 
ATOM     14  C   UNL     1       0.788   8.354  21.001  0.00  0.00    +0.000 C 
ATOM     15  C   UNL     1       0.369  11.536  20.763  0.00  0.00    +0.000 C 
ATOM     16  C   UNL     1      -1.024  11.666  21.377  0.00  0.00    +0.000 C 
ATOM     17  H   UNL     1      -1.148  13.757  22.747  0.00  0.00    +0.000 HD
ENDROOT
BRANCH  14  18
ATOM     18  C   UNL     1       1.028   9.055  22.383  0.00  0.00    +0.000 C 
ATOM     19  O   UNL     1       0.211   9.307  23.276  0.00  0.00    +0.000 OA
BRANCH  18  20
ATOM     20  O   UNL     1       2.313   9.398  22.602  0.00  0.00    +0.000 OA
ATOM     21  H   UNL     1       2.526   9.995  21.851  0.00  0.00    +0.000 HD
ENDBRANCH  18  20
ENDBRANCH  14  18
BRANCH   1  22
ATOM     22  C   UNL     1      -2.536  15.270  23.090  0.00  0.00    +0.000 C 
BRANCH  22  24
ATOM     23  C   UNL     1      -3.514  15.862  25.361  0.00  0.00    +0.000 C 
ATOM     24  C   UNL     1      -3.684  15.004  24.097  0.00  0.00    +0.000 C 
ATOM     25  C   UNL     1      -3.711  13.522  24.508  0.00  0.00    +0.000 C 
ATOM     26  C   UNL     1      -5.034  15.367  23.443  0.00  0.00    +0.000 C 
ENDBRANCH  22  24
ENDBRANCH   1  22
BRANCH  13  27
ATOM     27  C   UNL     1       1.302   5.659  20.790  0.00  0.00    +0.000 C 
BRANCH  27  28
ATOM     28  C   UNL     1       2.425   4.595  21.042  0.00  0.00    +0.000 C 
ATOM     29  C   UNL     1       3.359   4.335  19.850  0.00  0.00    +0.000 C 
ATOM     30  C   UNL     1       2.663   3.560  18.728  0.00  0.00    +0.000 C 
ATOM     31  N   UNL     1       2.054   2.294  19.131  0.00  0.00    +0.000 NA
ATOM     32  C   UNL     1       1.234   2.384  20.336  0.00  0.00    +0.000 C 
ATOM     33  C   UNL     1       1.875   3.201  21.466  0.00  0.00    +0.000 C 
ATOM     34  H   UNL     1       2.757   1.567  19.236  0.00  0.00    +0.000 HD
ENDBRANCH  27  28
ENDBRANCH  13  27
TORSDOF 6
ENDMDL
MODEL 9
REMARK VINA RESULT:      -6.9      3.407      9.671
REMARK  Name = 
REMARK  9 active torsions:
REMARK  status: ('A' for Active; 'I' for Inactive)
REMARK    1  A    between atoms: C_1  and  C_2
REMARK    2  A    between atoms: C_2  and  C_3
REMARK    3  A    between atoms: C_2  and  C_4
REMARK    4  A    between atoms: C_2  and  C_5
REMARK    5  A    between atoms: C_5  and  N_6
REMARK    6  A    between atoms: C_18  and  C_19
REMARK    7  A    between atoms: C_19  and  C_20
REMARK    8  A    between atoms: C_26  and  C_27
REMARK    9  A    between atoms: C_27  and  O_29
REMARK                            x       y       z     vdW  Elec       q    Type
REMARK                         _______ _______ _______ _____ _____    ______ ____
ROOT
ATOM      1  N   UNL     1       4.257   4.925  17.556  0.00  0.00    +0.000 N 
ATOM      2  C   UNL     1       3.399   4.425  18.502  0.00  0.00    +0.000 C 
ATOM      3  O   UNL     1       3.469   3.283  18.921  0.00  0.00    +0.000 OA
ATOM      4  N   UNL     1       2.443   5.315  18.953  0.00  0.00    +0.000 N 
ATOM      5  C   UNL     1       1.519   4.932  20.038  0.00  0.00    +0.000 C 
ATOM      6  C   UNL     1       1.457   6.006  21.161  0.00  0.00    +0.000 C 
ATOM      7  N   UNL     1       1.350   7.361  20.609  0.00  0.00    +0.000 N 
ATOM      8  C   UNL     1       0.422   8.283  21.104  0.00  0.00    +0.000 C 
ATOM      9  O   UNL     1      -0.275   7.996  22.061  0.00  0.00    +0.000 OA
ATOM     10  N   UNL     1       0.317   9.506  20.447  0.00  0.00    +0.000 N 
ATOM     11  C   UNL     1      -0.554  10.517  20.807  0.00  0.00    +0.000 C 
ATOM     12  O   UNL     1      -0.948  10.911  21.890  0.00  0.00    +0.000 OA
ATOM     13  C   UNL     1      -0.610  11.098  19.390  0.00  0.00    +0.000 C 
ATOM     14  C   UNL     1       0.090   9.754  18.986  0.00  0.00    +0.000 C 
ATOM     15  C   UNL     1       2.411   7.623  19.641  0.00  0.00    +0.000 C 
ATOM     16  C   UNL     1       2.244   6.677  18.453  0.00  0.00    +0.000 C 
ATOM     17  H   UNL     1       4.491   5.893  17.680  0.00  0.00    +0.000 HD
ENDROOT
BRANCH  14  18
ATOM     18  C   UNL     1       1.354  10.012  18.095  0.00  0.00    +0.000 C 
ATOM     19  O   UNL     1       2.290  10.796  18.286  0.00  0.00    +0.000 OA
BRANCH  18  20
ATOM     20  O   UNL     1       1.404   9.243  16.988  0.00  0.00    +0.000 OA
ATOM     21  H   UNL     1       0.561   8.739  17.016  0.00  0.00    +0.000 HD
ENDBRANCH  18  20
ENDBRANCH  14  18
BRANCH   1  22
ATOM     22  C   UNL     1       5.333   4.111  17.011  0.00  0.00    +0.000 C 
BRANCH  22  24
ATOM     23  C   UNL     1       7.031   4.652  15.198  0.00  0.00    +0.000 C 
ATOM     24  C   UNL     1       6.604   4.922  16.649  0.00  0.00    +0.000 C 
ATOM     25  C   UNL     1       7.767   4.550  17.584  0.00  0.00    +0.000 C 
ATOM     26  C   UNL     1       6.307   6.430  16.794  0.00  0.00    +0.000 C 
ENDBRANCH  22  24
ENDBRANCH   1  22
BRANCH  13  27
ATOM     27  C   UNL     1      -1.993  11.548  18.856  0.00  0.00    +0.000 C 
BRANCH  27  28
ATOM     28  C   UNL     1      -2.878  10.424  18.216  0.00  0.00    +0.000 C 
ATOM     29  C   UNL     1      -2.430   9.952  16.824  0.00  0.00    +0.000 C 
ATOM     30  C   UNL     1      -2.705  10.999  15.742  0.00  0.00    +0.000 C 
ATOM     31  N   UNL     1      -4.090  11.458  15.658  0.00  0.00    +0.000 NA
ATOM     32  C   UNL     1      -4.677  11.821  16.944  0.00  0.00    +0.000 C 
ATOM     33  C   UNL     1      -4.376  10.823  18.070  0.00  0.00    +0.000 C 
ATOM     34  H   UNL     1      -4.674  10.773  15.184  0.00  0.00    +0.000 HD
ENDBRANCH  27  28
ENDBRANCH  13  27
TORSDOF 6
ENDMDL
