MODEL 1
REMARK VINA RESULT:      -7.7      0.000      0.000
REMARK  Name = 
REMARK  6 active torsions:
REMARK  status: ('A' for Active; 'I' for Inactive)
REMARK    1  A    between atoms: C_1  and  C_2
REMARK    2  A    between atoms: C_5  and  C_6
REMARK    3  A    between atoms: C_8  and  C_9
REMARK    4  A    between atoms: C_18  and  N_19
REMARK    5  A    between atoms: N_22  and  C_23
REMARK    6  A    between atoms: N_22  and  C_24
REMARK                            x       y       z     vdW  Elec       q    Type
REMARK                         _______ _______ _______ _____ _____    ______ ____
ROOT
ATOM      1  C   UNL     1       2.986   5.548  18.597  0.00  0.00    +0.000 A 
ATOM      2  C   UNL     1       3.884   5.094  17.693  0.00  0.00    +0.000 A 
ATOM      3  C   UNL     1       4.447   5.983  16.675  0.00  0.00    +0.000 A 
ATOM      4  C   UNL     1       4.073   7.280  16.636  0.00  0.00    +0.000 A 
ATOM      5  C   UNL     1       3.140   7.782  17.587  0.00  0.00    +0.000 A 
ATOM      6  N   UNL     1       2.658   8.993  17.741  0.00  0.00    +0.000 NA
ATOM      7  C   UNL     1       1.826   8.938  18.815  0.00  0.00    +0.000 A 
ATOM      8  C   UNL     1       1.785   7.666  19.329  0.00  0.00    +0.000 A 
ATOM      9  N   UNL     1       2.625   6.904  18.538  0.00  0.00    +0.000 N 
ENDROOT
BRANCH   1  14
ATOM     10  C   UNL     1       0.922   1.927  22.442  0.00  0.00    +0.000 C 
ATOM     11  C   UNL     1       1.446   2.878  21.426  0.00  0.00    +0.000 A 
ATOM     12  C   UNL     1       1.016   2.898  20.118  0.00  0.00    +0.000 A 
ATOM     13  N   UNL     1       1.489   3.750  19.190  0.00  0.00    +0.000 NA
ATOM     14  C   UNL     1       2.438   4.617  19.594  0.00  0.00    +0.000 A 
ATOM     15  N   UNL     1       2.910   4.690  20.850  0.00  0.00    +0.000 NA
ATOM     16  C   UNL     1       2.406   3.815  21.737  0.00  0.00    +0.000 A 
ENDBRANCH   1  14
BRANCH   3  17
ATOM     17  C   UNL     1       5.412   5.484  15.685  0.00  0.00    +0.000 A 
ATOM     18  C   UNL     1       5.044   4.529  14.735  0.00  0.00    +0.000 A 
ATOM     19  C   UNL     1       6.010   4.003  13.878  0.00  0.00    +0.000 A 
ATOM     20  C   UNL     1       7.314   4.455  13.999  0.00  0.00    +0.000 A 
ATOM     21  N   UNL     1       7.707   5.383  14.898  0.00  0.00    +0.000 NA
ATOM     22  C   UNL     1       6.748   5.875  15.720  0.00  0.00    +0.000 A 
ENDBRANCH   3  17
BRANCH   7  23
ATOM     23  N   UNL     1       1.123  10.017  19.310  0.00  0.00    +0.000 N 
ATOM     24  C   UNL     1      -0.074  10.442  18.774  0.00  0.00    +0.000 C 
ATOM     25  O   UNL     1      -0.586   9.913  17.789  0.00  0.00    +0.000 OA
ATOM     26  N   UNL     1      -0.690  11.499  19.401  0.00  0.00    +0.000 N 
ATOM     27  C   UNL     1      -0.209  12.297  20.515  0.00  0.00    +0.000 C 
ATOM     28  H   UNL     1       1.547  10.489  20.086  0.00  0.00    +0.000 HD
BRANCH  26  29
ATOM     29  C   UNL     1      -1.938  11.958  18.861  0.00  0.00    +0.000 C 
ATOM     30  F   UNL     1      -2.938  11.063  18.739  0.00  0.00    +0.000 F 
ATOM     31  F   UNL     1      -2.418  12.965  19.638  0.00  0.00    +0.000 F 
ATOM     32  F   UNL     1      -1.731  12.494  17.630  0.00  0.00    +0.000 F 
ENDBRANCH  26  29
ENDBRANCH   7  23
TORSDOF 4
ENDMDL
MODEL 2
REMARK VINA RESULT:      -7.3      4.364     10.262
REMARK  Name = 
REMARK  6 active torsions:
REMARK  status: ('A' for Active; 'I' for Inactive)
REMARK    1  A    between atoms: C_1  and  C_2
REMARK    2  A    between atoms: C_5  and  C_6
REMARK    3  A    between atoms: C_8  and  C_9
REMARK    4  A    between atoms: C_18  and  N_19
REMARK    5  A    between atoms: N_22  and  C_23
REMARK    6  A    between atoms: N_22  and  C_24
REMARK                            x       y       z     vdW  Elec       q    Type
REMARK                         _______ _______ _______ _____ _____    ______ ____
ROOT
ATOM      1  C   UNL     1       0.647  12.098  21.164  0.00  0.00    +0.000 A 
ATOM      2  C   UNL     1      -0.283  12.825  21.823  0.00  0.00    +0.000 A 
ATOM      3  C   UNL     1      -1.290  12.179  22.668  0.00  0.00    +0.000 A 
ATOM      4  C   UNL     1      -1.291  10.835  22.800  0.00  0.00    +0.000 A 
ATOM      5  C   UNL     1      -0.312  10.051  22.127  0.00  0.00    +0.000 A 
ATOM      6  N   UNL     1      -0.121   8.753  22.129  0.00  0.00    +0.000 NA
ATOM      7  C   UNL     1       0.967   8.526  21.344  0.00  0.00    +0.000 A 
ATOM      8  C   UNL     1       1.451   9.708  20.839  0.00  0.00    +0.000 A 
ATOM      9  N   UNL     1       0.627  10.703  21.331  0.00  0.00    +0.000 N 
ENDROOT
BRANCH   1  14
ATOM     10  C   UNL     1       4.419  14.812  17.915  0.00  0.00    +0.000 C 
ATOM     11  C   UNL     1       3.430  14.086  18.755  0.00  0.00    +0.000 A 
ATOM     12  C   UNL     1       2.408  13.326  18.231  0.00  0.00    +0.000 A 
ATOM     13  N   UNL     1       1.504  12.671  18.982  0.00  0.00    +0.000 NA
ATOM     14  C   UNL     1       1.632  12.788  20.318  0.00  0.00    +0.000 A 
ATOM     15  N   UNL     1       2.603  13.489  20.927  0.00  0.00    +0.000 NA
ATOM     16  C   UNL     1       3.478  14.126  20.130  0.00  0.00    +0.000 A 
ENDBRANCH   1  14
BRANCH   3  17
ATOM     17  C   UNL     1      -2.308  12.971  23.371  0.00  0.00    +0.000 A 
ATOM     18  C   UNL     1      -3.552  12.424  23.695  0.00  0.00    +0.000 A 
ATOM     19  C   UNL     1      -4.531  13.234  24.271  0.00  0.00    +0.000 A 
ATOM     20  C   UNL     1      -4.229  14.565  24.507  0.00  0.00    +0.000 A 
ATOM     21  N   UNL     1      -3.037  15.127  24.216  0.00  0.00    +0.000 NA
ATOM     22  C   UNL     1      -2.105  14.318  23.655  0.00  0.00    +0.000 A 
ENDBRANCH   3  17
BRANCH   7  23
ATOM     23  N   UNL     1       1.500   7.279  21.095  0.00  0.00    +0.000 N 
ATOM     24  C   UNL     1       2.122   6.953  19.909  0.00  0.00    +0.000 C 
ATOM     25  O   UNL     1       2.215   7.741  18.969  0.00  0.00    +0.000 OA
ATOM     26  N   UNL     1       2.653   5.688  19.818  0.00  0.00    +0.000 N 
ATOM     27  C   UNL     1       2.576   4.602  20.778  0.00  0.00    +0.000 C 
ATOM     28  H   UNL     1       1.395   6.609  21.834  0.00  0.00    +0.000 HD
BRANCH  26  29
ATOM     29  C   UNL     1       3.308   5.328  18.592  0.00  0.00    +0.000 C 
ATOM     30  F   UNL     1       2.554   5.236  17.479  0.00  0.00    +0.000 F 
ATOM     31  F   UNL     1       4.281   6.237  18.322  0.00  0.00    +0.000 F 
ATOM     32  F   UNL     1       3.936   4.134  18.747  0.00  0.00    +0.000 F 
ENDBRANCH  26  29
ENDBRANCH   7  23
TORSDOF 4
ENDMDL
MODEL 3
REMARK VINA RESULT:      -7.3      4.321     10.305
REMARK  Name = 
REMARK  6 active torsions:
REMARK  status: ('A' for Active; 'I' for Inactive)
REMARK    1  A    between atoms: C_1  and  C_2
REMARK    2  A    between atoms: C_5  and  C_6
REMARK    3  A    between atoms: C_8  and  C_9
REMARK    4  A    between atoms: C_18  and  N_19
REMARK    5  A    between atoms: N_22  and  C_23
REMARK    6  A    between atoms: N_22  and  C_24
REMARK                            x       y       z     vdW  Elec       q    Type
REMARK                         _______ _______ _______ _____ _____    ______ ____
ROOT
ATOM      1  C   UNL     1       0.693  12.224  21.112  0.00  0.00    +0.000 A 
ATOM      2  C   UNL     1      -0.256  12.934  21.764  0.00  0.00    +0.000 A 
ATOM      3  C   UNL     1      -1.276  12.267  22.576  0.00  0.00    +0.000 A 
ATOM      4  C   UNL     1      -1.271  10.921  22.686  0.00  0.00    +0.000 A 
ATOM      5  C   UNL     1      -0.272  10.156  22.020  0.00  0.00    +0.000 A 
ATOM      6  N   UNL     1      -0.072   8.858  22.004  0.00  0.00    +0.000 NA
ATOM      7  C   UNL     1       1.033   8.652  21.239  0.00  0.00    +0.000 A 
ATOM      8  C   UNL     1       1.520   9.845  20.764  0.00  0.00    +0.000 A 
ATOM      9  N   UNL     1       0.679  10.827  21.255  0.00  0.00    +0.000 N 
ENDROOT
BRANCH   1  14
ATOM     10  C   UNL     1       4.563  14.915  17.960  0.00  0.00    +0.000 C 
ATOM     11  C   UNL     1       3.548  14.224  18.799  0.00  0.00    +0.000 A 
ATOM     12  C   UNL     1       3.557  14.258  20.176  0.00  0.00    +0.000 A 
ATOM     13  N   UNL     1       2.647  13.630  20.944  0.00  0.00    +0.000 NA
ATOM     14  C   UNL     1       1.691  12.935  20.299  0.00  0.00    +0.000 A 
ATOM     15  N   UNL     1       1.584  12.855  18.962  0.00  0.00    +0.000 NA
ATOM     16  C   UNL     1       2.519  13.499  18.242  0.00  0.00    +0.000 A 
ENDBRANCH   1  14
BRANCH   3  17
ATOM     17  C   UNL     1      -2.314  13.041  23.271  0.00  0.00    +0.000 A 
ATOM     18  C   UNL     1      -3.417  12.410  23.852  0.00  0.00    +0.000 A 
ATOM     19  C   UNL     1      -4.434  13.182  24.413  0.00  0.00    +0.000 A 
ATOM     20  C   UNL     1      -4.309  14.561  24.378  0.00  0.00    +0.000 A 
ATOM     21  N   UNL     1      -3.255  15.207  23.834  0.00  0.00    +0.000 NA
ATOM     22  C   UNL     1      -2.284  14.432  23.293  0.00  0.00    +0.000 A 
ENDBRANCH   3  17
BRANCH   7  23
ATOM     23  N   UNL     1       1.580   7.413  20.980  0.00  0.00    +0.000 N 
ATOM     24  C   UNL     1       2.095   7.063  19.750  0.00  0.00    +0.000 C 
ATOM     25  O   UNL     1       2.071   7.818  18.781  0.00  0.00    +0.000 OA
ATOM     26  N   UNL     1       2.655   5.811  19.650  0.00  0.00    +0.000 N 
ATOM     27  C   UNL     1       2.707   4.758  20.648  0.00  0.00    +0.000 C 
ATOM     28  H   UNL     1       1.568   6.767  21.748  0.00  0.00    +0.000 HD
BRANCH  26  29
ATOM     29  C   UNL     1       3.199   5.426  18.378  0.00  0.00    +0.000 C 
ATOM     30  F   UNL     1       4.013   6.298  17.752  0.00  0.00    +0.000 F 
ATOM     31  F   UNL     1       3.911   4.277  18.527  0.00  0.00    +0.000 F 
ATOM     32  F   UNL     1       2.187   5.137  17.520  0.00  0.00    +0.000 F 
ENDBRANCH  26  29
ENDBRANCH   7  23
TORSDOF 4
ENDMDL
MODEL 4
REMARK VINA RESULT:      -7.3      4.424      9.869
REMARK  Name = 
REMARK  6 active torsions:
REMARK  status: ('A' for Active; 'I' for Inactive)
REMARK    1  A    between atoms: C_1  and  C_2
REMARK    2  A    between atoms: C_5  and  C_6
REMARK    3  A    between atoms: C_8  and  C_9
REMARK    4  A    between atoms: C_18  and  N_19
REMARK    5  A    between atoms: N_22  and  C_23
REMARK    6  A    between atoms: N_22  and  C_24
REMARK                            x       y       z     vdW  Elec       q    Type
REMARK                         _______ _______ _______ _____ _____    ______ ____
ROOT
ATOM      1  C   UNL     1      -1.282  10.712  19.785  0.00  0.00    +0.000 A 
ATOM      2  C   UNL     1      -1.758  11.609  20.678  0.00  0.00    +0.000 A 
ATOM      3  C   UNL     1      -1.207  11.693  22.033  0.00  0.00    +0.000 A 
ATOM      4  C   UNL     1      -0.203  10.869  22.401  0.00  0.00    +0.000 A 
ATOM      5  C   UNL     1       0.322   9.926  21.472  0.00  0.00    +0.000 A 
ATOM      6  N   UNL     1       1.293   9.054  21.611  0.00  0.00    +0.000 NA
ATOM      7  C   UNL     1       1.412   8.422  20.412  0.00  0.00    +0.000 A 
ATOM      8  C   UNL     1       0.489   8.906  19.518  0.00  0.00    +0.000 A 
ATOM      9  N   UNL     1      -0.230   9.875  20.194  0.00  0.00    +0.000 N 
ENDROOT
BRANCH   1  14
ATOM     10  C   UNL     1      -3.609  10.467  14.620  0.00  0.00    +0.000 C 
ATOM     11  C   UNL     1      -2.982  10.528  15.967  0.00  0.00    +0.000 A 
ATOM     12  C   UNL     1      -1.927   9.727  16.346  0.00  0.00    +0.000 A 
ATOM     13  N   UNL     1      -1.357   9.770  17.564  0.00  0.00    +0.000 NA
ATOM     14  C   UNL     1      -1.873  10.655  18.440  0.00  0.00    +0.000 A 
ATOM     15  N   UNL     1      -2.886  11.492  18.163  0.00  0.00    +0.000 NA
ATOM     16  C   UNL     1      -3.421  11.406  16.932  0.00  0.00    +0.000 A 
ENDBRANCH   1  14
BRANCH   3  17
ATOM     17  C   UNL     1      -1.736  12.660  23.005  0.00  0.00    +0.000 A 
ATOM     18  C   UNL     1      -3.015  12.513  23.548  0.00  0.00    +0.000 A 
ATOM     19  C   UNL     1      -3.523  13.503  24.388  0.00  0.00    +0.000 A 
ATOM     20  C   UNL     1      -2.731  14.605  24.662  0.00  0.00    +0.000 A 
ATOM     21  N   UNL     1      -1.488  14.779  24.165  0.00  0.00    +0.000 NA
ATOM     22  C   UNL     1      -1.020  13.803  23.348  0.00  0.00    +0.000 A 
ENDBRANCH   3  17
BRANCH   7  23
ATOM     23  N   UNL     1       2.333   7.432  20.143  0.00  0.00    +0.000 N 
ATOM     24  C   UNL     1       2.078   6.093  20.350  0.00  0.00    +0.000 C 
ATOM     25  O   UNL     1       1.020   5.685  20.827  0.00  0.00    +0.000 OA
ATOM     26  N   UNL     1       3.069   5.213  19.989  0.00  0.00    +0.000 N 
ATOM     27  C   UNL     1       4.402   5.503  19.489  0.00  0.00    +0.000 C 
ATOM     28  H   UNL     1       3.219   7.750  19.795  0.00  0.00    +0.000 HD
BRANCH  26  29
ATOM     29  C   UNL     1       2.824   3.813  20.194  0.00  0.00    +0.000 C 
ATOM     30  F   UNL     1       1.810   3.245  19.512  0.00  0.00    +0.000 F 
ATOM     31  F   UNL     1       3.943   3.112  19.871  0.00  0.00    +0.000 F 
ATOM     32  F   UNL     1       2.598   3.581  21.513  0.00  0.00    +0.000 F 
ENDBRANCH  26  29
ENDBRANCH   7  23
TORSDOF 4
ENDMDL
MODEL 5
REMARK VINA RESULT:      -7.3      4.338     10.284
REMARK  Name = 
REMARK  6 active torsions:
REMARK  status: ('A' for Active; 'I' for Inactive)
REMARK    1  A    between atoms: C_1  and  C_2
REMARK    2  A    between atoms: C_5  and  C_6
REMARK    3  A    between atoms: C_8  and  C_9
REMARK    4  A    between atoms: C_18  and  N_19
REMARK    5  A    between atoms: N_22  and  C_23
REMARK    6  A    between atoms: N_22  and  C_24
REMARK                            x       y       z     vdW  Elec       q    Type
REMARK                         _______ _______ _______ _____ _____    ______ ____
ROOT
ATOM      1  C   UNL     1       0.741  12.128  21.133  0.00  0.00    +0.000 A 
ATOM      2  C   UNL     1      -0.185  12.848  21.806  0.00  0.00    +0.000 A 
ATOM      3  C   UNL     1      -1.190  12.192  22.646  0.00  0.00    +0.000 A 
ATOM      4  C   UNL     1      -1.193  10.847  22.760  0.00  0.00    +0.000 A 
ATOM      5  C   UNL     1      -0.218  10.070  22.072  0.00  0.00    +0.000 A 
ATOM      6  N   UNL     1      -0.030   8.771  22.055  0.00  0.00    +0.000 NA
ATOM      7  C   UNL     1       1.054   8.554  21.264  0.00  0.00    +0.000 A 
ATOM      8  C   UNL     1       1.539   9.741  20.773  0.00  0.00    +0.000 A 
ATOM      9  N   UNL     1       0.719  10.731  21.281  0.00  0.00    +0.000 N 
ENDROOT
BRANCH   1  14
ATOM     10  C   UNL     1       4.505  14.879  17.906  0.00  0.00    +0.000 C 
ATOM     11  C   UNL     1       3.518  14.143  18.740  0.00  0.00    +0.000 A 
ATOM     12  C   UNL     1       2.510  13.368  18.210  0.00  0.00    +0.000 A 
ATOM     13  N   UNL     1       1.609  12.704  18.956  0.00  0.00    +0.000 NA
ATOM     14  C   UNL     1       1.724  12.828  20.293  0.00  0.00    +0.000 A 
ATOM     15  N   UNL     1       2.681  13.543  20.907  0.00  0.00    +0.000 NA
ATOM     16  C   UNL     1       3.555  14.189  20.115  0.00  0.00    +0.000 A 
ENDBRANCH   1  14
BRANCH   3  17
ATOM     17  C   UNL     1      -2.204  12.976  23.364  0.00  0.00    +0.000 A 
ATOM     18  C   UNL     1      -1.932  14.270  23.814  0.00  0.00    +0.000 A 
ATOM     19  C   UNL     1      -2.880  14.946  24.580  0.00  0.00    +0.000 A 
ATOM     20  C   UNL     1      -4.074  14.304  24.867  0.00  0.00    +0.000 A 
ATOM     21  N   UNL     1      -4.378  13.059  24.443  0.00  0.00    +0.000 NA
ATOM     22  C   UNL     1      -3.436  12.424  23.703  0.00  0.00    +0.000 A 
ENDBRANCH   3  17
BRANCH   7  23
ATOM     23  N   UNL     1       1.584   7.309  20.995  0.00  0.00    +0.000 N 
ATOM     24  C   UNL     1       2.132   6.975  19.775  0.00  0.00    +0.000 C 
ATOM     25  O   UNL     1       2.156   7.751  18.822  0.00  0.00    +0.000 OA
ATOM     26  N   UNL     1       2.670   5.714  19.665  0.00  0.00    +0.000 N 
ATOM     27  C   UNL     1       2.667   4.639  20.641  0.00  0.00    +0.000 C 
ATOM     28  H   UNL     1       1.534   6.647  21.747  0.00  0.00    +0.000 HD
BRANCH  26  29
ATOM     29  C   UNL     1       3.248   5.345  18.404  0.00  0.00    +0.000 C 
ATOM     30  F   UNL     1       4.120   6.201  17.836  0.00  0.00    +0.000 F 
ATOM     31  F   UNL     1       3.906   4.164  18.544  0.00  0.00    +0.000 F 
ATOM     32  F   UNL     1       2.259   5.124  17.499  0.00  0.00    +0.000 F 
ENDBRANCH  26  29
ENDBRANCH   7  23
TORSDOF 4
ENDMDL
MODEL 6
REMARK VINA RESULT:      -7.2      4.141      9.743
REMARK  Name = 
REMARK  6 active torsions:
REMARK  status: ('A' for Active; 'I' for Inactive)
REMARK    1  A    between atoms: C_1  and  C_2
REMARK    2  A    between atoms: C_5  and  C_6
REMARK    3  A    between atoms: C_8  and  C_9
REMARK    4  A    between atoms: C_18  and  N_19
REMARK    5  A    between atoms: N_22  and  C_23
REMARK    6  A    between atoms: N_22  and  C_24
REMARK                            x       y       z     vdW  Elec       q    Type
REMARK                         _______ _______ _______ _____ _____    ______ ____
ROOT
ATOM      1  C   UNL     1       0.697  12.217  19.116  0.00  0.00    +0.000 A 
ATOM      2  C   UNL     1      -0.614  12.528  19.240  0.00  0.00    +0.000 A 
ATOM      3  C   UNL     1      -1.656  11.590  18.818  0.00  0.00    +0.000 A 
ATOM      4  C   UNL     1      -1.311  10.391  18.301  0.00  0.00    +0.000 A 
ATOM      5  C   UNL     1       0.062  10.039  18.175  0.00  0.00    +0.000 A 
ATOM      6  N   UNL     1       0.614   8.937  17.722  0.00  0.00    +0.000 NA
ATOM      7  C   UNL     1       1.958   9.105  17.846  0.00  0.00    +0.000 A 
ATOM      8  C   UNL     1       2.243  10.340  18.375  0.00  0.00    +0.000 A 
ATOM      9  N   UNL     1       1.024  10.959  18.585  0.00  0.00    +0.000 N 
ENDROOT
BRANCH   1  14
ATOM     10  C   UNL     1       4.644  15.955  20.729  0.00  0.00    +0.000 C 
ATOM     11  C   UNL     1       3.600  14.977  20.322  0.00  0.00    +0.000 A 
ATOM     12  C   UNL     1       3.023  14.081  21.195  0.00  0.00    +0.000 A 
ATOM     13  N   UNL     1       2.083  13.188  20.836  0.00  0.00    +0.000 NA
ATOM     14  C   UNL     1       1.710  13.194  19.542  0.00  0.00    +0.000 A 
ATOM     15  N   UNL     1       2.196  14.039  18.617  0.00  0.00    +0.000 NA
ATOM     16  C   UNL     1       3.135  14.909  19.029  0.00  0.00    +0.000 A 
ENDBRANCH   1  14
BRANCH   3  17
ATOM     17  C   UNL     1      -3.080  11.936  18.942  0.00  0.00    +0.000 A 
ATOM     18  C   UNL     1      -3.565  12.606  20.067  0.00  0.00    +0.000 A 
ATOM     19  C   UNL     1      -4.936  12.827  20.197  0.00  0.00    +0.000 A 
ATOM     20  C   UNL     1      -5.775  12.372  19.194  0.00  0.00    +0.000 A 
ATOM     21  N   UNL     1      -5.343  11.729  18.087  0.00  0.00    +0.000 NA
ATOM     22  C   UNL     1      -4.007  11.525  17.988  0.00  0.00    +0.000 A 
ENDBRANCH   3  17
BRANCH   7  23
ATOM     23  N   UNL     1       2.897   8.161  17.484  0.00  0.00    +0.000 N 
ATOM     24  C   UNL     1       3.184   7.056  18.255  0.00  0.00    +0.000 C 
ATOM     25  O   UNL     1       2.649   6.847  19.342  0.00  0.00    +0.000 OA
ATOM     26  N   UNL     1       4.106   6.172  17.746  0.00  0.00    +0.000 N 
ATOM     27  C   UNL     1       4.894   6.283  16.532  0.00  0.00    +0.000 C 
ATOM     28  H   UNL     1       3.376   8.339  16.621  0.00  0.00    +0.000 HD
BRANCH  26  29
ATOM     29  C   UNL     1       4.418   5.011  18.532  0.00  0.00    +0.000 C 
ATOM     30  F   UNL     1       3.397   4.233  18.939  0.00  0.00    +0.000 F 
ATOM     31  F   UNL     1       5.255   4.206  17.824  0.00  0.00    +0.000 F 
ATOM     32  F   UNL     1       5.102   5.386  19.643  0.00  0.00    +0.000 F 
ENDBRANCH  26  29
ENDBRANCH   7  23
TORSDOF 4
ENDMDL
MODEL 7
REMARK VINA RESULT:      -7.2      4.135      9.728
REMARK  Name = 
REMARK  6 active torsions:
REMARK  status: ('A' for Active; 'I' for Inactive)
REMARK    1  A    between atoms: C_1  and  C_2
REMARK    2  A    between atoms: C_5  and  C_6
REMARK    3  A    between atoms: C_8  and  C_9
REMARK    4  A    between atoms: C_18  and  N_19
REMARK    5  A    between atoms: N_22  and  C_23
REMARK    6  A    between atoms: N_22  and  C_24
REMARK                            x       y       z     vdW  Elec       q    Type
REMARK                         _______ _______ _______ _____ _____    ______ ____
ROOT
ATOM      1  C   UNL     1       0.635  12.218  19.146  0.00  0.00    +0.000 A 
ATOM      2  C   UNL     1      -0.678  12.515  19.275  0.00  0.00    +0.000 A 
ATOM      3  C   UNL     1      -1.713  11.569  18.852  0.00  0.00    +0.000 A 
ATOM      4  C   UNL     1      -1.358  10.376  18.330  0.00  0.00    +0.000 A 
ATOM      5  C   UNL     1       0.018  10.037  18.198  0.00  0.00    +0.000 A 
ATOM      6  N   UNL     1       0.579   8.942  17.740  0.00  0.00    +0.000 NA
ATOM      7  C   UNL     1       1.921   9.123  17.860  0.00  0.00    +0.000 A 
ATOM      8  C   UNL     1       2.196  10.358  18.394  0.00  0.00    +0.000 A 
ATOM      9  N   UNL     1       0.972  10.965  18.609  0.00  0.00    +0.000 N 
ENDROOT
BRANCH   1  14
ATOM     10  C   UNL     1       4.469  16.044  20.823  0.00  0.00    +0.000 C 
ATOM     11  C   UNL     1       3.472  15.039  20.367  0.00  0.00    +0.000 A 
ATOM     12  C   UNL     1       2.988  14.987  19.078  0.00  0.00    +0.000 A 
ATOM     13  N   UNL     1       2.082  14.086  18.657  0.00  0.00    +0.000 NA
ATOM     14  C   UNL     1       1.639  13.203  19.573  0.00  0.00    +0.000 A 
ATOM     15  N   UNL     1       2.061  13.158  20.847  0.00  0.00    +0.000 NA
ATOM     16  C   UNL     1       2.966  14.082  21.217  0.00  0.00    +0.000 A 
ENDBRANCH   1  14
BRANCH   3  17
ATOM     17  C   UNL     1      -3.139  11.901  18.981  0.00  0.00    +0.000 A 
ATOM     18  C   UNL     1      -4.051  11.575  17.974  0.00  0.00    +0.000 A 
ATOM     19  C   UNL     1      -5.376  11.995  18.083  0.00  0.00    +0.000 A 
ATOM     20  C   UNL     1      -5.745  12.725  19.200  0.00  0.00    +0.000 A 
ATOM     21  N   UNL     1      -4.897  13.052  20.198  0.00  0.00    +0.000 NA
ATOM     22  C   UNL     1      -3.615  12.633  20.065  0.00  0.00    +0.000 A 
ENDBRANCH   3  17
BRANCH   7  23
ATOM     23  N   UNL     1       2.868   8.189  17.492  0.00  0.00    +0.000 N 
ATOM     24  C   UNL     1       3.180   7.092  18.267  0.00  0.00    +0.000 C 
ATOM     25  O   UNL     1       2.662   6.884  19.362  0.00  0.00    +0.000 OA
ATOM     26  N   UNL     1       4.107   6.217  17.752  0.00  0.00    +0.000 N 
ATOM     27  C   UNL     1       4.878   6.331  16.527  0.00  0.00    +0.000 C 
ATOM     28  H   UNL     1       3.334   8.367  16.622  0.00  0.00    +0.000 HD
BRANCH  26  29
ATOM     29  C   UNL     1       4.445   5.066  18.541  0.00  0.00    +0.000 C 
ATOM     30  F   UNL     1       3.444   4.258  18.937  0.00  0.00    +0.000 F 
ATOM     31  F   UNL     1       5.313   4.287  17.842  0.00  0.00    +0.000 F 
ATOM     32  F   UNL     1       5.106   5.461  19.660  0.00  0.00    +0.000 F 
ENDBRANCH  26  29
ENDBRANCH   7  23
TORSDOF 4
ENDMDL
MODEL 8
REMARK VINA RESULT:      -7.2      4.129      9.743
REMARK  Name = 
REMARK  6 active torsions:
REMARK  status: ('A' for Active; 'I' for Inactive)
REMARK    1  A    between atoms: C_1  and  C_2
REMARK    2  A    between atoms: C_5  and  C_6
REMARK    3  A    between atoms: C_8  and  C_9
REMARK    4  A    between atoms: C_18  and  N_19
REMARK    5  A    between atoms: N_22  and  C_23
REMARK    6  A    between atoms: N_22  and  C_24
REMARK                            x       y       z     vdW  Elec       q    Type
REMARK                         _______ _______ _______ _____ _____    ______ ____
ROOT
ATOM      1  C   UNL     1       0.678  12.230  19.174  0.00  0.00    +0.000 A 
ATOM      2  C   UNL     1      -0.633  12.528  19.322  0.00  0.00    +0.000 A 
ATOM      3  C   UNL     1      -1.675  11.586  18.907  0.00  0.00    +0.000 A 
ATOM      4  C   UNL     1      -1.328  10.396  18.373  0.00  0.00    +0.000 A 
ATOM      5  C   UNL     1       0.046  10.055  18.220  0.00  0.00    +0.000 A 
ATOM      6  N   UNL     1       0.599   8.963  17.748  0.00  0.00    +0.000 NA
ATOM      7  C   UNL     1       1.943   9.141  17.852  0.00  0.00    +0.000 A 
ATOM      8  C   UNL     1       2.227  10.372  18.389  0.00  0.00    +0.000 A 
ATOM      9  N   UNL     1       1.007  10.979  18.625  0.00  0.00    +0.000 N 
ENDROOT
BRANCH   1  14
ATOM     10  C   UNL     1       4.619  15.984  20.761  0.00  0.00    +0.000 C 
ATOM     11  C   UNL     1       3.577  15.001  20.362  0.00  0.00    +0.000 A 
ATOM     12  C   UNL     1       3.033  14.082  21.231  0.00  0.00    +0.000 A 
ATOM     13  N   UNL     1       2.094  13.185  20.878  0.00  0.00    +0.000 NA
ATOM     14  C   UNL     1       1.689  13.211  19.593  0.00  0.00    +0.000 A 
ATOM     15  N   UNL     1       2.144  14.078  18.673  0.00  0.00    +0.000 NA
ATOM     16  C   UNL     1       3.082  14.951  19.078  0.00  0.00    +0.000 A 
ENDBRANCH   1  14
BRANCH   3  17
ATOM     17  C   UNL     1      -3.099  11.919  19.057  0.00  0.00    +0.000 A 
ATOM     18  C   UNL     1      -4.026  11.585  18.067  0.00  0.00    +0.000 A 
ATOM     19  C   UNL     1      -5.349  12.006  18.195  0.00  0.00    +0.000 A 
ATOM     20  C   UNL     1      -5.701  12.744  19.313  0.00  0.00    +0.000 A 
ATOM     21  N   UNL     1      -4.836  13.078  20.295  0.00  0.00    +0.000 NA
ATOM     22  C   UNL     1      -3.556  12.659  20.144  0.00  0.00    +0.000 A 
ENDBRANCH   3  17
BRANCH   7  23
ATOM     23  N   UNL     1       2.884   8.209  17.466  0.00  0.00    +0.000 N 
ATOM     24  C   UNL     1       3.188   7.095  18.218  0.00  0.00    +0.000 C 
ATOM     25  O   UNL     1       2.669   6.868  19.310  0.00  0.00    +0.000 OA
ATOM     26  N   UNL     1       4.109   6.224  17.686  0.00  0.00    +0.000 N 
ATOM     27  C   UNL     1       4.881   6.356  16.463  0.00  0.00    +0.000 C 
ATOM     28  H   UNL     1       3.350   8.400  16.598  0.00  0.00    +0.000 HD
BRANCH  26  29
ATOM     29  C   UNL     1       4.440   5.055  18.452  0.00  0.00    +0.000 C 
ATOM     30  F   UNL     1       4.871   5.232  19.716  0.00  0.00    +0.000 F 
ATOM     31  F   UNL     1       3.349   4.248  18.528  0.00  0.00    +0.000 F 
ATOM     32  F   UNL     1       5.395   4.342  17.801  0.00  0.00    +0.000 F 
ENDBRANCH  26  29
ENDBRANCH   7  23
TORSDOF 4
ENDMDL
MODEL 9
REMARK VINA RESULT:      -7.1      4.371      9.841
REMARK  Name = 
REMARK  6 active torsions:
REMARK  status: ('A' for Active; 'I' for Inactive)
REMARK    1  A    between atoms: C_1  and  C_2
REMARK    2  A    between atoms: C_5  and  C_6
REMARK    3  A    between atoms: C_8  and  C_9
REMARK    4  A    between atoms: C_18  and  N_19
REMARK    5  A    between atoms: N_22  and  C_23
REMARK    6  A    between atoms: N_22  and  C_24
REMARK                            x       y       z     vdW  Elec       q    Type
REMARK                         _______ _______ _______ _____ _____    ______ ____
ROOT
ATOM      1  C   UNL     1      -1.288  10.694  19.745  0.00  0.00    +0.000 A 
ATOM      2  C   UNL     1      -1.763  11.595  20.635  0.00  0.00    +0.000 A 
ATOM      3  C   UNL     1      -1.201  11.695  21.983  0.00  0.00    +0.000 A 
ATOM      4  C   UNL     1      -0.187  10.882  22.350  0.00  0.00    +0.000 A 
ATOM      5  C   UNL     1       0.338   9.936  21.425  0.00  0.00    +0.000 A 
ATOM      6  N   UNL     1       1.317   9.073  21.561  0.00  0.00    +0.000 NA
ATOM      7  C   UNL     1       1.430   8.432  20.368  0.00  0.00    +0.000 A 
ATOM      8  C   UNL     1       0.495   8.901  19.478  0.00  0.00    +0.000 A 
ATOM      9  N   UNL     1      -0.225   9.869  20.152  0.00  0.00    +0.000 N 
ENDROOT
BRANCH   1  14
ATOM     10  C   UNL     1      -3.563  10.434  14.558  0.00  0.00    +0.000 C 
ATOM     11  C   UNL     1      -2.983  10.505  15.926  0.00  0.00    +0.000 A 
ATOM     12  C   UNL     1      -3.437  11.374  16.894  0.00  0.00    +0.000 A 
ATOM     13  N   UNL     1      -2.915  11.450  18.132  0.00  0.00    +0.000 NA
ATOM     14  C   UNL     1      -1.890  10.620  18.406  0.00  0.00    +0.000 A 
ATOM     15  N   UNL     1      -1.387   9.725  17.539  0.00  0.00    +0.000 NA
ATOM     16  C   UNL     1      -1.943   9.691  16.316  0.00  0.00    +0.000 A 
ENDBRANCH   1  14
BRANCH   3  17
ATOM     17  C   UNL     1      -1.729  12.666  22.952  0.00  0.00    +0.000 A 
ATOM     18  C   UNL     1      -3.005  12.519  23.500  0.00  0.00    +0.000 A 
ATOM     19  C   UNL     1      -3.513  13.511  24.337  0.00  0.00    +0.000 A 
ATOM     20  C   UNL     1      -2.724  14.618  24.601  0.00  0.00    +0.000 A 
ATOM     21  N   UNL     1      -1.482  14.792  24.099  0.00  0.00    +0.000 NA
ATOM     22  C   UNL     1      -1.015  13.813  23.286  0.00  0.00    +0.000 A 
ENDBRANCH   3  17
BRANCH   7  23
ATOM     23  N   UNL     1       2.358   7.447  20.098  0.00  0.00    +0.000 N 
ATOM     24  C   UNL     1       2.111   6.107  20.310  0.00  0.00    +0.000 C 
ATOM     25  O   UNL     1       1.058   5.693  20.791  0.00  0.00    +0.000 OA
ATOM     26  N   UNL     1       3.108   5.232  19.948  0.00  0.00    +0.000 N 
ATOM     27  C   UNL     1       4.437   5.530  19.445  0.00  0.00    +0.000 C 
ATOM     28  H   UNL     1       3.240   7.769  19.747  0.00  0.00    +0.000 HD
BRANCH  26  29
ATOM     29  C   UNL     1       2.872   3.831  20.158  0.00  0.00    +0.000 C 
ATOM     30  F   UNL     1       3.878   2.977  19.891  0.00  0.00    +0.000 F 
ATOM     31  F   UNL     1       2.530   3.626  21.458  0.00  0.00    +0.000 F 
ATOM     32  F   UNL     1       1.805   3.435  19.417  0.00  0.00    +0.000 F 
ENDBRANCH  26  29
ENDBRANCH   7  23
TORSDOF 4
ENDMDL
