MODEL 1
REMARK VINA RESULT:      -7.2      0.000      0.000
REMARK  Name = 
REMARK  7 active torsions:
REMARK  status: ('A' for Active; 'I' for Inactive)
REMARK    1  A    between atoms: C_1  and  C_2
REMARK    2  A    between atoms: C_2  and  C_3
REMARK    3  A    between atoms: C_2  and  C_4
REMARK    4  A    between atoms: C_2  and  O_5
REMARK    5  A    between atoms: O_5  and  C_6
REMARK    6  A    between atoms: C_11  and  C_12
REMARK    7  A    between atoms: C_13  and  C_14
REMARK                            x       y       z     vdW  Elec       q    Type
REMARK                         _______ _______ _______ _____ _____    ______ ____
ROOT
ATOM      1  C   UNL     1       4.917   4.253  17.359  0.00  0.00    +0.000 C 
ATOM      2  O   UNL     1       4.115   4.290  16.430  0.00  0.00    +0.000 OA
ATOM      3  N   UNL     1       5.777   5.304  17.630  0.00  0.00    +0.000 N 
ATOM      4  C   UNL     1       5.890   6.283  16.557  0.00  0.00    +0.000 C 
ATOM      5  C   UNL     1       6.710   7.466  16.929  0.00  0.00    +0.000 C 
ATOM      6  C   UNL     1       7.527   7.487  17.986  0.00  0.00    +0.000 C 
ATOM      7  C   UNL     1       7.700   6.323  18.911  0.00  0.00    +0.000 C 
ATOM      8  C   UNL     1       6.905   5.081  18.530  0.00  0.00    +0.000 C 
ENDROOT
BRANCH   6   9
ATOM      9  C   UNL     1       8.348   8.730  18.291  0.00  0.00    +0.000 C 
ATOM     10  C   UNL     1       9.053   9.795  18.552  0.00  0.00    +0.000 C 
BRANCH  10  11
ATOM     11  C   UNL     1       9.924  10.898  18.803  0.00  0.00    +0.000 A 
ATOM     12  C   UNL     1      10.608  11.513  17.764  0.00  0.00    +0.000 A 
ATOM     13  C   UNL     1      11.511  12.525  18.079  0.00  0.00    +0.000 A 
ATOM     14  C   UNL     1      11.692  12.881  19.412  0.00  0.00    +0.000 A 
ATOM     15  C   UNL     1      10.955  12.214  20.377  0.00  0.00    +0.000 A 
ATOM     16  N   UNL     1      10.074  11.226  20.104  0.00  0.00    +0.000 NA
ENDBRANCH  10  11
ENDBRANCH   6   9
BRANCH   1  17
ATOM     17  O   UNL     1       5.085   3.176  18.184  0.00  0.00    +0.000 OA
BRANCH  17  19
ATOM     18  C   UNL     1       3.163   4.029  19.455  0.00  0.00    +0.000 C 
ATOM     19  C   UNL     1       4.012   2.806  19.081  0.00  0.00    +0.000 C 
ATOM     20  C   UNL     1       4.569   2.065  20.302  0.00  0.00    +0.000 C 
ATOM     21  C   UNL     1       3.102   1.835  18.303  0.00  0.00    +0.000 C 
ENDBRANCH  17  19
ENDBRANCH   1  17
TORSDOF 4
ENDMDL
MODEL 2
REMARK VINA RESULT:      -7.1      0.831      1.422
REMARK  Name = 
REMARK  7 active torsions:
REMARK  status: ('A' for Active; 'I' for Inactive)
REMARK    1  A    between atoms: C_1  and  C_2
REMARK    2  A    between atoms: C_2  and  C_3
REMARK    3  A    between atoms: C_2  and  C_4
REMARK    4  A    between atoms: C_2  and  O_5
REMARK    5  A    between atoms: O_5  and  C_6
REMARK    6  A    between atoms: C_11  and  C_12
REMARK    7  A    between atoms: C_13  and  C_14
REMARK                            x       y       z     vdW  Elec       q    Type
REMARK                         _______ _______ _______ _____ _____    ______ ____
ROOT
ATOM      1  C   UNL     1       4.817   4.190  17.498  0.00  0.00    +0.000 C 
ATOM      2  O   UNL     1       4.002   4.172  16.581  0.00  0.00    +0.000 OA
ATOM      3  N   UNL     1       5.677   5.257  17.695  0.00  0.00    +0.000 N 
ATOM      4  C   UNL     1       5.771   6.173  16.565  0.00  0.00    +0.000 C 
ATOM      5  C   UNL     1       6.593   7.378  16.857  0.00  0.00    +0.000 C 
ATOM      6  C   UNL     1       7.424   7.462  17.898  0.00  0.00    +0.000 C 
ATOM      7  C   UNL     1       7.615   6.353  18.887  0.00  0.00    +0.000 C 
ATOM      8  C   UNL     1       6.820   5.090  18.589  0.00  0.00    +0.000 C 
ENDROOT
BRANCH   6   9
ATOM      9  C   UNL     1       8.246   8.722  18.119  0.00  0.00    +0.000 C 
ATOM     10  C   UNL     1       8.949   9.803  18.309  0.00  0.00    +0.000 C 
BRANCH  10  11
ATOM     11  C   UNL     1       9.615  11.047  18.527  0.00  0.00    +0.000 A 
ATOM     12  C   UNL     1      10.563  11.179  19.532  0.00  0.00    +0.000 A 
ATOM     13  C   UNL     1      11.114  12.437  19.757  0.00  0.00    +0.000 A 
ATOM     14  C   UNL     1      10.698  13.509  18.973  0.00  0.00    +0.000 A 
ATOM     15  C   UNL     1       9.752  13.275  17.987  0.00  0.00    +0.000 A 
ATOM     16  N   UNL     1       9.197  12.067  17.747  0.00  0.00    +0.000 NA
ENDBRANCH  10  11
ENDBRANCH   6   9
BRANCH   1  17
ATOM     17  O   UNL     1       5.001   3.163  18.380  0.00  0.00    +0.000 OA
BRANCH  17  19
ATOM     18  C   UNL     1       2.989   1.760  18.523  0.00  0.00    +0.000 C 
ATOM     19  C   UNL     1       3.903   2.768  19.235  0.00  0.00    +0.000 C 
ATOM     20  C   UNL     1       3.151   4.003  19.744  0.00  0.00    +0.000 C 
ATOM     21  C   UNL     1       4.524   2.047  20.447  0.00  0.00    +0.000 C 
ENDBRANCH  17  19
ENDBRANCH   1  17
TORSDOF 4
ENDMDL
MODEL 3
REMARK VINA RESULT:      -7.0      0.846      1.239
REMARK  Name = 
REMARK  7 active torsions:
REMARK  status: ('A' for Active; 'I' for Inactive)
REMARK    1  A    between atoms: C_1  and  C_2
REMARK    2  A    between atoms: C_2  and  C_3
REMARK    3  A    between atoms: C_2  and  C_4
REMARK    4  A    between atoms: C_2  and  O_5
REMARK    5  A    between atoms: O_5  and  C_6
REMARK    6  A    between atoms: C_11  and  C_12
REMARK    7  A    between atoms: C_13  and  C_14
REMARK                            x       y       z     vdW  Elec       q    Type
REMARK                         _______ _______ _______ _____ _____    ______ ____
ROOT
ATOM      1  C   UNL     1       5.030   4.059  16.863  0.00  0.00    +0.000 C 
ATOM      2  O   UNL     1       4.612   3.971  15.712  0.00  0.00    +0.000 OA
ATOM      3  N   UNL     1       5.835   5.107  17.275  0.00  0.00    +0.000 N 
ATOM      4  C   UNL     1       6.409   5.891  16.188  0.00  0.00    +0.000 C 
ATOM      5  C   UNL     1       7.153   7.087  16.661  0.00  0.00    +0.000 C 
ATOM      6  C   UNL     1       7.546   7.253  17.926  0.00  0.00    +0.000 C 
ATOM      7  C   UNL     1       7.273   6.252  19.007  0.00  0.00    +0.000 C 
ATOM      8  C   UNL     1       6.550   4.995  18.543  0.00  0.00    +0.000 C 
ENDROOT
BRANCH   6   9
ATOM      9  C   UNL     1       8.321   8.498  18.329  0.00  0.00    +0.000 C 
ATOM     10  C   UNL     1       8.986   9.564  18.675  0.00  0.00    +0.000 C 
BRANCH  10  11
ATOM     11  C   UNL     1       9.765  10.665  19.142  0.00  0.00    +0.000 A 
ATOM     12  C   UNL     1       9.697  11.071  20.468  0.00  0.00    +0.000 A 
ATOM     13  C   UNL     1      10.410  12.205  20.846  0.00  0.00    +0.000 A 
ATOM     14  C   UNL     1      11.160  12.885  19.891  0.00  0.00    +0.000 A 
ATOM     15  C   UNL     1      11.172  12.395  18.594  0.00  0.00    +0.000 A 
ATOM     16  N   UNL     1      10.489  11.300  18.196  0.00  0.00    +0.000 NA
ENDBRANCH  10  11
ENDBRANCH   6   9
BRANCH   1  17
ATOM     17  O   UNL     1       4.797   3.128  17.835  0.00  0.00    +0.000 OA
BRANCH  17  19
ATOM     18  C   UNL     1       2.775   4.449  18.290  0.00  0.00    +0.000 C 
ATOM     19  C   UNL     1       3.515   3.121  18.507  0.00  0.00    +0.000 C 
ATOM     20  C   UNL     1       3.690   2.767  19.988  0.00  0.00    +0.000 C 
ATOM     21  C   UNL     1       2.674   2.014  17.843  0.00  0.00    +0.000 C 
ENDBRANCH  17  19
ENDBRANCH   1  17
TORSDOF 4
ENDMDL
MODEL 4
REMARK VINA RESULT:      -6.9      0.756      1.277
REMARK  Name = 
REMARK  7 active torsions:
REMARK  status: ('A' for Active; 'I' for Inactive)
REMARK    1  A    between atoms: C_1  and  C_2
REMARK    2  A    between atoms: C_2  and  C_3
REMARK    3  A    between atoms: C_2  and  C_4
REMARK    4  A    between atoms: C_2  and  O_5
REMARK    5  A    between atoms: O_5  and  C_6
REMARK    6  A    between atoms: C_11  and  C_12
REMARK    7  A    between atoms: C_13  and  C_14
REMARK                            x       y       z     vdW  Elec       q    Type
REMARK                         _______ _______ _______ _____ _____    ______ ____
ROOT
ATOM      1  C   UNL     1       4.863   4.059  16.886  0.00  0.00    +0.000 C 
ATOM      2  O   UNL     1       4.541   3.871  15.716  0.00  0.00    +0.000 OA
ATOM      3  N   UNL     1       5.687   5.106  17.263  0.00  0.00    +0.000 N 
ATOM      4  C   UNL     1       6.395   5.744  16.159  0.00  0.00    +0.000 C 
ATOM      5  C   UNL     1       7.162   6.947  16.575  0.00  0.00    +0.000 C 
ATOM      6  C   UNL     1       7.453   7.226  17.848  0.00  0.00    +0.000 C 
ATOM      7  C   UNL     1       7.033   6.358  18.994  0.00  0.00    +0.000 C 
ATOM      8  C   UNL     1       6.283   5.094  18.595  0.00  0.00    +0.000 C 
ENDROOT
BRANCH   6   9
ATOM      9  C   UNL     1       8.259   8.468  18.193  0.00  0.00    +0.000 C 
ATOM     10  C   UNL     1       8.951   9.532  18.489  0.00  0.00    +0.000 C 
BRANCH  10  11
ATOM     11  C   UNL     1       9.742  10.641  18.917  0.00  0.00    +0.000 A 
ATOM     12  C   UNL     1      10.474  11.386  18.002  0.00  0.00    +0.000 A 
ATOM     13  C   UNL     1      11.296  12.399  18.486  0.00  0.00    +0.000 A 
ATOM     14  C   UNL     1      11.354  12.629  19.857  0.00  0.00    +0.000 A 
ATOM     15  C   UNL     1      10.578  11.837  20.690  0.00  0.00    +0.000 A 
ATOM     16  N   UNL     1       9.772  10.845  20.251  0.00  0.00    +0.000 NA
ENDBRANCH  10  11
ENDBRANCH   6   9
BRANCH   1  17
ATOM     17  O   UNL     1       4.495   3.247  17.921  0.00  0.00    +0.000 OA
BRANCH  17  19
ATOM     18  C   UNL     1       2.290   2.162  17.964  0.00  0.00    +0.000 C 
ATOM     19  C   UNL     1       3.149   3.342  18.443  0.00  0.00    +0.000 C 
ATOM     20  C   UNL     1       2.538   4.706  18.100  0.00  0.00    +0.000 C 
ATOM     21  C   UNL     1       3.260   3.236  19.976  0.00  0.00    +0.000 C 
ENDBRANCH  17  19
ENDBRANCH   1  17
TORSDOF 4
ENDMDL
MODEL 5
REMARK VINA RESULT:      -6.9      4.527     10.060
REMARK  Name = 
REMARK  7 active torsions:
REMARK  status: ('A' for Active; 'I' for Inactive)
REMARK    1  A    between atoms: C_1  and  C_2
REMARK    2  A    between atoms: C_2  and  C_3
REMARK    3  A    between atoms: C_2  and  C_4
REMARK    4  A    between atoms: C_2  and  O_5
REMARK    5  A    between atoms: O_5  and  C_6
REMARK    6  A    between atoms: C_11  and  C_12
REMARK    7  A    between atoms: C_13  and  C_14
REMARK                            x       y       z     vdW  Elec       q    Type
REMARK                         _______ _______ _______ _____ _____    ______ ____
ROOT
ATOM      1  C   UNL     1      10.836  14.126  19.987  0.00  0.00    +0.000 C 
ATOM      2  O   UNL     1      10.742  14.488  21.156  0.00  0.00    +0.000 OA
ATOM      3  N   UNL     1      10.315  12.921  19.547  0.00  0.00    +0.000 N 
ATOM      4  C   UNL     1       9.958  11.993  20.613  0.00  0.00    +0.000 C 
ATOM      5  C   UNL     1       9.276  10.769  20.117  0.00  0.00    +0.000 C 
ATOM      6  C   UNL     1       9.285  10.393  18.836  0.00  0.00    +0.000 C 
ATOM      7  C   UNL     1       9.981  11.169  17.760  0.00  0.00    +0.000 C 
ATOM      8  C   UNL     1      10.726  12.405  18.245  0.00  0.00    +0.000 C 
ENDROOT
BRANCH   6   9
ATOM      9  C   UNL     1       8.580   9.116  18.409  0.00  0.00    +0.000 C 
ATOM     10  C   UNL     1       7.974   8.022  18.041  0.00  0.00    +0.000 C 
BRANCH  10  11
ATOM     11  C   UNL     1       7.243   6.892  17.566  0.00  0.00    +0.000 A 
ATOM     12  C   UNL     1       7.583   5.606  17.963  0.00  0.00    +0.000 A 
ATOM     13  C   UNL     1       6.893   4.538  17.398  0.00  0.00    +0.000 A 
ATOM     14  C   UNL     1       5.893   4.794  16.464  0.00  0.00    +0.000 A 
ATOM     15  C   UNL     1       5.620   6.114  16.140  0.00  0.00    +0.000 A 
ATOM     16  N   UNL     1       6.274   7.171  16.668  0.00  0.00    +0.000 NA
ENDBRANCH  10  11
ENDBRANCH   6   9
BRANCH   1  17
ATOM     17  O   UNL     1      11.495  14.828  19.018  0.00  0.00    +0.000 OA
BRANCH  17  19
ATOM     18  C   UNL     1      11.264  16.280  17.049  0.00  0.00    +0.000 C 
ATOM     19  C   UNL     1      10.913  16.059  18.527  0.00  0.00    +0.000 C 
ATOM     20  C   UNL     1      11.320  17.235  19.422  0.00  0.00    +0.000 C 
ATOM     21  C   UNL     1       9.384  15.891  18.617  0.00  0.00    +0.000 C 
ENDBRANCH  17  19
ENDBRANCH   1  17
TORSDOF 4
ENDMDL
MODEL 6
REMARK VINA RESULT:      -6.8      4.470      9.961
REMARK  Name = 
REMARK  7 active torsions:
REMARK  status: ('A' for Active; 'I' for Inactive)
REMARK    1  A    between atoms: C_1  and  C_2
REMARK    2  A    between atoms: C_2  and  C_3
REMARK    3  A    between atoms: C_2  and  C_4
REMARK    4  A    between atoms: C_2  and  O_5
REMARK    5  A    between atoms: O_5  and  C_6
REMARK    6  A    between atoms: C_11  and  C_12
REMARK    7  A    between atoms: C_13  and  C_14
REMARK                            x       y       z     vdW  Elec       q    Type
REMARK                         _______ _______ _______ _____ _____    ______ ____
ROOT
ATOM      1  C   UNL     1      10.497  14.002  20.266  0.00  0.00    +0.000 C 
ATOM      2  O   UNL     1      10.408  14.259  21.463  0.00  0.00    +0.000 OA
ATOM      3  N   UNL     1      10.032  12.812  19.733  0.00  0.00    +0.000 N 
ATOM      4  C   UNL     1       9.746  11.779  20.721  0.00  0.00    +0.000 C 
ATOM      5  C   UNL     1       9.120  10.566  20.133  0.00  0.00    +0.000 C 
ATOM      6  C   UNL     1       9.123  10.301  18.825  0.00  0.00    +0.000 C 
ATOM      7  C   UNL     1       9.756  11.201  17.808  0.00  0.00    +0.000 C 
ATOM      8  C   UNL     1      10.444  12.430  18.385  0.00  0.00    +0.000 C 
ENDROOT
BRANCH   6   9
ATOM      9  C   UNL     1       8.478   9.028  18.302  0.00  0.00    +0.000 C 
ATOM     10  C   UNL     1       7.923   7.936  17.854  0.00  0.00    +0.000 C 
BRANCH  10  11
ATOM     11  C   UNL     1       7.253   6.737  17.467  0.00  0.00    +0.000 A 
ATOM     12  C   UNL     1       6.529   5.998  18.393  0.00  0.00    +0.000 A 
ATOM     13  C   UNL     1       5.971   4.791  17.980  0.00  0.00    +0.000 A 
ATOM     14  C   UNL     1       6.155   4.373  16.666  0.00  0.00    +0.000 A 
ATOM     15  C   UNL     1       6.886   5.186  15.814  0.00  0.00    +0.000 A 
ATOM     16  N   UNL     1       7.442   6.360  16.185  0.00  0.00    +0.000 NA
ENDBRANCH  10  11
ENDBRANCH   6   9
BRANCH   1  17
ATOM     17  O   UNL     1      11.098  14.819  19.349  0.00  0.00    +0.000 OA
BRANCH  17  19
ATOM     18  C   UNL     1      11.087  17.272  19.483  0.00  0.00    +0.000 C 
ATOM     19  C   UNL     1      10.409  16.016  18.919  0.00  0.00    +0.000 C 
ATOM     20  C   UNL     1       8.919  15.929  19.270  0.00  0.00    +0.000 C 
ATOM     21  C   UNL     1      10.540  16.073  17.384  0.00  0.00    +0.000 C 
ENDBRANCH  17  19
ENDBRANCH   1  17
TORSDOF 4
ENDMDL
MODEL 7
REMARK VINA RESULT:      -6.8      4.303      9.971
REMARK  Name = 
REMARK  7 active torsions:
REMARK  status: ('A' for Active; 'I' for Inactive)
REMARK    1  A    between atoms: C_1  and  C_2
REMARK    2  A    between atoms: C_2  and  C_3
REMARK    3  A    between atoms: C_2  and  C_4
REMARK    4  A    between atoms: C_2  and  O_5
REMARK    5  A    between atoms: O_5  and  C_6
REMARK    6  A    between atoms: C_11  and  C_12
REMARK    7  A    between atoms: C_13  and  C_14
REMARK                            x       y       z     vdW  Elec       q    Type
REMARK                         _______ _______ _______ _____ _____    ______ ____
ROOT
ATOM      1  C   UNL     1      10.148  13.738  19.872  0.00  0.00    +0.000 C 
ATOM      2  O   UNL     1      10.890  13.729  20.849  0.00  0.00    +0.000 OA
ATOM      3  N   UNL     1       9.607  12.575  19.349  0.00  0.00    +0.000 N 
ATOM      4  C   UNL     1      10.239  11.350  19.823  0.00  0.00    +0.000 C 
ATOM      5  C   UNL     1       9.551  10.119  19.353  0.00  0.00    +0.000 C 
ATOM      6  C   UNL     1       8.671  10.110  18.349  0.00  0.00    +0.000 C 
ATOM      7  C   UNL     1       8.279  11.341  17.591  0.00  0.00    +0.000 C 
ATOM      8  C   UNL     1       9.001  12.611  18.021  0.00  0.00    +0.000 C 
ENDROOT
BRANCH   6   9
ATOM      9  C   UNL     1       8.023   8.805  17.913  0.00  0.00    +0.000 C 
ATOM     10  C   UNL     1       7.468   7.687  17.539  0.00  0.00    +0.000 C 
BRANCH  10  11
ATOM     11  C   UNL     1       6.928   6.468  17.029  0.00  0.00    +0.000 A 
ATOM     12  C   UNL     1       5.950   5.776  17.729  0.00  0.00    +0.000 A 
ATOM     13  C   UNL     1       5.525   4.549  17.228  0.00  0.00    +0.000 A 
ATOM     14  C   UNL     1       6.089   4.064  16.052  0.00  0.00    +0.000 A 
ATOM     15  C   UNL     1       7.054   4.834  15.420  0.00  0.00    +0.000 A 
ATOM     16  N   UNL     1       7.488   6.027  15.883  0.00  0.00    +0.000 NA
ENDBRANCH  10  11
ENDBRANCH   6   9
BRANCH   1  17
ATOM     17  O   UNL     1       9.816  14.863  19.172  0.00  0.00    +0.000 OA
BRANCH  17  19
ATOM     18  C   UNL     1      12.000  14.986  18.052  0.00  0.00    +0.000 C 
ATOM     19  C   UNL     1      10.869  15.759  18.745  0.00  0.00    +0.000 C 
ATOM     20  C   UNL     1      11.357  16.609  19.923  0.00  0.00    +0.000 C 
ATOM     21  C   UNL     1      10.248  16.702  17.695  0.00  0.00    +0.000 C 
ENDBRANCH  17  19
ENDBRANCH   1  17
TORSDOF 4
ENDMDL
MODEL 8
REMARK VINA RESULT:      -6.8      0.533      1.049
REMARK  Name = 
REMARK  7 active torsions:
REMARK  status: ('A' for Active; 'I' for Inactive)
REMARK    1  A    between atoms: C_1  and  C_2
REMARK    2  A    between atoms: C_2  and  C_3
REMARK    3  A    between atoms: C_2  and  C_4
REMARK    4  A    between atoms: C_2  and  O_5
REMARK    5  A    between atoms: O_5  and  C_6
REMARK    6  A    between atoms: C_11  and  C_12
REMARK    7  A    between atoms: C_13  and  C_14
REMARK                            x       y       z     vdW  Elec       q    Type
REMARK                         _______ _______ _______ _____ _____    ______ ____
ROOT
ATOM      1  C   UNL     1       4.439   4.282  17.597  0.00  0.00    +0.000 C 
ATOM      2  O   UNL     1       3.503   4.408  16.813  0.00  0.00    +0.000 OA
ATOM      3  N   UNL     1       5.376   5.283  17.790  0.00  0.00    +0.000 N 
ATOM      4  C   UNL     1       5.361   6.328  16.774  0.00  0.00    +0.000 C 
ATOM      5  C   UNL     1       6.280   7.455  17.082  0.00  0.00    +0.000 C 
ATOM      6  C   UNL     1       7.253   7.379  17.993  0.00  0.00    +0.000 C 
ATOM      7  C   UNL     1       7.519   6.149  18.806  0.00  0.00    +0.000 C 
ATOM      8  C   UNL     1       6.621   4.963  18.481  0.00  0.00    +0.000 C 
ENDROOT
BRANCH   6   9
ATOM      9  C   UNL     1       8.165   8.570  18.238  0.00  0.00    +0.000 C 
ATOM     10  C   UNL     1       8.947   9.592  18.449  0.00  0.00    +0.000 C 
BRANCH  10  11
ATOM     11  C   UNL     1       9.711  10.782  18.641  0.00  0.00    +0.000 A 
ATOM     12  C   UNL     1       9.775  11.753  17.651  0.00  0.00    +0.000 A 
ATOM     13  C   UNL     1      10.606  12.849  17.857  0.00  0.00    +0.000 A 
ATOM     14  C   UNL     1      11.337  12.934  19.039  0.00  0.00    +0.000 A 
ATOM     15  C   UNL     1      11.198  11.918  19.971  0.00  0.00    +0.000 A 
ATOM     16  N   UNL     1      10.402  10.840  19.799  0.00  0.00    +0.000 NA
ENDBRANCH  10  11
ENDBRANCH   6   9
BRANCH   1  17
ATOM     17  O   UNL     1       4.688   3.147  18.316  0.00  0.00    +0.000 OA
BRANCH  17  19
ATOM     18  C   UNL     1       2.700   1.839  18.929  0.00  0.00    +0.000 C 
ATOM     19  C   UNL     1       3.802   2.797  19.404  0.00  0.00    +0.000 C 
ATOM     20  C   UNL     1       3.250   4.063  20.070  0.00  0.00    +0.000 C 
ATOM     21  C   UNL     1       4.653   2.039  20.441  0.00  0.00    +0.000 C 
ENDBRANCH  17  19
ENDBRANCH   1  17
TORSDOF 4
ENDMDL
MODEL 9
REMARK VINA RESULT:      -6.7      4.590     10.180
REMARK  Name = 
REMARK  7 active torsions:
REMARK  status: ('A' for Active; 'I' for Inactive)
REMARK    1  A    between atoms: C_1  and  C_2
REMARK    2  A    between atoms: C_2  and  C_3
REMARK    3  A    between atoms: C_2  and  C_4
REMARK    4  A    between atoms: C_2  and  O_5
REMARK    5  A    between atoms: O_5  and  C_6
REMARK    6  A    between atoms: C_11  and  C_12
REMARK    7  A    between atoms: C_13  and  C_14
REMARK                            x       y       z     vdW  Elec       q    Type
REMARK                         _______ _______ _______ _____ _____    ______ ____
ROOT
ATOM      1  C   UNL     1       9.851  14.672  20.065  0.00  0.00    +0.000 C 
ATOM      2  O   UNL     1      10.280  14.861  21.199  0.00  0.00    +0.000 OA
ATOM      3  N   UNL     1       9.524  13.409  19.602  0.00  0.00    +0.000 N 
ATOM      4  C   UNL     1      10.034  12.316  20.422  0.00  0.00    +0.000 C 
ATOM      5  C   UNL     1       9.553  10.981  19.979  0.00  0.00    +0.000 C 
ATOM      6  C   UNL     1       9.000  10.761  18.784  0.00  0.00    +0.000 C 
ATOM      7  C   UNL     1       8.801  11.838  17.762  0.00  0.00    +0.000 C 
ATOM      8  C   UNL     1       9.325  13.208  18.170  0.00  0.00    +0.000 C 
ENDROOT
BRANCH   6   9
ATOM      9  C   UNL     1       8.549   9.362  18.397  0.00  0.00    +0.000 C 
ATOM     10  C   UNL     1       8.162   8.162  18.064  0.00  0.00    +0.000 C 
BRANCH  10  11
ATOM     11  C   UNL     1       7.625   6.881  17.734  0.00  0.00    +0.000 A 
ATOM     12  C   UNL     1       7.398   5.930  18.719  0.00  0.00    +0.000 A 
ATOM     13  C   UNL     1       6.958   4.669  18.328  0.00  0.00    +0.000 A 
ATOM     14  C   UNL     1       6.762   4.409  16.975  0.00  0.00    +0.000 A 
ATOM     15  C   UNL     1       7.007   5.428  16.067  0.00  0.00    +0.000 A 
ATOM     16  N   UNL     1       7.437   6.660  16.416  0.00  0.00    +0.000 NA
ENDBRANCH  10  11
ENDBRANCH   6   9
BRANCH   1  17
ATOM     17  O   UNL     1       9.696  15.658  19.131  0.00  0.00    +0.000 OA
BRANCH  17  19
ATOM     18  C   UNL     1      10.697  16.794  17.195  0.00  0.00    +0.000 C 
ATOM     19  C   UNL     1      10.866  16.368  18.661  0.00  0.00    +0.000 C 
ATOM     20  C   UNL     1      12.129  15.533  18.901  0.00  0.00    +0.000 C 
ATOM     21  C   UNL     1      10.971  17.654  19.504  0.00  0.00    +0.000 C 
ENDBRANCH  17  19
ENDBRANCH   1  17
TORSDOF 4
ENDMDL
