MODEL 1
REMARK VINA RESULT:      -7.3      0.000      0.000
REMARK  Name = 
REMARK  12 active torsions:
REMARK  status: ('A' for Active; 'I' for Inactive)
REMARK    1  A    between atoms: C_1  and  C_2
REMARK    2  A    between atoms: C_2  and  C_3
REMARK    3  A    between atoms: C_2  and  C_4
REMARK    4  A    between atoms: C_2  and  C_5
REMARK    5  A    between atoms: C_7  and  C_8
REMARK    6  A    between atoms: N_10  and  C_11
REMARK    7  A    between atoms: C_15  and  O_16
REMARK    8  A    between atoms: O_16  and  C_17
REMARK    9  A    between atoms: C_17  and  C_18
REMARK   10  A    between atoms: C_18  and  C_19
REMARK   11  A    between atoms: C_19  and  C_20
REMARK   12  A    between atoms: C_20  and  O_21
REMARK                            x       y       z     vdW  Elec       q    Type
REMARK                         _______ _______ _______ _____ _____    ______ ____
ROOT
ATOM      1  C   UNL     1       5.425   4.420  17.844  0.00  0.00    +0.000 C 
ATOM      2  C   UNL     1       5.791   4.247  16.392  0.00  0.00    +0.000 C 
ATOM      3  C   UNL     1       6.668   5.024  15.747  0.00  0.00    +0.000 C 
ATOM      4  O   UNL     1       7.419   6.005  16.356  0.00  0.00    +0.000 OA
ATOM      5  C   UNL     1       7.528   5.864  17.774  0.00  0.00    +0.000 C 
ATOM      6  C   UNL     1       6.149   5.667  18.403  0.00  0.00    +0.000 C 
ENDROOT
BRANCH   1   8
ATOM      7  C   UNL     1       3.498   4.084  19.546  0.00  0.00    +0.000 C 
ATOM      8  C   UNL     1       3.865   4.461  18.089  0.00  0.00    +0.000 C 
ATOM      9  C   UNL     1       3.116   3.483  17.158  0.00  0.00    +0.000 C 
ATOM     10  C   UNL     1       3.324   5.889  17.854  0.00  0.00    +0.000 C 
ENDBRANCH   1   8
BRANCH   3  11
ATOM     11  C   UNL     1       6.825   4.831  14.258  0.00  0.00    +0.000 C 
ATOM     12  O   UNL     1       7.656   5.455  13.610  0.00  0.00    +0.000 OA
ATOM     13  N   UNL     1       5.965   3.908  13.724  0.00  0.00    +0.000 N 
ATOM     14  H   UNL     1       5.297   3.454  14.337  0.00  0.00    +0.000 HD
BRANCH  13  15
ATOM     15  C   UNL     1       5.990   3.592  12.326  0.00  0.00    +0.000 C 
ATOM     16  C   UNL     1       5.798   2.176  11.863  0.00  0.00    +0.000 C 
ATOM     17  C   UNL     1       4.744   3.208  11.583  0.00  0.00    +0.000 C 
ENDBRANCH  13  15
ENDBRANCH   3  11
BRANCH   5  18
ATOM     18  O   UNL     1       8.071   7.065  18.335  0.00  0.00    +0.000 OA
BRANCH  18  19
ATOM     19  C   UNL     1       7.516   8.271  17.813  0.00  0.00    +0.000 C 
BRANCH  19  20
ATOM     20  C   UNL     1       8.498   9.445  17.750  0.00  0.00    +0.000 C 
BRANCH  20  21
ATOM     21  C   UNL     1       9.004   9.807  19.149  0.00  0.00    +0.000 C 
BRANCH  21  22
ATOM     22  C   UNL     1       9.526  11.232  19.257  0.00  0.00    +0.000 C 
BRANCH  22  23
ATOM     23  O   UNL     1      10.308  11.574  18.124  0.00  0.00    +0.000 OA
ATOM     24  H   UNL     1       9.925  11.114  17.357  0.00  0.00    +0.000 HD
ENDBRANCH  22  23
ENDBRANCH  21  22
ENDBRANCH  20  21
ENDBRANCH  19  20
ENDBRANCH  18  19
ENDBRANCH   5  18
TORSDOF 9
ENDMDL
MODEL 2
REMARK VINA RESULT:      -6.8      3.376      5.959
REMARK  Name = 
REMARK  12 active torsions:
REMARK  status: ('A' for Active; 'I' for Inactive)
REMARK    1  A    between atoms: C_1  and  C_2
REMARK    2  A    between atoms: C_2  and  C_3
REMARK    3  A    between atoms: C_2  and  C_4
REMARK    4  A    between atoms: C_2  and  C_5
REMARK    5  A    between atoms: C_7  and  C_8
REMARK    6  A    between atoms: N_10  and  C_11
REMARK    7  A    between atoms: C_15  and  O_16
REMARK    8  A    between atoms: O_16  and  C_17
REMARK    9  A    between atoms: C_17  and  C_18
REMARK   10  A    between atoms: C_18  and  C_19
REMARK   11  A    between atoms: C_19  and  C_20
REMARK   12  A    between atoms: C_20  and  O_21
REMARK                            x       y       z     vdW  Elec       q    Type
REMARK                         _______ _______ _______ _____ _____    ______ ____
ROOT
ATOM      1  C   UNL     1       3.180   4.635  17.721  0.00  0.00    +0.000 C 
ATOM      2  C   UNL     1       2.468   5.905  18.113  0.00  0.00    +0.000 C 
ATOM      3  C   UNL     1       3.029   7.118  18.067  0.00  0.00    +0.000 C 
ATOM      4  O   UNL     1       4.285   7.365  17.558  0.00  0.00    +0.000 OA
ATOM      5  C   UNL     1       4.781   6.338  16.698  0.00  0.00    +0.000 C 
ATOM      6  C   UNL     1       4.646   4.968  17.361  0.00  0.00    +0.000 C 
ENDROOT
BRANCH   1   8
ATOM      7  C   UNL     1       2.394   2.220  18.247  0.00  0.00    +0.000 C 
ATOM      8  C   UNL     1       3.063   3.498  18.812  0.00  0.00    +0.000 C 
ATOM      9  C   UNL     1       2.227   3.957  20.026  0.00  0.00    +0.000 C 
ATOM     10  C   UNL     1       4.468   3.080  19.302  0.00  0.00    +0.000 C 
ENDBRANCH   1   8
BRANCH   3  11
ATOM     11  C   UNL     1       2.249   8.281  18.630  0.00  0.00    +0.000 C 
ATOM     12  O   UNL     1       2.115   9.329  18.011  0.00  0.00    +0.000 OA
ATOM     13  N   UNL     1       1.720   8.046  19.872  0.00  0.00    +0.000 N 
ATOM     14  H   UNL     1       1.900   7.152  20.316  0.00  0.00    +0.000 HD
BRANCH  13  15
ATOM     15  C   UNL     1       0.937   9.040  20.545  0.00  0.00    +0.000 C 
ATOM     16  C   UNL     1      -0.103   8.636  21.550  0.00  0.00    +0.000 C 
ATOM     17  C   UNL     1       1.139   9.349  22.000  0.00  0.00    +0.000 C 
ENDBRANCH  13  15
ENDBRANCH   3  11
BRANCH   5  18
ATOM     18  O   UNL     1       6.179   6.546  16.458  0.00  0.00    +0.000 OA
BRANCH  18  19
ATOM     19  C   UNL     1       7.040   6.029  17.471  0.00  0.00    +0.000 C 
BRANCH  19  20
ATOM     20  C   UNL     1       7.893   7.087  18.177  0.00  0.00    +0.000 C 
BRANCH  20  21
ATOM     21  C   UNL     1       7.763   8.446  17.480  0.00  0.00    +0.000 C 
BRANCH  21  22
ATOM     22  C   UNL     1       8.463   9.577  18.218  0.00  0.00    +0.000 C 
BRANCH  22  23
ATOM     23  O   UNL     1       9.092   9.101  19.398  0.00  0.00    +0.000 OA
ATOM     24  H   UNL     1       8.400   8.994  20.073  0.00  0.00    +0.000 HD
ENDBRANCH  22  23
ENDBRANCH  21  22
ENDBRANCH  20  21
ENDBRANCH  19  20
ENDBRANCH  18  19
ENDBRANCH   5  18
TORSDOF 9
ENDMDL
MODEL 3
REMARK VINA RESULT:      -6.8      3.842      6.356
REMARK  Name = 
REMARK  12 active torsions:
REMARK  status: ('A' for Active; 'I' for Inactive)
REMARK    1  A    between atoms: C_1  and  C_2
REMARK    2  A    between atoms: C_2  and  C_3
REMARK    3  A    between atoms: C_2  and  C_4
REMARK    4  A    between atoms: C_2  and  C_5
REMARK    5  A    between atoms: C_7  and  C_8
REMARK    6  A    between atoms: N_10  and  C_11
REMARK    7  A    between atoms: C_15  and  O_16
REMARK    8  A    between atoms: O_16  and  C_17
REMARK    9  A    between atoms: C_17  and  C_18
REMARK   10  A    between atoms: C_18  and  C_19
REMARK   11  A    between atoms: C_19  and  C_20
REMARK   12  A    between atoms: C_20  and  O_21
REMARK                            x       y       z     vdW  Elec       q    Type
REMARK                         _______ _______ _______ _____ _____    ______ ____
ROOT
ATOM      1  C   UNL     1       2.355   4.391  18.040  0.00  0.00    +0.000 C 
ATOM      2  C   UNL     1       1.906   5.824  18.172  0.00  0.00    +0.000 C 
ATOM      3  C   UNL     1       2.711   6.877  17.992  0.00  0.00    +0.000 C 
ATOM      4  O   UNL     1       4.016   6.782  17.562  0.00  0.00    +0.000 OA
ATOM      5  C   UNL     1       4.331   5.550  16.913  0.00  0.00    +0.000 C 
ATOM      6  C   UNL     1       3.876   4.362  17.761  0.00  0.00    +0.000 C 
ENDROOT
BRANCH   1   8
ATOM      7  C   UNL     1       0.978   2.358  18.869  0.00  0.00    +0.000 C 
ATOM      8  C   UNL     1       1.945   3.497  19.275  0.00  0.00    +0.000 C 
ATOM      9  C   UNL     1       1.244   4.327  20.372  0.00  0.00    +0.000 C 
ATOM     10  C   UNL     1       3.194   2.818  19.882  0.00  0.00    +0.000 C 
ENDBRANCH   1   8
BRANCH   3  11
ATOM     11  C   UNL     1       2.163   8.249  18.304  0.00  0.00    +0.000 C 
ATOM     12  O   UNL     1       2.189   9.157  17.482  0.00  0.00    +0.000 OA
ATOM     13  N   UNL     1       1.647   8.367  19.568  0.00  0.00    +0.000 N 
ATOM     14  H   UNL     1       1.688   7.564  20.186  0.00  0.00    +0.000 HD
BRANCH  13  15
ATOM     15  C   UNL     1       1.072   9.599  20.023  0.00  0.00    +0.000 C 
ATOM     16  C   UNL     1      -0.305   9.619  20.621  0.00  0.00    +0.000 C 
ATOM     17  C   UNL     1       0.893   9.892  21.483  0.00  0.00    +0.000 C 
ENDBRANCH  13  15
ENDBRANCH   3  11
BRANCH   5  18
ATOM     18  O   UNL     1       5.752   5.434  16.765  0.00  0.00    +0.000 OA
BRANCH  18  19
ATOM     19  C   UNL     1       6.441   6.677  16.649  0.00  0.00    +0.000 C 
BRANCH  19  20
ATOM     20  C   UNL     1       7.502   6.916  17.728  0.00  0.00    +0.000 C 
BRANCH  20  21
ATOM     21  C   UNL     1       7.851   5.609  18.447  0.00  0.00    +0.000 C 
BRANCH  21  22
ATOM     22  C   UNL     1       7.264   5.509  19.847  0.00  0.00    +0.000 C 
BRANCH  22  23
ATOM     23  O   UNL     1       8.285   5.323  20.814  0.00  0.00    +0.000 OA
ATOM     24  H   UNL     1       8.590   4.403  20.742  0.00  0.00    +0.000 HD
ENDBRANCH  22  23
ENDBRANCH  21  22
ENDBRANCH  20  21
ENDBRANCH  19  20
ENDBRANCH  18  19
ENDBRANCH   5  18
TORSDOF 9
ENDMDL
MODEL 4
REMARK VINA RESULT:      -6.7      4.288      7.927
REMARK  Name = 
REMARK  12 active torsions:
REMARK  status: ('A' for Active; 'I' for Inactive)
REMARK    1  A    between atoms: C_1  and  C_2
REMARK    2  A    between atoms: C_2  and  C_3
REMARK    3  A    between atoms: C_2  and  C_4
REMARK    4  A    between atoms: C_2  and  C_5
REMARK    5  A    between atoms: C_7  and  C_8
REMARK    6  A    between atoms: N_10  and  C_11
REMARK    7  A    between atoms: C_15  and  O_16
REMARK    8  A    between atoms: O_16  and  C_17
REMARK    9  A    between atoms: C_17  and  C_18
REMARK   10  A    between atoms: C_18  and  C_19
REMARK   11  A    between atoms: C_19  and  C_20
REMARK   12  A    between atoms: C_20  and  O_21
REMARK                            x       y       z     vdW  Elec       q    Type
REMARK                         _______ _______ _______ _____ _____    ______ ____
ROOT
ATOM      1  C   UNL     1       4.894   5.457  17.844  0.00  0.00    +0.000 C 
ATOM      2  C   UNL     1       4.143   6.732  18.132  0.00  0.00    +0.000 C 
ATOM      3  C   UNL     1       2.812   6.841  18.081  0.00  0.00    +0.000 C 
ATOM      4  O   UNL     1       1.962   5.779  17.862  0.00  0.00    +0.000 OA
ATOM      5  C   UNL     1       2.544   4.500  18.119  0.00  0.00    +0.000 C 
ATOM      6  C   UNL     1       3.889   4.367  17.404  0.00  0.00    +0.000 C 
ENDROOT
BRANCH   1   8
ATOM      7  C   UNL     1       5.553   5.744  15.353  0.00  0.00    +0.000 C 
ATOM      8  C   UNL     1       6.072   5.652  16.809  0.00  0.00    +0.000 C 
ATOM      9  C   UNL     1       7.079   4.483  16.865  0.00  0.00    +0.000 C 
ATOM     10  C   UNL     1       6.821   6.973  17.094  0.00  0.00    +0.000 C 
ENDBRANCH   1   8
BRANCH   3  11
ATOM     11  C   UNL     1       2.206   8.213  18.246  0.00  0.00    +0.000 C 
ATOM     12  O   UNL     1       2.232   9.043  17.346  0.00  0.00    +0.000 OA
ATOM     13  N   UNL     1       1.637   8.426  19.475  0.00  0.00    +0.000 N 
ATOM     14  H   UNL     1       1.681   7.685  20.165  0.00  0.00    +0.000 HD
BRANCH  13  15
ATOM     15  C   UNL     1       1.003   9.672  19.793  0.00  0.00    +0.000 C 
ATOM     16  C   UNL     1      -0.338   9.691  20.468  0.00  0.00    +0.000 C 
ATOM     17  C   UNL     1       0.883  10.154  21.209  0.00  0.00    +0.000 C 
ENDBRANCH  13  15
ENDBRANCH   3  11
BRANCH   5  18
ATOM     18  O   UNL     1       1.694   3.472  17.596  0.00  0.00    +0.000 OA
BRANCH  18  19
ATOM     19  C   UNL     1       1.015   2.700  18.585  0.00  0.00    +0.000 C 
BRANCH  19  20
ATOM     20  C   UNL     1       0.794   3.429  19.915  0.00  0.00    +0.000 C 
BRANCH  20  21
ATOM     21  C   UNL     1       1.337   2.603  21.085  0.00  0.00    +0.000 C 
BRANCH  21  22
ATOM     22  C   UNL     1       2.735   3.011  21.522  0.00  0.00    +0.000 C 
BRANCH  22  23
ATOM     23  O   UNL     1       3.722   2.354  20.742  0.00  0.00    +0.000 OA
ATOM     24  H   UNL     1       4.241   1.793  21.343  0.00  0.00    +0.000 HD
ENDBRANCH  22  23
ENDBRANCH  21  22
ENDBRANCH  20  21
ENDBRANCH  19  20
ENDBRANCH  18  19
ENDBRANCH   5  18
TORSDOF 9
ENDMDL
MODEL 5
REMARK VINA RESULT:      -6.7      4.251      7.627
REMARK  Name = 
REMARK  12 active torsions:
REMARK  status: ('A' for Active; 'I' for Inactive)
REMARK    1  A    between atoms: C_1  and  C_2
REMARK    2  A    between atoms: C_2  and  C_3
REMARK    3  A    between atoms: C_2  and  C_4
REMARK    4  A    between atoms: C_2  and  C_5
REMARK    5  A    between atoms: C_7  and  C_8
REMARK    6  A    between atoms: N_10  and  C_11
REMARK    7  A    between atoms: C_15  and  O_16
REMARK    8  A    between atoms: O_16  and  C_17
REMARK    9  A    between atoms: C_17  and  C_18
REMARK   10  A    between atoms: C_18  and  C_19
REMARK   11  A    between atoms: C_19  and  C_20
REMARK   12  A    between atoms: C_20  and  O_21
REMARK                            x       y       z     vdW  Elec       q    Type
REMARK                         _______ _______ _______ _____ _____    ______ ____
ROOT
ATOM      1  C   UNL     1       4.929   5.000  17.490  0.00  0.00    +0.000 C 
ATOM      2  C   UNL     1       4.243   6.171  18.146  0.00  0.00    +0.000 C 
ATOM      3  C   UNL     1       2.926   6.233  18.370  0.00  0.00    +0.000 C 
ATOM      4  O   UNL     1       2.055   5.196  18.124  0.00  0.00    +0.000 OA
ATOM      5  C   UNL     1       2.682   3.916  18.025  0.00  0.00    +0.000 C 
ATOM      6  C   UNL     1       3.863   3.968  17.056  0.00  0.00    +0.000 C 
ENDROOT
BRANCH   1   8
ATOM      7  C   UNL     1       5.189   6.406  15.328  0.00  0.00    +0.000 C 
ATOM      8  C   UNL     1       5.883   5.426  16.305  0.00  0.00    +0.000 C 
ATOM      9  C   UNL     1       6.348   4.205  15.481  0.00  0.00    +0.000 C 
ATOM     10  C   UNL     1       7.126   6.160  16.857  0.00  0.00    +0.000 C 
ENDBRANCH   1   8
BRANCH   3  11
ATOM     11  C   UNL     1       2.358   7.528  18.898  0.00  0.00    +0.000 C 
ATOM     12  O   UNL     1       2.281   7.758  20.099  0.00  0.00    +0.000 OA
ATOM     13  N   UNL     1       1.951   8.396  17.919  0.00  0.00    +0.000 N 
ATOM     14  H   UNL     1       2.036   8.111  16.951  0.00  0.00    +0.000 HD
BRANCH  13  15
ATOM     15  C   UNL     1       1.401   9.679  18.247  0.00  0.00    +0.000 C 
ATOM     16  C   UNL     1      -0.030   9.999  17.919  0.00  0.00    +0.000 C 
ATOM     17  C   UNL     1       0.397   9.847  19.350  0.00  0.00    +0.000 C 
ENDBRANCH  13  15
ENDBRANCH   3  11
BRANCH   5  18
ATOM     18  O   UNL     1       1.751   2.965  17.492  0.00  0.00    +0.000 OA
BRANCH  18  19
ATOM     19  C   UNL     1       1.045   2.208  18.473  0.00  0.00    +0.000 C 
BRANCH  19  20
ATOM     20  C   UNL     1       1.789   2.046  19.802  0.00  0.00    +0.000 C 
BRANCH  20  21
ATOM     21  C   UNL     1       1.161   2.926  20.888  0.00  0.00    +0.000 C 
BRANCH  21  22
ATOM     22  C   UNL     1       2.183   3.640  21.759  0.00  0.00    +0.000 C 
BRANCH  22  23
ATOM     23  O   UNL     1       2.368   4.980  21.330  0.00  0.00    +0.000 OA
ATOM     24  H   UNL     1       2.364   4.977  20.357  0.00  0.00    +0.000 HD
ENDBRANCH  22  23
ENDBRANCH  21  22
ENDBRANCH  20  21
ENDBRANCH  19  20
ENDBRANCH  18  19
ENDBRANCH   5  18
TORSDOF 9
ENDMDL
MODEL 6
REMARK VINA RESULT:      -6.7      3.915      7.344
REMARK  Name = 
REMARK  12 active torsions:
REMARK  status: ('A' for Active; 'I' for Inactive)
REMARK    1  A    between atoms: C_1  and  C_2
REMARK    2  A    between atoms: C_2  and  C_3
REMARK    3  A    between atoms: C_2  and  C_4
REMARK    4  A    between atoms: C_2  and  C_5
REMARK    5  A    between atoms: C_7  and  C_8
REMARK    6  A    between atoms: N_10  and  C_11
REMARK    7  A    between atoms: C_15  and  O_16
REMARK    8  A    between atoms: O_16  and  C_17
REMARK    9  A    between atoms: C_17  and  C_18
REMARK   10  A    between atoms: C_18  and  C_19
REMARK   11  A    between atoms: C_19  and  C_20
REMARK   12  A    between atoms: C_20  and  O_21
REMARK                            x       y       z     vdW  Elec       q    Type
REMARK                         _______ _______ _______ _____ _____    ______ ____
ROOT
ATOM      1  C   UNL     1       2.643   4.096  17.975  0.00  0.00    +0.000 C 
ATOM      2  C   UNL     1       2.142   5.474  18.326  0.00  0.00    +0.000 C 
ATOM      3  C   UNL     1       2.888   6.581  18.246  0.00  0.00    +0.000 C 
ATOM      4  O   UNL     1       4.167   6.610  17.736  0.00  0.00    +0.000 OA
ATOM      5  C   UNL     1       4.494   5.493  16.908  0.00  0.00    +0.000 C 
ATOM      6  C   UNL     1       4.144   4.182  17.612  0.00  0.00    +0.000 C 
ENDROOT
BRANCH   1   8
ATOM      7  C   UNL     1       0.925   3.182  19.688  0.00  0.00    +0.000 C 
ATOM      8  C   UNL     1       2.348   3.025  19.098  0.00  0.00    +0.000 C 
ATOM      9  C   UNL     1       3.347   3.140  20.271  0.00  0.00    +0.000 C 
ATOM     10  C   UNL     1       2.427   1.598  18.511  0.00  0.00    +0.000 C 
ENDBRANCH   1   8
BRANCH   3  11
ATOM     11  C   UNL     1       2.303   7.869  18.771  0.00  0.00    +0.000 C 
ATOM     12  O   UNL     1       2.322   8.902  18.113  0.00  0.00    +0.000 OA
ATOM     13  N   UNL     1       1.762   7.763  20.025  0.00  0.00    +0.000 N 
ATOM     14  H   UNL     1       1.810   6.870  20.501  0.00  0.00    +0.000 HD
BRANCH  13  15
ATOM     15  C   UNL     1       1.150   8.890  20.667  0.00  0.00    +0.000 C 
ATOM     16  C   UNL     1      -0.100   8.714  21.481  0.00  0.00    +0.000 C 
ATOM     17  C   UNL     1       1.193   9.067  22.156  0.00  0.00    +0.000 C 
ENDBRANCH  13  15
ENDBRANCH   3  11
BRANCH   5  18
ATOM     18  O   UNL     1       5.907   5.470  16.668  0.00  0.00    +0.000 OA
BRANCH  18  19
ATOM     19  C   UNL     1       6.332   4.503  15.710  0.00  0.00    +0.000 C 
BRANCH  19  20
ATOM     20  C   UNL     1       5.691   4.659  14.327  0.00  0.00    +0.000 C 
BRANCH  20  21
ATOM     21  C   UNL     1       6.390   3.763  13.299  0.00  0.00    +0.000 C 
BRANCH  21  22
ATOM     22  C   UNL     1       5.454   3.217  12.232  0.00  0.00    +0.000 C 
BRANCH  22  23
ATOM     23  O   UNL     1       5.939   1.989  11.711  0.00  0.00    +0.000 OA
ATOM     24  H   UNL     1       5.196   1.550  11.262  0.00  0.00    +0.000 HD
ENDBRANCH  22  23
ENDBRANCH  21  22
ENDBRANCH  20  21
ENDBRANCH  19  20
ENDBRANCH  18  19
ENDBRANCH   5  18
TORSDOF 9
ENDMDL
MODEL 7
REMARK VINA RESULT:      -6.6      3.704      6.919
REMARK  Name = 
REMARK  12 active torsions:
REMARK  status: ('A' for Active; 'I' for Inactive)
REMARK    1  A    between atoms: C_1  and  C_2
REMARK    2  A    between atoms: C_2  and  C_3
REMARK    3  A    between atoms: C_2  and  C_4
REMARK    4  A    between atoms: C_2  and  C_5
REMARK    5  A    between atoms: C_7  and  C_8
REMARK    6  A    between atoms: N_10  and  C_11
REMARK    7  A    between atoms: C_15  and  O_16
REMARK    8  A    between atoms: O_16  and  C_17
REMARK    9  A    between atoms: C_17  and  C_18
REMARK   10  A    between atoms: C_18  and  C_19
REMARK   11  A    between atoms: C_19  and  C_20
REMARK   12  A    between atoms: C_20  and  O_21
REMARK                            x       y       z     vdW  Elec       q    Type
REMARK                         _______ _______ _______ _____ _____    ______ ____
ROOT
ATOM      1  C   UNL     1       2.506   4.214  18.327  0.00  0.00    +0.000 C 
ATOM      2  C   UNL     1       2.050   5.648  18.239  0.00  0.00    +0.000 C 
ATOM      3  C   UNL     1       2.883   6.693  18.187  0.00  0.00    +0.000 C 
ATOM      4  O   UNL     1       4.253   6.580  18.102  0.00  0.00    +0.000 OA
ATOM      5  C   UNL     1       4.709   5.306  17.642  0.00  0.00    +0.000 C 
ATOM      6  C   UNL     1       4.048   4.180  18.437  0.00  0.00    +0.000 C 
ENDROOT
BRANCH   1   8
ATOM      7  C   UNL     1       2.811   2.619  20.348  0.00  0.00    +0.000 C 
ATOM      8  C   UNL     1       1.796   3.408  19.485  0.00  0.00    +0.000 C 
ATOM      9  C   UNL     1       0.776   2.391  18.929  0.00  0.00    +0.000 C 
ATOM     10  C   UNL     1       1.065   4.377  20.441  0.00  0.00    +0.000 C 
ENDBRANCH   1   8
BRANCH   3  11
ATOM     11  C   UNL     1       2.287   8.078  18.252  0.00  0.00    +0.000 C 
ATOM     12  O   UNL     1       2.386   8.868  17.321  0.00  0.00    +0.000 OA
ATOM     13  N   UNL     1       1.640   8.350  19.429  0.00  0.00    +0.000 N 
ATOM     14  H   UNL     1       1.626   7.639  20.151  0.00  0.00    +0.000 HD
BRANCH  13  15
ATOM     15  C   UNL     1       1.003   9.615  19.651  0.00  0.00    +0.000 C 
ATOM     16  C   UNL     1      -0.299   9.690  20.395  0.00  0.00    +0.000 C 
ATOM     17  C   UNL     1       0.953  10.243  21.012  0.00  0.00    +0.000 C 
ENDBRANCH  13  15
ENDBRANCH   3  11
BRANCH   5  18
ATOM     18  O   UNL     1       6.121   5.194  17.860  0.00  0.00    +0.000 OA
BRANCH  18  19
ATOM     19  C   UNL     1       6.864   4.741  16.730  0.00  0.00    +0.000 C 
BRANCH  19  20
ATOM     20  C   UNL     1       6.002   4.272  15.554  0.00  0.00    +0.000 C 
BRANCH  20  21
ATOM     21  C   UNL     1       6.733   4.484  14.224  0.00  0.00    +0.000 C 
BRANCH  21  22
ATOM     22  C   UNL     1       6.162   3.664  13.078  0.00  0.00    +0.000 C 
BRANCH  22  23
ATOM     23  O   UNL     1       6.921   3.848  11.893  0.00  0.00    +0.000 OA
ATOM     24  H   UNL     1       7.860   3.776  12.136  0.00  0.00    +0.000 HD
ENDBRANCH  22  23
ENDBRANCH  21  22
ENDBRANCH  20  21
ENDBRANCH  19  20
ENDBRANCH  18  19
ENDBRANCH   5  18
TORSDOF 9
ENDMDL
MODEL 8
REMARK VINA RESULT:      -6.6      0.821      1.127
REMARK  Name = 
REMARK  12 active torsions:
REMARK  status: ('A' for Active; 'I' for Inactive)
REMARK    1  A    between atoms: C_1  and  C_2
REMARK    2  A    between atoms: C_2  and  C_3
REMARK    3  A    between atoms: C_2  and  C_4
REMARK    4  A    between atoms: C_2  and  C_5
REMARK    5  A    between atoms: C_7  and  C_8
REMARK    6  A    between atoms: N_10  and  C_11
REMARK    7  A    between atoms: C_15  and  O_16
REMARK    8  A    between atoms: O_16  and  C_17
REMARK    9  A    between atoms: C_17  and  C_18
REMARK   10  A    between atoms: C_18  and  C_19
REMARK   11  A    between atoms: C_19  and  C_20
REMARK   12  A    between atoms: C_20  and  O_21
REMARK                            x       y       z     vdW  Elec       q    Type
REMARK                         _______ _______ _______ _____ _____    ______ ____
ROOT
ATOM      1  C   UNL     1       5.809   4.481  17.767  0.00  0.00    +0.000 C 
ATOM      2  C   UNL     1       6.159   4.247  16.320  0.00  0.00    +0.000 C 
ATOM      3  C   UNL     1       6.638   5.194  15.506  0.00  0.00    +0.000 C 
ATOM      4  O   UNL     1       6.965   6.467  15.917  0.00  0.00    +0.000 OA
ATOM      5  C   UNL     1       7.173   6.592  17.325  0.00  0.00    +0.000 C 
ATOM      6  C   UNL     1       6.006   5.979  18.099  0.00  0.00    +0.000 C 
ENDROOT
BRANCH   1   8
ATOM      7  C   UNL     1       3.419   5.115  18.547  0.00  0.00    +0.000 C 
ATOM      8  C   UNL     1       4.368   3.958  18.148  0.00  0.00    +0.000 C 
ATOM      9  C   UNL     1       4.415   2.972  19.336  0.00  0.00    +0.000 C 
ATOM     10  C   UNL     1       3.718   3.252  16.937  0.00  0.00    +0.000 C 
ENDBRANCH   1   8
BRANCH   3  11
ATOM     11  C   UNL     1       6.802   4.855  14.044  0.00  0.00    +0.000 C 
ATOM     12  O   UNL     1       7.702   5.337  13.367  0.00  0.00    +0.000 OA
ATOM     13  N   UNL     1       5.866   3.974  13.569  0.00  0.00    +0.000 N 
ATOM     14  H   UNL     1       5.146   3.643  14.201  0.00  0.00    +0.000 HD
BRANCH  13  15
ATOM     15  C   UNL     1       5.887   3.534  12.205  0.00  0.00    +0.000 C 
ATOM     16  C   UNL     1       5.672   2.086  11.871  0.00  0.00    +0.000 C 
ATOM     17  C   UNL     1       4.635   3.106  11.497  0.00  0.00    +0.000 C 
ENDBRANCH  13  15
ENDBRANCH   3  11
BRANCH   5  18
ATOM     18  O   UNL     1       7.222   7.980  17.681  0.00  0.00    +0.000 OA
BRANCH  18  19
ATOM     19  C   UNL     1       8.416   8.380  18.352  0.00  0.00    +0.000 C 
BRANCH  19  20
ATOM     20  C   UNL     1       8.688   9.887  18.313  0.00  0.00    +0.000 C 
BRANCH  20  21
ATOM     21  C   UNL     1       9.555  10.315  19.501  0.00  0.00    +0.000 C 
BRANCH  21  22
ATOM     22  C   UNL     1       9.251  11.719  20.002  0.00  0.00    +0.000 C 
BRANCH  22  23
ATOM     23  O   UNL     1       9.096  12.622  18.918  0.00  0.00    +0.000 OA
ATOM     24  H   UNL     1       8.724  12.121  18.172  0.00  0.00    +0.000 HD
ENDBRANCH  22  23
ENDBRANCH  21  22
ENDBRANCH  20  21
ENDBRANCH  19  20
ENDBRANCH  18  19
ENDBRANCH   5  18
TORSDOF 9
ENDMDL
MODEL 9
REMARK VINA RESULT:      -6.6      3.725      6.300
REMARK  Name = 
REMARK  12 active torsions:
REMARK  status: ('A' for Active; 'I' for Inactive)
REMARK    1  A    between atoms: C_1  and  C_2
REMARK    2  A    between atoms: C_2  and  C_3
REMARK    3  A    between atoms: C_2  and  C_4
REMARK    4  A    between atoms: C_2  and  C_5
REMARK    5  A    between atoms: C_7  and  C_8
REMARK    6  A    between atoms: N_10  and  C_11
REMARK    7  A    between atoms: C_15  and  O_16
REMARK    8  A    between atoms: O_16  and  C_17
REMARK    9  A    between atoms: C_17  and  C_18
REMARK   10  A    between atoms: C_18  and  C_19
REMARK   11  A    between atoms: C_19  and  C_20
REMARK   12  A    between atoms: C_20  and  O_21
REMARK                            x       y       z     vdW  Elec       q    Type
REMARK                         _______ _______ _______ _____ _____    ______ ____
ROOT
ATOM      1  C   UNL     1       2.410   4.003  17.876  0.00  0.00    +0.000 C 
ATOM      2  C   UNL     1       1.929   5.282  18.513  0.00  0.00    +0.000 C 
ATOM      3  C   UNL     1       2.637   6.417  18.534  0.00  0.00    +0.000 C 
ATOM      4  O   UNL     1       3.842   6.582  17.889  0.00  0.00    +0.000 OA
ATOM      5  C   UNL     1       4.087   5.631  16.851  0.00  0.00    +0.000 C 
ATOM      6  C   UNL     1       3.852   4.209  17.358  0.00  0.00    +0.000 C 
ENDROOT
BRANCH   1   8
ATOM      7  C   UNL     1       3.190   1.582  18.378  0.00  0.00    +0.000 C 
ATOM      8  C   UNL     1       2.278   2.750  18.829  0.00  0.00    +0.000 C 
ATOM      9  C   UNL     1       0.830   2.214  18.869  0.00  0.00    +0.000 C 
ATOM     10  C   UNL     1       2.714   3.120  20.264  0.00  0.00    +0.000 C 
ENDBRANCH   1   8
BRANCH   3  11
ATOM     11  C   UNL     1       2.096   7.575  19.336  0.00  0.00    +0.000 C 
ATOM     12  O   UNL     1       1.918   7.495  20.546  0.00  0.00    +0.000 OA
ATOM     13  N   UNL     1       1.835   8.694  18.590  0.00  0.00    +0.000 N 
ATOM     14  H   UNL     1       1.995   8.659  17.590  0.00  0.00    +0.000 HD
BRANCH  13  15
ATOM     15  C   UNL     1       1.330   9.890  19.198  0.00  0.00    +0.000 C 
ATOM     16  C   UNL     1       1.395  11.200  18.467  0.00  0.00    +0.000 C 
ATOM     17  C   UNL     1       0.068  10.545  18.719  0.00  0.00    +0.000 C 
ENDBRANCH  13  15
ENDBRANCH   3  11
BRANCH   5  18
ATOM     18  O   UNL     1       5.459   5.706  16.445  0.00  0.00    +0.000 OA
BRANCH  18  19
ATOM     19  C   UNL     1       6.220   4.526  16.698  0.00  0.00    +0.000 C 
BRANCH  19  20
ATOM     20  C   UNL     1       7.643   4.786  17.200  0.00  0.00    +0.000 C 
BRANCH  20  21
ATOM     21  C   UNL     1       7.654   5.895  18.256  0.00  0.00    +0.000 C 
BRANCH  21  22
ATOM     22  C   UNL     1       6.997   5.493  19.568  0.00  0.00    +0.000 C 
BRANCH  22  23
ATOM     23  O   UNL     1       7.957   5.393  20.607  0.00  0.00    +0.000 OA
ATOM     24  H   UNL     1       8.069   6.281  20.987  0.00  0.00    +0.000 HD
ENDBRANCH  22  23
ENDBRANCH  21  22
ENDBRANCH  20  21
ENDBRANCH  19  20
ENDBRANCH  18  19
ENDBRANCH   5  18
TORSDOF 9
ENDMDL
