MODEL 1
REMARK VINA RESULT:      -7.8      0.000      0.000
REMARK  Name = 
REMARK  3 active torsions:
REMARK  status: ('A' for Active; 'I' for Inactive)
REMARK    1  A    between atoms: C_2  and  C_15
REMARK    2  A    between atoms: N_3  and  C_4
REMARK    3  A    between atoms: C_4  and  C_5
REMARK                            x       y       z     vdW  Elec       q    Type
REMARK                         _______ _______ _______ _____ _____    ______ ____
ROOT
ATOM      1  C   UNL     1       3.224   6.657  18.239  0.00  0.00    +0.000 C 
ENDROOT
BRANCH   1   2
ATOM      2  C   UNL     1       3.936   5.400  18.825  0.00  0.00    +0.000 C 
ATOM      3  N   UNL     1       4.812   4.775  17.804  0.00  0.00    +0.000 NA
ATOM      4  C   UNL     1       4.200   3.675  17.037  0.00  0.00    +0.000 C 
ATOM      5  C   UNL     1       2.673   3.540  17.114  0.00  0.00    +0.000 C 
ATOM      6  C   UNL     1       2.261   3.546  18.561  0.00  0.00    +0.000 A 
ATOM      7  C   UNL     1       1.251   2.717  19.054  0.00  0.00    +0.000 A 
ATOM      8  C   UNL     1       0.951   2.729  20.417  0.00  0.00    +0.000 A 
ATOM      9  C   UNL     1       1.656   3.563  21.284  0.00  0.00    +0.000 A 
ATOM     10  C   UNL     1       2.649   4.410  20.792  0.00  0.00    +0.000 A 
ATOM     11  C   UNL     1       2.943   4.421  19.423  0.00  0.00    +0.000 A 
ATOM     12  H   UNL     1       5.632   4.401  18.280  0.00  0.00    +0.000 HD
ENDBRANCH   1   2
BRANCH   1  15
ATOM     13  O   UNL     1       1.840   9.068  17.731  0.00  0.00    +0.000 OA
ATOM     14  C   UNL     1       1.801   8.576  18.858  0.00  0.00    +0.000 C 
ATOM     15  N   UNL     1       2.437   7.409  19.209  0.00  0.00    +0.000 N 
ATOM     16  H   UNL     1       2.132   6.922  20.045  0.00  0.00    +0.000 HD
BRANCH  14  17
ATOM     17  C   UNL     1       1.007   9.240  19.917  0.00  0.00    +0.000 A 
ATOM     18  C   UNL     1       1.035   8.700  21.210  0.00  0.00    +0.000 A 
ATOM     19  C   UNL     1       0.284   9.290  22.229  0.00  0.00    +0.000 A 
ATOM     20  C   UNL     1      -0.503  10.406  21.949  0.00  0.00    +0.000 A 
ATOM     21 CL   UNL     1      -1.436  11.126  23.201  0.00  0.00    +0.000 Cl
ATOM     22  C   UNL     1      -0.550  10.938  20.659  0.00  0.00    +0.000 A 
ATOM     23  C   UNL     1       0.208  10.354  19.638  0.00  0.00    +0.000 A 
ENDBRANCH  14  17
ENDBRANCH   1  15
TORSDOF 3
ENDMDL
MODEL 2
REMARK VINA RESULT:      -7.8      1.737      2.443
REMARK  Name = 
REMARK  3 active torsions:
REMARK  status: ('A' for Active; 'I' for Inactive)
REMARK    1  A    between atoms: C_2  and  C_15
REMARK    2  A    between atoms: N_3  and  C_4
REMARK    3  A    between atoms: C_4  and  C_5
REMARK                            x       y       z     vdW  Elec       q    Type
REMARK                         _______ _______ _______ _____ _____    ______ ____
ROOT
ATOM      1  C   UNL     1       5.052   4.835  18.822  0.00  0.00    +0.000 C 
ENDROOT
BRANCH   1   2
ATOM      2  C   UNL     1       4.532   3.366  18.775  0.00  0.00    +0.000 C 
ATOM      3  N   UNL     1       4.311   2.937  17.373  0.00  0.00    +0.000 NA
ATOM      4  C   UNL     1       2.934   3.101  16.873  0.00  0.00    +0.000 C 
ATOM      5  C   UNL     1       1.999   3.999  17.694  0.00  0.00    +0.000 C 
ATOM      6  C   UNL     1       2.052   3.563  19.133  0.00  0.00    +0.000 A 
ATOM      7  C   UNL     1       0.917   3.523  19.944  0.00  0.00    +0.000 A 
ATOM      8  C   UNL     1       1.020   3.057  21.255  0.00  0.00    +0.000 A 
ATOM      9  C   UNL     1       2.251   2.631  21.755  0.00  0.00    +0.000 A 
ATOM     10  C   UNL     1       3.392   2.692  20.955  0.00  0.00    +0.000 A 
ATOM     11  C   UNL     1       3.303   3.178  19.645  0.00  0.00    +0.000 A 
ATOM     12  H   UNL     1       4.548   1.947  17.306  0.00  0.00    +0.000 HD
ENDBRANCH   1   2
BRANCH   1  15
ATOM     13  O   UNL     1       4.099   6.874  17.112  0.00  0.00    +0.000 OA
ATOM     14  C   UNL     1       3.641   6.778  18.249  0.00  0.00    +0.000 C 
ATOM     15  N   UNL     1       4.033   5.823  19.157  0.00  0.00    +0.000 N 
ATOM     16  H   UNL     1       3.426   5.623  19.945  0.00  0.00    +0.000 HD
BRANCH  14  17
ATOM     17  C   UNL     1       2.579   7.712  18.689  0.00  0.00    +0.000 A 
ATOM     18  C   UNL     1       2.142   8.694  17.791  0.00  0.00    +0.000 A 
ATOM     19  C   UNL     1       1.155   9.604  18.179  0.00  0.00    +0.000 A 
ATOM     20  C   UNL     1       0.621   9.537  19.465  0.00  0.00    +0.000 A 
ATOM     21 CL   UNL     1      -0.586  10.663  19.947  0.00  0.00    +0.000 Cl
ATOM     22  C   UNL     1       1.067   8.572  20.371  0.00  0.00    +0.000 A 
ATOM     23  C   UNL     1       2.049   7.655  19.983  0.00  0.00    +0.000 A 
ENDBRANCH  14  17
ENDBRANCH   1  15
TORSDOF 3
ENDMDL
MODEL 3
REMARK VINA RESULT:      -7.8      1.773      2.296
REMARK  Name = 
REMARK  3 active torsions:
REMARK  status: ('A' for Active; 'I' for Inactive)
REMARK    1  A    between atoms: C_2  and  C_15
REMARK    2  A    between atoms: N_3  and  C_4
REMARK    3  A    between atoms: C_4  and  C_5
REMARK                            x       y       z     vdW  Elec       q    Type
REMARK                         _______ _______ _______ _____ _____    ______ ____
ROOT
ATOM      1  C   UNL     1       5.076   4.726  18.834  0.00  0.00    +0.000 C 
ENDROOT
BRANCH   1   2
ATOM      2  C   UNL     1       4.512   3.273  18.798  0.00  0.00    +0.000 C 
ATOM      3  N   UNL     1       4.283   2.839  17.400  0.00  0.00    +0.000 NA
ATOM      4  C   UNL     1       2.913   3.039  16.893  0.00  0.00    +0.000 C 
ATOM      5  C   UNL     1       2.003   3.973  17.702  0.00  0.00    +0.000 C 
ATOM      6  C   UNL     1       2.038   3.548  19.145  0.00  0.00    +0.000 A 
ATOM      7  C   UNL     1       0.899   3.550  19.952  0.00  0.00    +0.000 A 
ATOM      8  C   UNL     1       0.983   3.093  21.268  0.00  0.00    +0.000 A 
ATOM      9  C   UNL     1       2.199   2.635  21.776  0.00  0.00    +0.000 A 
ATOM     10  C   UNL     1       3.344   2.654  20.981  0.00  0.00    +0.000 A 
ATOM     11  C   UNL     1       3.275   3.130  19.666  0.00  0.00    +0.000 A 
ATOM     12  H   UNL     1       4.490   1.841  17.342  0.00  0.00    +0.000 HD
ENDBRANCH   1   2
BRANCH   1  15
ATOM     13  O   UNL     1       4.154   6.741  17.079  0.00  0.00    +0.000 OA
ATOM     14  C   UNL     1       3.706   6.687  18.223  0.00  0.00    +0.000 C 
ATOM     15  N   UNL     1       4.085   5.748  19.153  0.00  0.00    +0.000 N 
ATOM     16  H   UNL     1       3.483   5.584  19.953  0.00  0.00    +0.000 HD
BRANCH  14  17
ATOM     17  C   UNL     1       2.673   7.659  18.649  0.00  0.00    +0.000 A 
ATOM     18  C   UNL     1       2.125   7.530  19.932  0.00  0.00    +0.000 A 
ATOM     19  C   UNL     1       1.136   8.418  20.360  0.00  0.00    +0.000 A 
ATOM     20  C   UNL     1       0.688   9.421  19.500  0.00  0.00    +0.000 A 
ATOM     21 CL   UNL     1      -0.537  10.507  20.023  0.00  0.00    +0.000 Cl
ATOM     22  C   UNL     1       1.217   9.543  18.214  0.00  0.00    +0.000 A 
ATOM     23  C   UNL     1       2.214   8.660  17.786  0.00  0.00    +0.000 A 
ENDBRANCH  14  17
ENDBRANCH   1  15
TORSDOF 3
ENDMDL
MODEL 4
REMARK VINA RESULT:      -7.7      1.214      1.716
REMARK  Name = 
REMARK  3 active torsions:
REMARK  status: ('A' for Active; 'I' for Inactive)
REMARK    1  A    between atoms: C_2  and  C_15
REMARK    2  A    between atoms: N_3  and  C_4
REMARK    3  A    between atoms: C_4  and  C_5
REMARK                            x       y       z     vdW  Elec       q    Type
REMARK                         _______ _______ _______ _____ _____    ______ ____
ROOT
ATOM      1  C   UNL     1       3.011   6.957  18.395  0.00  0.00    +0.000 C 
ENDROOT
BRANCH   1   2
ATOM      2  C   UNL     1       3.504   5.827  19.348  0.00  0.00    +0.000 C 
ATOM      3  N   UNL     1       4.931   5.518  19.094  0.00  0.00    +0.000 NA
ATOM      4  C   UNL     1       5.179   4.401  18.165  0.00  0.00    +0.000 C 
ATOM      5  C   UNL     1       3.994   3.934  17.309  0.00  0.00    +0.000 C 
ATOM      6  C   UNL     1       2.812   3.696  18.211  0.00  0.00    +0.000 A 
ATOM      7  C   UNL     1       1.939   2.622  18.030  0.00  0.00    +0.000 A 
ATOM      8  C   UNL     1       0.893   2.423  18.932  0.00  0.00    +0.000 A 
ATOM      9  C   UNL     1       0.720   3.290  20.010  0.00  0.00    +0.000 A 
ATOM     10  C   UNL     1       1.575   4.379  20.180  0.00  0.00    +0.000 A 
ATOM     11  C   UNL     1       2.615   4.599  19.269  0.00  0.00    +0.000 A 
ATOM     12  H   UNL     1       5.365   5.280  19.986  0.00  0.00    +0.000 HD
ENDBRANCH   1   2
BRANCH   1  15
ATOM     13  O   UNL     1       2.142   9.406  17.284  0.00  0.00    +0.000 OA
ATOM     14  C   UNL     1       1.688   9.041  18.367  0.00  0.00    +0.000 C 
ATOM     15  N   UNL     1       2.042   7.869  18.992  0.00  0.00    +0.000 N 
ATOM     16  H   UNL     1       1.432   7.499  19.714  0.00  0.00    +0.000 HD
BRANCH  14  17
ATOM     17  C   UNL     1       0.674   9.876  19.053  0.00  0.00    +0.000 A 
ATOM     18  C   UNL     1      -0.496  10.209  18.357  0.00  0.00    +0.000 A 
ATOM     19  C   UNL     1      -1.465  11.010  18.966  0.00  0.00    +0.000 A 
ATOM     20  C   UNL     1      -1.254  11.485  20.260  0.00  0.00    +0.000 A 
ATOM     21 CL   UNL     1      -2.442  12.479  21.006  0.00  0.00    +0.000 Cl
ATOM     22  C   UNL     1      -0.083  11.171  20.952  0.00  0.00    +0.000 A 
ATOM     23  C   UNL     1       0.885  10.363  20.347  0.00  0.00    +0.000 A 
ENDBRANCH  14  17
ENDBRANCH   1  15
TORSDOF 3
ENDMDL
MODEL 5
REMARK VINA RESULT:      -7.7      2.095      2.825
REMARK  Name = 
REMARK  3 active torsions:
REMARK  status: ('A' for Active; 'I' for Inactive)
REMARK    1  A    between atoms: C_2  and  C_15
REMARK    2  A    between atoms: N_3  and  C_4
REMARK    3  A    between atoms: C_4  and  C_5
REMARK                            x       y       z     vdW  Elec       q    Type
REMARK                         _______ _______ _______ _____ _____    ______ ____
ROOT
ATOM      1  C   UNL     1       5.084   4.205  19.312  0.00  0.00    +0.000 C 
ENDROOT
BRANCH   1   2
ATOM      2  C   UNL     1       4.487   3.003  20.105  0.00  0.00    +0.000 C 
ATOM      3  N   UNL     1       5.083   1.727  19.641  0.00  0.00    +0.000 NA
ATOM      4  C   UNL     1       4.313   1.012  18.607  0.00  0.00    +0.000 C 
ATOM      5  C   UNL     1       3.216   1.805  17.884  0.00  0.00    +0.000 C 
ATOM      6  C   UNL     1       2.340   2.465  18.915  0.00  0.00    +0.000 A 
ATOM      7  C   UNL     1       0.954   2.551  18.773  0.00  0.00    +0.000 A 
ATOM      8  C   UNL     1       0.190   3.127  19.788  0.00  0.00    +0.000 A 
ATOM      9  C   UNL     1       0.806   3.613  20.941  0.00  0.00    +0.000 A 
ATOM     10  C   UNL     1       2.193   3.551  21.076  0.00  0.00    +0.000 A 
ATOM     11  C   UNL     1       2.970   2.995  20.054  0.00  0.00    +0.000 A 
ATOM     12  H   UNL     1       5.166   1.107  20.447  0.00  0.00    +0.000 HD
ENDBRANCH   1   2
BRANCH   1  15
ATOM     13  O   UNL     1       3.420   5.316  17.316  0.00  0.00    +0.000 OA
ATOM     14  C   UNL     1       3.538   5.897  18.393  0.00  0.00    +0.000 C 
ATOM     15  N   UNL     1       4.319   5.441  19.429  0.00  0.00    +0.000 N 
ATOM     16  H   UNL     1       4.146   5.800  20.362  0.00  0.00    +0.000 HD
BRANCH  14  17
ATOM     17  C   UNL     1       2.785   7.149  18.634  0.00  0.00    +0.000 A 
ATOM     18  C   UNL     1       2.142   7.313  19.868  0.00  0.00    +0.000 A 
ATOM     19  C   UNL     1       1.408   8.474  20.122  0.00  0.00    +0.000 A 
ATOM     20  C   UNL     1       1.307   9.457  19.139  0.00  0.00    +0.000 A 
ATOM     21 CL   UNL     1       0.394  10.881  19.447  0.00  0.00    +0.000 Cl
ATOM     22  C   UNL     1       1.929   9.290  17.900  0.00  0.00    +0.000 A 
ATOM     23  C   UNL     1       2.672   8.133  17.646  0.00  0.00    +0.000 A 
ENDBRANCH  14  17
ENDBRANCH   1  15
TORSDOF 3
ENDMDL
MODEL 6
REMARK VINA RESULT:      -7.7      4.360      6.925
REMARK  Name = 
REMARK  3 active torsions:
REMARK  status: ('A' for Active; 'I' for Inactive)
REMARK    1  A    between atoms: C_2  and  C_15
REMARK    2  A    between atoms: N_3  and  C_4
REMARK    3  A    between atoms: C_4  and  C_5
REMARK                            x       y       z     vdW  Elec       q    Type
REMARK                         _______ _______ _______ _____ _____    ______ ____
ROOT
ATOM      1  C   UNL     1       3.994   2.678  20.195  0.00  0.00    +0.000 C 
ENDROOT
BRANCH   1   2
ATOM      2  C   UNL     1       2.591   3.274  20.522  0.00  0.00    +0.000 C 
ATOM      3  N   UNL     1       1.528   2.274  20.263  0.00  0.00    +0.000 NA
ATOM      4  C   UNL     1       0.897   2.355  18.933  0.00  0.00    +0.000 C 
ATOM      5  C   UNL     1       1.624   3.188  17.869  0.00  0.00    +0.000 C 
ATOM      6  C   UNL     1       1.944   4.539  18.449  0.00  0.00    +0.000 A 
ATOM      7  C   UNL     1       1.835   5.716  17.707  0.00  0.00    +0.000 A 
ATOM      8  C   UNL     1       2.094   6.944  18.317  0.00  0.00    +0.000 A 
ATOM      9  C   UNL     1       2.457   6.998  19.662  0.00  0.00    +0.000 A 
ATOM     10  C   UNL     1       2.591   5.822  20.401  0.00  0.00    +0.000 A 
ATOM     11  C   UNL     1       2.354   4.584  19.793  0.00  0.00    +0.000 A 
ATOM     12  H   UNL     1       0.795   2.405  20.961  0.00  0.00    +0.000 HD
ENDBRANCH   1   2
BRANCH   1  15
ATOM     13  O   UNL     1       5.896   4.700  19.664  0.00  0.00    +0.000 OA
ATOM     14  C   UNL     1       5.436   4.045  18.730  0.00  0.00    +0.000 C 
ATOM     15  N   UNL     1       4.509   3.040  18.880  0.00  0.00    +0.000 N 
ATOM     16  H   UNL     1       4.397   2.367  18.130  0.00  0.00    +0.000 HD
BRANCH  14  17
ATOM     17  C   UNL     1       5.909   4.308  17.352  0.00  0.00    +0.000 A 
ATOM     18  C   UNL     1       5.014   4.114  16.291  0.00  0.00    +0.000 A 
ATOM     19  C   UNL     1       5.432   4.335  14.977  0.00  0.00    +0.000 A 
ATOM     20  C   UNL     1       6.744   4.734  14.727  0.00  0.00    +0.000 A 
ATOM     21 CL   UNL     1       7.261   4.996  13.109  0.00  0.00    +0.000 Cl
ATOM     22  C   UNL     1       7.646   4.912  15.778  0.00  0.00    +0.000 A 
ATOM     23  C   UNL     1       7.228   4.699  17.096  0.00  0.00    +0.000 A 
ENDBRANCH  14  17
ENDBRANCH   1  15
TORSDOF 3
ENDMDL
MODEL 7
REMARK VINA RESULT:      -7.7      4.379      6.931
REMARK  Name = 
REMARK  3 active torsions:
REMARK  status: ('A' for Active; 'I' for Inactive)
REMARK    1  A    between atoms: C_2  and  C_15
REMARK    2  A    between atoms: N_3  and  C_4
REMARK    3  A    between atoms: C_4  and  C_5
REMARK                            x       y       z     vdW  Elec       q    Type
REMARK                         _______ _______ _______ _____ _____    ______ ____
ROOT
ATOM      1  C   UNL     1       4.038   2.695  20.137  0.00  0.00    +0.000 C 
ENDROOT
BRANCH   1   2
ATOM      2  C   UNL     1       2.644   3.300  20.482  0.00  0.00    +0.000 C 
ATOM      3  N   UNL     1       1.572   2.305  20.240  0.00  0.00    +0.000 NA
ATOM      4  C   UNL     1       0.922   2.386  18.919  0.00  0.00    +0.000 C 
ATOM      5  C   UNL     1       1.639   3.212  17.842  0.00  0.00    +0.000 C 
ATOM      6  C   UNL     1       1.975   4.562  18.414  0.00  0.00    +0.000 A 
ATOM      7  C   UNL     1       1.862   5.738  17.671  0.00  0.00    +0.000 A 
ATOM      8  C   UNL     1       2.136   6.967  18.273  0.00  0.00    +0.000 A 
ATOM      9  C   UNL     1       2.518   7.022  19.614  0.00  0.00    +0.000 A 
ATOM     10  C   UNL     1       2.655   5.848  20.354  0.00  0.00    +0.000 A 
ATOM     11  C   UNL     1       2.404   4.609  19.752  0.00  0.00    +0.000 A 
ATOM     12  H   UNL     1       0.849   2.442  20.947  0.00  0.00    +0.000 HD
ENDBRANCH   1   2
BRANCH   1  15
ATOM     13  O   UNL     1       5.919   4.707  19.504  0.00  0.00    +0.000 OA
ATOM     14  C   UNL     1       5.440   4.024  18.600  0.00  0.00    +0.000 C 
ATOM     15  N   UNL     1       4.521   3.021  18.800  0.00  0.00    +0.000 N 
ATOM     16  H   UNL     1       4.394   2.326  18.072  0.00  0.00    +0.000 HD
BRANCH  14  17
ATOM     17  C   UNL     1       5.880   4.249  17.204  0.00  0.00    +0.000 A 
ATOM     18  C   UNL     1       7.198   4.669  16.980  0.00  0.00    +0.000 A 
ATOM     19  C   UNL     1       7.641   4.909  15.677  0.00  0.00    +0.000 A 
ATOM     20  C   UNL     1       6.763   4.742  14.607  0.00  0.00    +0.000 A 
ATOM     21 CL   UNL     1       7.305   5.047  13.004  0.00  0.00    +0.000 Cl
ATOM     22  C   UNL     1       5.443   4.341  14.825  0.00  0.00    +0.000 A 
ATOM     23  C   UNL     1       4.999   4.093  16.128  0.00  0.00    +0.000 A 
ENDBRANCH  14  17
ENDBRANCH   1  15
TORSDOF 3
ENDMDL
MODEL 8
REMARK VINA RESULT:      -7.6      2.082      2.949
REMARK  Name = 
REMARK  3 active torsions:
REMARK  status: ('A' for Active; 'I' for Inactive)
REMARK    1  A    between atoms: C_2  and  C_15
REMARK    2  A    between atoms: N_3  and  C_4
REMARK    3  A    between atoms: C_4  and  C_5
REMARK                            x       y       z     vdW  Elec       q    Type
REMARK                         _______ _______ _______ _____ _____    ______ ____
ROOT
ATOM      1  C   UNL     1       5.084   4.180  19.295  0.00  0.00    +0.000 C 
ENDROOT
BRANCH   1   2
ATOM      2  C   UNL     1       4.525   2.906  19.997  0.00  0.00    +0.000 C 
ATOM      3  N   UNL     1       5.046   1.682  19.343  0.00  0.00    +0.000 NA
ATOM      4  C   UNL     1       4.175   1.101  18.304  0.00  0.00    +0.000 C 
ATOM      5  C   UNL     1       3.042   1.989  17.773  0.00  0.00    +0.000 C 
ATOM      6  C   UNL     1       2.273   2.542  18.942  0.00  0.00    +0.000 A 
ATOM      7  C   UNL     1       0.882   2.666  18.931  0.00  0.00    +0.000 A 
ATOM      8  C   UNL     1       0.221   3.134  20.066  0.00  0.00    +0.000 A 
ATOM      9  C   UNL     1       0.943   3.476  21.210  0.00  0.00    +0.000 A 
ATOM     10  C   UNL     1       2.334   3.376  21.217  0.00  0.00    +0.000 A 
ATOM     11  C   UNL     1       3.009   2.928  20.075  0.00  0.00    +0.000 A 
ATOM     12  H   UNL     1       5.181   0.973  20.064  0.00  0.00    +0.000 HD
ENDBRANCH   1   2
BRANCH   1  15
ATOM     13  O   UNL     1       3.752   5.544  17.209  0.00  0.00    +0.000 OA
ATOM     14  C   UNL     1       3.644   5.956  18.363  0.00  0.00    +0.000 C 
ATOM     15  N   UNL     1       4.249   5.366  19.448  0.00  0.00    +0.000 N 
ATOM     16  H   UNL     1       3.893   5.574  20.375  0.00  0.00    +0.000 HD
BRANCH  14  17
ATOM     17  C   UNL     1       2.797   7.138  18.640  0.00  0.00    +0.000 A 
ATOM     18  C   UNL     1       2.656   8.107  17.637  0.00  0.00    +0.000 A 
ATOM     19  C   UNL     1       1.879   9.244  17.871  0.00  0.00    +0.000 A 
ATOM     20  C   UNL     1       1.258   9.415  19.108  0.00  0.00    +0.000 A 
ATOM     21 CL   UNL     1       0.310  10.819  19.399  0.00  0.00    +0.000 Cl
ATOM     22  C   UNL     1       1.410   8.462  20.117  0.00  0.00    +0.000 A 
ATOM     23  C   UNL     1       2.181   7.319  19.883  0.00  0.00    +0.000 A 
ENDBRANCH  14  17
ENDBRANCH   1  15
TORSDOF 3
ENDMDL
MODEL 9
REMARK VINA RESULT:      -7.5      1.408      1.676
REMARK  Name = 
REMARK  3 active torsions:
REMARK  status: ('A' for Active; 'I' for Inactive)
REMARK    1  A    between atoms: C_2  and  C_15
REMARK    2  A    between atoms: N_3  and  C_4
REMARK    3  A    between atoms: C_4  and  C_5
REMARK                            x       y       z     vdW  Elec       q    Type
REMARK                         _______ _______ _______ _____ _____    ______ ____
ROOT
ATOM      1  C   UNL     1       2.946   6.988  18.112  0.00  0.00    +0.000 C 
ENDROOT
BRANCH   1   2
ATOM      2  C   UNL     1       3.460   5.945  19.150  0.00  0.00    +0.000 C 
ATOM      3  N   UNL     1       4.895   5.649  18.923  0.00  0.00    +0.000 NA
ATOM      4  C   UNL     1       5.171   4.471  18.081  0.00  0.00    +0.000 C 
ATOM      5  C   UNL     1       4.000   3.914  17.261  0.00  0.00    +0.000 C 
ATOM      6  C   UNL     1       2.820   3.718  18.175  0.00  0.00    +0.000 A 
ATOM      7  C   UNL     1       1.972   2.614  18.074  0.00  0.00    +0.000 A 
ATOM      8  C   UNL     1       0.926   2.461  18.985  0.00  0.00    +0.000 A 
ATOM      9  C   UNL     1       0.730   3.403  19.995  0.00  0.00    +0.000 A 
ATOM     10  C   UNL     1       1.561   4.520  20.084  0.00  0.00    +0.000 A 
ATOM     11  C   UNL     1       2.599   4.695  19.161  0.00  0.00    +0.000 A 
ATOM     12  H   UNL     1       5.330   5.488  19.831  0.00  0.00    +0.000 HD
ENDBRANCH   1   2
BRANCH   1  15
ATOM     13  O   UNL     1       2.446   9.624  17.225  0.00  0.00    +0.000 OA
ATOM     14  C   UNL     1       1.746   9.146  18.115  0.00  0.00    +0.000 C 
ATOM     15  N   UNL     1       1.904   7.875  18.617  0.00  0.00    +0.000 N 
ATOM     16  H   UNL     1       1.134   7.454  19.125  0.00  0.00    +0.000 HD
BRANCH  14  17
ATOM     17  C   UNL     1       0.638   9.948  18.683  0.00  0.00    +0.000 A 
ATOM     18  C   UNL     1       0.854  10.618  19.895  0.00  0.00    +0.000 A 
ATOM     19  C   UNL     1      -0.174  11.368  20.469  0.00  0.00    +0.000 A 
ATOM     20  C   UNL     1      -1.416  11.435  19.838  0.00  0.00    +0.000 A 
ATOM     21 CL   UNL     1      -2.685  12.351  20.550  0.00  0.00    +0.000 Cl
ATOM     22  C   UNL     1      -1.643  10.755  18.640  0.00  0.00    +0.000 A 
ATOM     23  C   UNL     1      -0.612  10.009  18.059  0.00  0.00    +0.000 A 
ENDBRANCH  14  17
ENDBRANCH   1  15
TORSDOF 3
ENDMDL
