MODEL 1
REMARK VINA RESULT:      -7.5      0.000      0.000
REMARK  Name = 
REMARK  2 active torsions:
REMARK  status: ('A' for Active; 'I' for Inactive)
REMARK    1  A    between atoms: CA_7  and  CB_8
REMARK    2  A    between atoms: CB_8  and  CG_9
REMARK                            x       y       z     vdW  Elec       q    Type
REMARK                         _______ _______ _______ _____ _____    ______ ____
ROOT
ATOM      1  O   GLY A   1       7.335   5.355  19.991  0.00  0.00    +0.000 OA
ATOM      2  C   GLY A   1       7.152   5.376  18.777  0.00  0.00    +0.000 C 
ATOM      3  CA  GLY A   1       7.420   6.603  17.902  0.00  0.00    +0.000 C 
ATOM      4  N   GLY A   1       7.615   6.226  16.512  0.00  0.00    +0.000 N 
ATOM      5  C   PHE A   2       6.782   5.315  15.899  0.00  0.00    +0.000 C 
ATOM      6  O   PHE A   2       6.697   5.269  14.675  0.00  0.00    +0.000 OA
ATOM      7  CA  PHE A   2       5.875   4.503  16.845  0.00  0.00    +0.000 C 
ATOM      8  N   PHE A   2       6.559   4.318  18.127  0.00  0.00    +0.000 N 
ATOM      9  H   GLY A   1       8.103   6.851  15.882  0.00  0.00    +0.000 HD
ATOM     10  H   PHE A   2       6.271   3.555  18.729  0.00  0.00    +0.000 HD
ENDROOT
BRANCH   7  11
ATOM     11  CB  PHE A   2       4.522   5.225  16.957  0.00  0.00    +0.000 C 
BRANCH  11  12
ATOM     12  CG  PHE A   2       3.424   4.400  17.580  0.00  0.00    +0.000 A 
ATOM     13  CD1 PHE A   2       2.529   4.981  18.490  0.00  0.00    +0.000 A 
ATOM     14  CE1 PHE A   2       1.490   4.230  19.040  0.00  0.00    +0.000 A 
ATOM     15  CZ  PHE A   2       1.335   2.891  18.687  0.00  0.00    +0.000 A 
ATOM     16  CE2 PHE A   2       2.225   2.301  17.792  0.00  0.00    +0.000 A 
ATOM     17  CD2 PHE A   2       3.268   3.049  17.245  0.00  0.00    +0.000 A 
ENDBRANCH  11  12
ENDBRANCH   7  11
TORSDOF 2
ENDMDL
MODEL 2
REMARK VINA RESULT:      -7.4      0.828      1.048
REMARK  Name = 
REMARK  2 active torsions:
REMARK  status: ('A' for Active; 'I' for Inactive)
REMARK    1  A    between atoms: CA_7  and  CB_8
REMARK    2  A    between atoms: CB_8  and  CG_9
REMARK                            x       y       z     vdW  Elec       q    Type
REMARK                         _______ _______ _______ _____ _____    ______ ____
ROOT
ATOM      1  O   GLY A   1       7.503   5.339  20.104  0.00  0.00    +0.000 OA
ATOM      2  C   GLY A   1       7.165   5.433  18.928  0.00  0.00    +0.000 C 
ATOM      3  CA  GLY A   1       7.510   6.634  18.042  0.00  0.00    +0.000 C 
ATOM      4  N   GLY A   1       7.453   6.282  16.633  0.00  0.00    +0.000 N 
ATOM      5  C   PHE A   2       6.409   5.538  16.127  0.00  0.00    +0.000 C 
ATOM      6  O   PHE A   2       6.155   5.552  14.926  0.00  0.00    +0.000 OA
ATOM      7  CA  PHE A   2       5.517   4.846  17.177  0.00  0.00    +0.000 C 
ATOM      8  N   PHE A   2       6.328   4.508  18.350  0.00  0.00    +0.000 N 
ATOM      9  H   GLY A   1       7.948   6.845  15.952  0.00  0.00    +0.000 HD
ATOM     10  H   PHE A   2       6.002   3.778  18.974  0.00  0.00    +0.000 HD
ENDROOT
BRANCH   7  11
ATOM     11  CB  PHE A   2       4.327   5.768  17.485  0.00  0.00    +0.000 C 
BRANCH  11  12
ATOM     12  CG  PHE A   2       3.258   5.142  18.344  0.00  0.00    +0.000 A 
ATOM     13  CD1 PHE A   2       3.101   5.535  19.682  0.00  0.00    +0.000 A 
ATOM     14  CE1 PHE A   2       2.090   4.984  20.469  0.00  0.00    +0.000 A 
ATOM     15  CZ  PHE A   2       1.225   4.034  19.928  0.00  0.00    +0.000 A 
ATOM     16  CE2 PHE A   2       1.378   3.630  18.604  0.00  0.00    +0.000 A 
ATOM     17  CD2 PHE A   2       2.392   4.176  17.816  0.00  0.00    +0.000 A 
ENDBRANCH  11  12
ENDBRANCH   7  11
TORSDOF 2
ENDMDL
MODEL 3
REMARK VINA RESULT:      -7.4      0.443      1.309
REMARK  Name = 
REMARK  2 active torsions:
REMARK  status: ('A' for Active; 'I' for Inactive)
REMARK    1  A    between atoms: CA_7  and  CB_8
REMARK    2  A    between atoms: CB_8  and  CG_9
REMARK                            x       y       z     vdW  Elec       q    Type
REMARK                         _______ _______ _______ _____ _____    ______ ____
ROOT
ATOM      1  O   GLY A   1       8.090   5.307  19.796  0.00  0.00    +0.000 OA
ATOM      2  C   GLY A   1       7.598   5.410  18.676  0.00  0.00    +0.000 C 
ATOM      3  CA  GLY A   1       7.617   6.706  17.861  0.00  0.00    +0.000 C 
ATOM      4  N   GLY A   1       7.448   6.437  16.442  0.00  0.00    +0.000 N 
ATOM      5  C   PHE A   2       6.494   5.548  15.996  0.00  0.00    +0.000 C 
ATOM      6  O   PHE A   2       6.094   5.590  14.836  0.00  0.00    +0.000 OA
ATOM      7  CA  PHE A   2       5.872   4.643  17.077  0.00  0.00    +0.000 C 
ATOM      8  N   PHE A   2       6.868   4.386  18.121  0.00  0.00    +0.000 N 
ATOM      9  H   GLY A   1       7.749   7.122  15.759  0.00  0.00    +0.000 HD
ATOM     10  H   PHE A   2       6.753   3.572  18.715  0.00  0.00    +0.000 HD
ENDROOT
BRANCH   7  11
ATOM     11  CB  PHE A   2       4.588   5.313  17.590  0.00  0.00    +0.000 C 
BRANCH  11  12
ATOM     12  CG  PHE A   2       3.461   4.356  17.892  0.00  0.00    +0.000 A 
ATOM     13  CD1 PHE A   2       3.547   3.013  17.497  0.00  0.00    +0.000 A 
ATOM     14  CE1 PHE A   2       2.523   2.117  17.806  0.00  0.00    +0.000 A 
ATOM     15  CZ  PHE A   2       1.403   2.554  18.512  0.00  0.00    +0.000 A 
ATOM     16  CE2 PHE A   2       1.304   3.889  18.899  0.00  0.00    +0.000 A 
ATOM     17  CD2 PHE A   2       2.325   4.788  18.587  0.00  0.00    +0.000 A 
ENDBRANCH  11  12
ENDBRANCH   7  11
TORSDOF 2
ENDMDL
MODEL 4
REMARK VINA RESULT:      -7.4      0.858      1.539
REMARK  Name = 
REMARK  2 active torsions:
REMARK  status: ('A' for Active; 'I' for Inactive)
REMARK    1  A    between atoms: CA_7  and  CB_8
REMARK    2  A    between atoms: CB_8  and  CG_9
REMARK                            x       y       z     vdW  Elec       q    Type
REMARK                         _______ _______ _______ _____ _____    ______ ____
ROOT
ATOM      1  O   GLY A   1       7.501   5.395  20.066  0.00  0.00    +0.000 OA
ATOM      2  C   GLY A   1       7.111   5.408  18.902  0.00  0.00    +0.000 C 
ATOM      3  CA  GLY A   1       7.429   6.536  17.917  0.00  0.00    +0.000 C 
ATOM      4  N   GLY A   1       7.305   6.084  16.541  0.00  0.00    +0.000 N 
ATOM      5  C   PHE A   2       6.230   5.321  16.138  0.00  0.00    +0.000 C 
ATOM      6  O   PHE A   2       5.922   5.252  14.952  0.00  0.00    +0.000 OA
ATOM      7  CA  PHE A   2       5.378   4.721  17.274  0.00  0.00    +0.000 C 
ATOM      8  N   PHE A   2       6.237   4.457  18.431  0.00  0.00    +0.000 N 
ATOM      9  H   GLY A   1       7.774   6.588  15.799  0.00  0.00    +0.000 HD
ATOM     10  H   PHE A   2       5.931   3.780  19.121  0.00  0.00    +0.000 HD
ENDROOT
BRANCH   7  11
ATOM     11  CB  PHE A   2       4.214   5.682  17.566  0.00  0.00    +0.000 C 
BRANCH  11  12
ATOM     12  CG  PHE A   2       3.117   5.093  18.416  0.00  0.00    +0.000 A 
ATOM     13  CD1 PHE A   2       2.269   4.104  17.896  0.00  0.00    +0.000 A 
ATOM     14  CE1 PHE A   2       1.276   3.531  18.692  0.00  0.00    +0.000 A 
ATOM     15  CZ  PHE A   2       1.121   3.941  20.015  0.00  0.00    +0.000 A 
ATOM     16  CE2 PHE A   2       1.950   4.930  20.538  0.00  0.00    +0.000 A 
ATOM     17  CD2 PHE A   2       2.941   5.508  19.743  0.00  0.00    +0.000 A 
ENDBRANCH  11  12
ENDBRANCH   7  11
TORSDOF 2
ENDMDL
MODEL 5
REMARK VINA RESULT:      -7.0      3.163      5.653
REMARK  Name = 
REMARK  2 active torsions:
REMARK  status: ('A' for Active; 'I' for Inactive)
REMARK    1  A    between atoms: CA_7  and  CB_8
REMARK    2  A    between atoms: CB_8  and  CG_9
REMARK                            x       y       z     vdW  Elec       q    Type
REMARK                         _______ _______ _______ _____ _____    ______ ____
ROOT
ATOM      1  O   GLY A   1       0.075   2.160  18.445  0.00  0.00    +0.000 OA
ATOM      2  C   GLY A   1       1.224   2.257  18.866  0.00  0.00    +0.000 C 
ATOM      3  CA  GLY A   1       1.584   2.913  20.201  0.00  0.00    +0.000 C 
ATOM      4  N   GLY A   1       2.877   2.456  20.681  0.00  0.00    +0.000 N 
ATOM      5  C   PHE A   2       3.959   2.364  19.832  0.00  0.00    +0.000 C 
ATOM      6  O   PHE A   2       5.103   2.346  20.276  0.00  0.00    +0.000 OA
ATOM      7  CA  PHE A   2       3.632   2.454  18.329  0.00  0.00    +0.000 C 
ATOM      8  N   PHE A   2       2.300   1.892  18.091  0.00  0.00    +0.000 N 
ATOM      9  H   GLY A   1       3.109   2.538  21.664  0.00  0.00    +0.000 HD
ATOM     10  H   PHE A   2       2.065   1.571  17.158  0.00  0.00    +0.000 HD
ENDROOT
BRANCH   7  11
ATOM     11  CB  PHE A   2       3.780   3.919  17.887  0.00  0.00    +0.000 C 
BRANCH  11  12
ATOM     12  CG  PHE A   2       5.004   4.199  17.052  0.00  0.00    +0.000 A 
ATOM     13  CD1 PHE A   2       4.934   4.149  15.652  0.00  0.00    +0.000 A 
ATOM     14  CE1 PHE A   2       6.056   4.443  14.875  0.00  0.00    +0.000 A 
ATOM     15  CZ  PHE A   2       7.258   4.790  15.490  0.00  0.00    +0.000 A 
ATOM     16  CE2 PHE A   2       7.340   4.832  16.880  0.00  0.00    +0.000 A 
ATOM     17  CD2 PHE A   2       6.221   4.534  17.659  0.00  0.00    +0.000 A 
ENDBRANCH  11  12
ENDBRANCH   7  11
TORSDOF 2
ENDMDL
MODEL 6
REMARK VINA RESULT:      -6.9      2.726      5.084
REMARK  Name = 
REMARK  2 active torsions:
REMARK  status: ('A' for Active; 'I' for Inactive)
REMARK    1  A    between atoms: CA_7  and  CB_8
REMARK    2  A    between atoms: CB_8  and  CG_9
REMARK                            x       y       z     vdW  Elec       q    Type
REMARK                         _______ _______ _______ _____ _____    ______ ____
ROOT
ATOM      1  O   GLY A   1       5.013   1.889  20.442  0.00  0.00    +0.000 OA
ATOM      2  C   GLY A   1       4.169   2.332  19.670  0.00  0.00    +0.000 C 
ATOM      3  CA  GLY A   1       3.446   1.477  18.625  0.00  0.00    +0.000 C 
ATOM      4  N   GLY A   1       2.191   2.089  18.220  0.00  0.00    +0.000 N 
ATOM      5  C   PHE A   2       2.115   3.436  17.941  0.00  0.00    +0.000 C 
ATOM      6  O   PHE A   2       1.196   3.883  17.260  0.00  0.00    +0.000 OA
ATOM      7  CA  PHE A   2       3.324   4.278  18.394  0.00  0.00    +0.000 C 
ATOM      8  N   PHE A   2       3.902   3.680  19.600  0.00  0.00    +0.000 N 
ATOM      9  H   GLY A   1       1.466   1.522  17.799  0.00  0.00    +0.000 HD
ATOM     10  H   PHE A   2       4.471   4.259  20.208  0.00  0.00    +0.000 HD
ENDROOT
BRANCH   7  11
ATOM     11  CB  PHE A   2       4.307   4.386  17.218  0.00  0.00    +0.000 C 
BRANCH  11  12
ATOM     12  CG  PHE A   2       5.508   5.259  17.486  0.00  0.00    +0.000 A 
ATOM     13  CD1 PHE A   2       5.517   6.600  17.073  0.00  0.00    +0.000 A 
ATOM     14  CE1 PHE A   2       6.612   7.419  17.352  0.00  0.00    +0.000 A 
ATOM     15  CZ  PHE A   2       7.707   6.907  18.045  0.00  0.00    +0.000 A 
ATOM     16  CE2 PHE A   2       7.712   5.574  18.449  0.00  0.00    +0.000 A 
ATOM     17  CD2 PHE A   2       6.621   4.751  18.167  0.00  0.00    +0.000 A 
ENDBRANCH  11  12
ENDBRANCH   7  11
TORSDOF 2
ENDMDL
MODEL 7
REMARK VINA RESULT:      -6.9      1.914      2.383
REMARK  Name = 
REMARK  2 active torsions:
REMARK  status: ('A' for Active; 'I' for Inactive)
REMARK    1  A    between atoms: CA_7  and  CB_8
REMARK    2  A    between atoms: CB_8  and  CG_9
REMARK                            x       y       z     vdW  Elec       q    Type
REMARK                         _______ _______ _______ _____ _____    ______ ____
ROOT
ATOM      1  O   GLY A   1       8.489   4.061  17.833  0.00  0.00    +0.000 OA
ATOM      2  C   GLY A   1       7.507   4.769  17.634  0.00  0.00    +0.000 C 
ATOM      3  CA  GLY A   1       7.531   6.296  17.733  0.00  0.00    +0.000 C 
ATOM      4  N   GLY A   1       6.438   6.890  16.981  0.00  0.00    +0.000 N 
ATOM      5  C   PHE A   2       5.161   6.378  17.060  0.00  0.00    +0.000 C 
ATOM      6  O   PHE A   2       4.192   7.064  16.747  0.00  0.00    +0.000 OA
ATOM      7  CA  PHE A   2       5.042   4.986  17.710  0.00  0.00    +0.000 C 
ATOM      8  N   PHE A   2       6.261   4.221  17.434  0.00  0.00    +0.000 N 
ATOM      9  H   GLY A   1       6.495   7.857  16.685  0.00  0.00    +0.000 HD
ATOM     10  H   PHE A   2       6.226   3.209  17.491  0.00  0.00    +0.000 HD
ENDROOT
BRANCH   7  11
ATOM     11  CB  PHE A   2       4.746   5.173  19.206  0.00  0.00    +0.000 C 
BRANCH  11  12
ATOM     12  CG  PHE A   2       3.462   4.535  19.674  0.00  0.00    +0.000 A 
ATOM     13  CD1 PHE A   2       3.325   3.139  19.681  0.00  0.00    +0.000 A 
ATOM     14  CE1 PHE A   2       2.152   2.544  20.147  0.00  0.00    +0.000 A 
ATOM     15  CZ  PHE A   2       1.104   3.339  20.609  0.00  0.00    +0.000 A 
ATOM     16  CE2 PHE A   2       1.226   4.726  20.596  0.00  0.00    +0.000 A 
ATOM     17  CD2 PHE A   2       2.397   5.323  20.126  0.00  0.00    +0.000 A 
ENDBRANCH  11  12
ENDBRANCH   7  11
TORSDOF 2
ENDMDL
MODEL 8
REMARK VINA RESULT:      -6.8      3.446      5.234
REMARK  Name = 
REMARK  2 active torsions:
REMARK  status: ('A' for Active; 'I' for Inactive)
REMARK    1  A    between atoms: CA_7  and  CB_8
REMARK    2  A    between atoms: CB_8  and  CG_9
REMARK                            x       y       z     vdW  Elec       q    Type
REMARK                         _______ _______ _______ _____ _____    ______ ____
ROOT
ATOM      1  O   GLY A   1       2.337   3.059  22.400  0.00  0.00    +0.000 OA
ATOM      2  C   GLY A   1       2.107   3.300  21.219  0.00  0.00    +0.000 C 
ATOM      3  CA  GLY A   1       1.564   2.261  20.234  0.00  0.00    +0.000 C 
ATOM      4  N   GLY A   1       0.920   2.899  19.098  0.00  0.00    +0.000 N 
ATOM      5  C   PHE A   2       1.503   3.973  18.461  0.00  0.00    +0.000 C 
ATOM      6  O   PHE A   2       1.178   4.273  17.316  0.00  0.00    +0.000 OA
ATOM      7  CA  PHE A   2       2.673   4.637  19.214  0.00  0.00    +0.000 C 
ATOM      8  N   PHE A   2       2.452   4.507  20.657  0.00  0.00    +0.000 N 
ATOM      9  H   GLY A   1       0.250   2.382  18.541  0.00  0.00    +0.000 HD
ATOM     10  H   PHE A   2       2.924   5.150  21.283  0.00  0.00    +0.000 HD
ENDROOT
BRANCH   7  11
ATOM     11  CB  PHE A   2       3.985   4.006  18.724  0.00  0.00    +0.000 C 
BRANCH  11  12
ATOM     12  CG  PHE A   2       4.518   4.591  17.440  0.00  0.00    +0.000 A 
ATOM     13  CD1 PHE A   2       4.536   5.980  17.247  0.00  0.00    +0.000 A 
ATOM     14  CE1 PHE A   2       5.062   6.527  16.075  0.00  0.00    +0.000 A 
ATOM     15  CZ  PHE A   2       5.574   5.690  15.085  0.00  0.00    +0.000 A 
ATOM     16  CE2 PHE A   2       5.551   4.309  15.262  0.00  0.00    +0.000 A 
ATOM     17  CD2 PHE A   2       5.021   3.760  16.431  0.00  0.00    +0.000 A 
ENDBRANCH  11  12
ENDBRANCH   7  11
TORSDOF 2
ENDMDL
MODEL 9
REMARK VINA RESULT:      -6.8      1.520      2.764
REMARK  Name = 
REMARK  2 active torsions:
REMARK  status: ('A' for Active; 'I' for Inactive)
REMARK    1  A    between atoms: CA_7  and  CB_8
REMARK    2  A    between atoms: CB_8  and  CG_9
REMARK                            x       y       z     vdW  Elec       q    Type
REMARK                         _______ _______ _______ _____ _____    ______ ____
ROOT
ATOM      1  O   GLY A   1       5.193   6.645  15.170  0.00  0.00    +0.000 OA
ATOM      2  C   GLY A   1       5.602   6.261  16.261  0.00  0.00    +0.000 C 
ATOM      3  CA  GLY A   1       6.912   5.492  16.451  0.00  0.00    +0.000 C 
ATOM      4  N   GLY A   1       7.399   5.609  17.815  0.00  0.00    +0.000 N 
ATOM      5  C   PHE A   2       6.546   5.468  18.889  0.00  0.00    +0.000 C 
ATOM      6  O   PHE A   2       6.983   5.197  20.003  0.00  0.00    +0.000 OA
ATOM      7  CA  PHE A   2       5.043   5.512  18.553  0.00  0.00    +0.000 C 
ATOM      8  N   PHE A   2       4.833   6.385  17.395  0.00  0.00    +0.000 N 
ATOM      9  H   GLY A   1       8.376   5.439  18.019  0.00  0.00    +0.000 HD
ATOM     10  H   PHE A   2       3.914   6.785  17.246  0.00  0.00    +0.000 HD
ENDROOT
BRANCH   7  11
ATOM     11  CB  PHE A   2       4.550   4.070  18.346  0.00  0.00    +0.000 C 
BRANCH  11  12
ATOM     12  CG  PHE A   2       3.217   3.769  18.983  0.00  0.00    +0.000 A 
ATOM     13  CD1 PHE A   2       2.876   4.338  20.219  0.00  0.00    +0.000 A 
ATOM     14  CE1 PHE A   2       1.628   4.090  20.793  0.00  0.00    +0.000 A 
ATOM     15  CZ  PHE A   2       0.710   3.270  20.139  0.00  0.00    +0.000 A 
ATOM     16  CE2 PHE A   2       1.044   2.692  18.916  0.00  0.00    +0.000 A 
ATOM     17  CD2 PHE A   2       2.292   2.934  18.343  0.00  0.00    +0.000 A 
ENDBRANCH  11  12
ENDBRANCH   7  11
TORSDOF 2
ENDMDL
