MODEL 1
REMARK VINA RESULT:      -6.9      0.000      0.000
REMARK  Name = 
REMARK  24 active torsions:
REMARK  status: ('A' for Active; 'I' for Inactive)
REMARK    1  A    between atoms: C_1  and  C_2
REMARK    2  A    between atoms: C_2  and  C_3
REMARK    3  A    between atoms: C_3  and  C_4
REMARK    4  A    between atoms: C_4  and  C_5
REMARK    5  A    between atoms: C_5  and  C_6
REMARK    6  A    between atoms: C_6  and  C_7
REMARK    7  A    between atoms: C_7  and  C_8
REMARK    8  A    between atoms: C_8  and  C_9
REMARK    9  A    between atoms: C_9  and  C_10
REMARK   10  A    between atoms: C_10  and  C_11
REMARK   11  A    between atoms: C_11  and  C_12
REMARK   12  A    between atoms: C_12  and  C_13
REMARK   13  A    between atoms: C_12  and  O_25
REMARK   14  A    between atoms: C_13  and  C_14
REMARK   15  A    between atoms: C_18  and  C_19
REMARK   16  A    between atoms: C_19  and  C_20
REMARK   17  A    between atoms: C_20  and  C_21
REMARK   18  A    between atoms: C_21  and  C_22
REMARK   19  A    between atoms: C_22  and  C_23
REMARK   20  A    between atoms: C_23  and  C_24
REMARK   21  A    between atoms: O_25  and  C_26
REMARK   22  A    between atoms: C_26  and  C_28
REMARK   23  A    between atoms: C_28  and  C_29
REMARK   24  A    between atoms: C_28  and  N_30
REMARK                            x       y       z     vdW  Elec       q    Type
REMARK                         _______ _______ _______ _____ _____    ______ ____
ROOT
ATOM      1  C   UNL     1       5.113   4.262  18.795  0.00  0.00    +0.000 C 
ENDROOT
BRANCH   1   2
ATOM      2  C   UNL     1       6.255   5.158  19.337  0.00  0.00    +0.000 C 
BRANCH   2   3
ATOM      3  C   UNL     1       7.336   5.531  18.281  0.00  0.00    +0.000 C 
ATOM      4  O   UNL     1       7.996   6.798  18.615  0.00  0.00    +0.000 OA
ATOM      5  C   UNL     1       7.610   7.395  17.458  0.00  0.00    +0.000 C 
ATOM      6  O   UNL     1       7.860   8.520  17.094  0.00  0.00    +0.000 OA
ATOM      7  C   UNL     1       6.836   6.168  16.942  0.00  0.00    +0.000 C 
BRANCH   7   8
ATOM      8  C   UNL     1       7.260   5.681  15.552  0.00  0.00    +0.000 C 
BRANCH   8   9
ATOM      9  C   UNL     1       6.890   4.215  15.443  0.00  0.00    +0.000 C 
BRANCH   9  10
ATOM     10  C   UNL     1       5.757   3.933  14.469  0.00  0.00    +0.000 C 
BRANCH  10  11
ATOM     11  C   UNL     1       6.375   3.896  13.077  0.00  0.00    +0.000 C 
BRANCH  11  12
ATOM     12  C   UNL     1       5.387   3.416  12.033  0.00  0.00    +0.000 C 
ATOM     13  C   UNL     1       5.749   2.009  11.600  0.00  0.00    +0.000 C 
ENDBRANCH  11  12
ENDBRANCH  10  11
ENDBRANCH   9  10
ENDBRANCH   8   9
ENDBRANCH   7   8
ENDBRANCH   2   3
ENDBRANCH   1   2
BRANCH   1  14
ATOM     14  O   UNL     1       4.406   3.777  19.974  0.00  0.00    +0.000 OA
BRANCH  14  15
ATOM     15  C   UNL     1       3.628   2.666  19.827  0.00  0.00    +0.000 C 
ATOM     16  O   UNL     1       4.014   1.609  19.347  0.00  0.00    +0.000 OA
BRANCH  15  17
ATOM     17  C   UNL     1       2.193   2.933  20.306  0.00  0.00    +0.000 C 
ATOM     18  C   UNL     1       2.138   2.707  21.813  0.00  0.00    +0.000 C 
BRANCH  17  19
ATOM     19  N   UNL     1       1.176   2.105  19.648  0.00  0.00    +0.000 N 
ATOM     20  C   UNL     1       0.678   2.423  18.409  0.00  0.00    +0.000 C 
ATOM     21  O   UNL     1       0.961   3.400  17.762  0.00  0.00    +0.000 OA
ATOM     22  H   UNL     1       0.855   1.270  20.133  0.00  0.00    +0.000 HD
ENDBRANCH  17  19
ENDBRANCH  15  17
ENDBRANCH  14  15
ENDBRANCH   1  14
BRANCH   1  23
ATOM     23  C   UNL     1       4.034   4.984  17.951  0.00  0.00    +0.000 C 
BRANCH  23  24
ATOM     24  C   UNL     1       3.318   6.212  18.505  0.00  0.00    +0.000 C 
BRANCH  24  25
ATOM     25  C   UNL     1       3.410   7.547  17.760  0.00  0.00    +0.000 C 
BRANCH  25  26
ATOM     26  C   UNL     1       1.978   8.123  17.694  0.00  0.00    +0.000 C 
BRANCH  26  27
ATOM     27  C   UNL     1       1.921   9.576  18.139  0.00  0.00    +0.000 C 
BRANCH  27  28
ATOM     28  C   UNL     1       0.827   9.829  19.177  0.00  0.00    +0.000 C 
BRANCH  28  29
ATOM     29  C   UNL     1       0.076  11.101  18.792  0.00  0.00    +0.000 C 
BRANCH  29  30
ATOM     30  C   UNL     1      -1.420  10.875  18.616  0.00  0.00    +0.000 C 
BRANCH  30  31
ATOM     31  C   UNL     1      -1.662  10.010  17.379  0.00  0.00    +0.000 C 
BRANCH  31  33
ATOM     32  C   UNL     1      -2.965   9.786  15.255  0.00  0.00    +0.000 C 
ATOM     33  C   UNL     1      -2.469  10.750  16.320  0.00  0.00    +0.000 C 
ENDBRANCH  31  33
ENDBRANCH  30  31
ENDBRANCH  29  30
ENDBRANCH  28  29
ENDBRANCH  27  28
ENDBRANCH  26  27
ENDBRANCH  25  26
ENDBRANCH  24  25
ENDBRANCH  23  24
ENDBRANCH   1  23
TORSDOF 21
ENDMDL
MODEL 2
REMARK VINA RESULT:      -6.7      2.480      7.649
REMARK  Name = 
REMARK  24 active torsions:
REMARK  status: ('A' for Active; 'I' for Inactive)
REMARK    1  A    between atoms: C_1  and  C_2
REMARK    2  A    between atoms: C_2  and  C_3
REMARK    3  A    between atoms: C_3  and  C_4
REMARK    4  A    between atoms: C_4  and  C_5
REMARK    5  A    between atoms: C_5  and  C_6
REMARK    6  A    between atoms: C_6  and  C_7
REMARK    7  A    between atoms: C_7  and  C_8
REMARK    8  A    between atoms: C_8  and  C_9
REMARK    9  A    between atoms: C_9  and  C_10
REMARK   10  A    between atoms: C_10  and  C_11
REMARK   11  A    between atoms: C_11  and  C_12
REMARK   12  A    between atoms: C_12  and  C_13
REMARK   13  A    between atoms: C_12  and  O_25
REMARK   14  A    between atoms: C_13  and  C_14
REMARK   15  A    between atoms: C_18  and  C_19
REMARK   16  A    between atoms: C_19  and  C_20
REMARK   17  A    between atoms: C_20  and  C_21
REMARK   18  A    between atoms: C_21  and  C_22
REMARK   19  A    between atoms: C_22  and  C_23
REMARK   20  A    between atoms: C_23  and  C_24
REMARK   21  A    between atoms: O_25  and  C_26
REMARK   22  A    between atoms: C_26  and  C_28
REMARK   23  A    between atoms: C_28  and  C_29
REMARK   24  A    between atoms: C_28  and  N_30
REMARK                            x       y       z     vdW  Elec       q    Type
REMARK                         _______ _______ _______ _____ _____    ______ ____
ROOT
ATOM      1  C   UNL     1       2.904   5.966  19.222  0.00  0.00    +0.000 C 
ENDROOT
BRANCH   1   2
ATOM      2  C   UNL     1       2.293   7.349  19.561  0.00  0.00    +0.000 C 
BRANCH   2   3
ATOM      3  C   UNL     1       1.855   8.181  18.320  0.00  0.00    +0.000 C 
ATOM      4  O   UNL     1       2.922   9.085  17.877  0.00  0.00    +0.000 OA
ATOM      5  C   UNL     1       2.164  10.196  18.062  0.00  0.00    +0.000 C 
ATOM      6  O   UNL     1       2.482  11.343  17.852  0.00  0.00    +0.000 OA
ATOM      7  C   UNL     1       0.939   9.422  18.580  0.00  0.00    +0.000 C 
BRANCH   7   8
ATOM      8  C   UNL     1      -0.362   9.700  17.820  0.00  0.00    +0.000 C 
BRANCH   8   9
ATOM      9  C   UNL     1      -1.256  10.529  18.721  0.00  0.00    +0.000 C 
BRANCH   9  10
ATOM     10  C   UNL     1      -2.483  11.096  18.025  0.00  0.00    +0.000 C 
BRANCH  10  11
ATOM     11  C   UNL     1      -2.937  10.049  17.014  0.00  0.00    +0.000 C 
BRANCH  11  12
ATOM     12  C   UNL     1      -3.561  10.683  15.787  0.00  0.00    +0.000 C 
ATOM     13  C   UNL     1      -3.038   9.996  14.541  0.00  0.00    +0.000 C 
ENDBRANCH  11  12
ENDBRANCH  10  11
ENDBRANCH   9  10
ENDBRANCH   8   9
ENDBRANCH   7   8
ENDBRANCH   2   3
ENDBRANCH   1   2
BRANCH   1  14
ATOM     14  O   UNL     1       2.070   5.424  18.156  0.00  0.00    +0.000 OA
BRANCH  14  15
ATOM     15  C   UNL     1       1.934   4.068  18.094  0.00  0.00    +0.000 C 
ATOM     16  O   UNL     1       1.470   3.462  17.137  0.00  0.00    +0.000 OA
BRANCH  15  17
ATOM     17  C   UNL     1       2.399   3.407  19.401  0.00  0.00    +0.000 C 
ATOM     18  C   UNL     1       3.367   2.280  19.053  0.00  0.00    +0.000 C 
BRANCH  17  19
ATOM     19  N   UNL     1       1.309   2.881  20.230  0.00  0.00    +0.000 N 
ATOM     20  C   UNL     1       1.433   2.759  21.591  0.00  0.00    +0.000 C 
ATOM     21  O   UNL     1       2.420   3.007  22.238  0.00  0.00    +0.000 OA
ATOM     22  H   UNL     1       0.443   2.618  19.766  0.00  0.00    +0.000 HD
ENDBRANCH  17  19
ENDBRANCH  15  17
ENDBRANCH  14  15
ENDBRANCH   1  14
BRANCH   1  23
ATOM     23  C   UNL     1       4.336   5.990  18.636  0.00  0.00    +0.000 C 
BRANCH  23  24
ATOM     24  C   UNL     1       4.551   5.964  17.125  0.00  0.00    +0.000 C 
BRANCH  24  25
ATOM     25  C   UNL     1       5.814   5.318  16.547  0.00  0.00    +0.000 C 
BRANCH  25  26
ATOM     26  C   UNL     1       6.958   6.342  16.714  0.00  0.00    +0.000 C 
BRANCH  26  27
ATOM     27  C   UNL     1       7.698   6.167  18.032  0.00  0.00    +0.000 C 
BRANCH  27  28
ATOM     28  C   UNL     1       8.260   7.484  18.568  0.00  0.00    +0.000 C 
BRANCH  28  29
ATOM     29  C   UNL     1       7.760   8.622  17.683  0.00  0.00    +0.000 C 
BRANCH  29  30
ATOM     30  C   UNL     1       8.533   9.918  17.892  0.00  0.00    +0.000 C 
BRANCH  30  31
ATOM     31  C   UNL     1       9.162   9.915  19.285  0.00  0.00    +0.000 C 
BRANCH  31  33
ATOM     32  C   UNL     1      10.766  11.466  18.153  0.00  0.00    +0.000 C 
ATOM     33  C   UNL     1      10.121  11.084  19.474  0.00  0.00    +0.000 C 
ENDBRANCH  31  33
ENDBRANCH  30  31
ENDBRANCH  29  30
ENDBRANCH  28  29
ENDBRANCH  27  28
ENDBRANCH  26  27
ENDBRANCH  25  26
ENDBRANCH  24  25
ENDBRANCH  23  24
ENDBRANCH   1  23
TORSDOF 21
ENDMDL
MODEL 3
REMARK VINA RESULT:      -6.5      3.675      8.193
REMARK  Name = 
REMARK  24 active torsions:
REMARK  status: ('A' for Active; 'I' for Inactive)
REMARK    1  A    between atoms: C_1  and  C_2
REMARK    2  A    between atoms: C_2  and  C_3
REMARK    3  A    between atoms: C_3  and  C_4
REMARK    4  A    between atoms: C_4  and  C_5
REMARK    5  A    between atoms: C_5  and  C_6
REMARK    6  A    between atoms: C_6  and  C_7
REMARK    7  A    between atoms: C_7  and  C_8
REMARK    8  A    between atoms: C_8  and  C_9
REMARK    9  A    between atoms: C_9  and  C_10
REMARK   10  A    between atoms: C_10  and  C_11
REMARK   11  A    between atoms: C_11  and  C_12
REMARK   12  A    between atoms: C_12  and  C_13
REMARK   13  A    between atoms: C_12  and  O_25
REMARK   14  A    between atoms: C_13  and  C_14
REMARK   15  A    between atoms: C_18  and  C_19
REMARK   16  A    between atoms: C_19  and  C_20
REMARK   17  A    between atoms: C_20  and  C_21
REMARK   18  A    between atoms: C_21  and  C_22
REMARK   19  A    between atoms: C_22  and  C_23
REMARK   20  A    between atoms: C_23  and  C_24
REMARK   21  A    between atoms: O_25  and  C_26
REMARK   22  A    between atoms: C_26  and  C_28
REMARK   23  A    between atoms: C_28  and  C_29
REMARK   24  A    between atoms: C_28  and  N_30
REMARK                            x       y       z     vdW  Elec       q    Type
REMARK                         _______ _______ _______ _____ _____    ______ ____
ROOT
ATOM      1  C   UNL     1       5.162   4.868  16.195  0.00  0.00    +0.000 C 
ENDROOT
BRANCH   1   2
ATOM      2  C   UNL     1       3.846   4.139  16.563  0.00  0.00    +0.000 C 
BRANCH   2   3
ATOM      3  C   UNL     1       3.826   3.530  17.995  0.00  0.00    +0.000 C 
ATOM      4  O   UNL     1       3.485   2.103  17.966  0.00  0.00    +0.000 OA
ATOM      5  C   UNL     1       2.381   2.272  18.739  0.00  0.00    +0.000 C 
ATOM      6  O   UNL     1       1.613   1.418  19.116  0.00  0.00    +0.000 OA
ATOM      7  C   UNL     1       2.554   3.796  18.866  0.00  0.00    +0.000 C 
BRANCH   7   8
ATOM      8  C   UNL     1       2.597   4.318  20.306  0.00  0.00    +0.000 C 
BRANCH   8   9
ATOM      9  C   UNL     1       1.375   5.190  20.518  0.00  0.00    +0.000 C 
BRANCH   9  10
ATOM     10  C   UNL     1       1.695   6.653  20.775  0.00  0.00    +0.000 C 
BRANCH  10  11
ATOM     11  C   UNL     1       2.371   7.182  19.515  0.00  0.00    +0.000 C 
BRANCH  11  12
ATOM     12  C   UNL     1       1.775   8.500  19.065  0.00  0.00    +0.000 C 
ATOM     13  C   UNL     1       2.232   8.808  17.653  0.00  0.00    +0.000 C 
ENDBRANCH  11  12
ENDBRANCH  10  11
ENDBRANCH   9  10
ENDBRANCH   8   9
ENDBRANCH   7   8
ENDBRANCH   2   3
ENDBRANCH   1   2
BRANCH   1  14
ATOM     14  O   UNL     1       5.355   4.628  14.771  0.00  0.00    +0.000 OA
BRANCH  14  15
ATOM     15  C   UNL     1       6.630   4.405  14.338  0.00  0.00    +0.000 C 
ATOM     16  O   UNL     1       7.636   4.695  14.971  0.00  0.00    +0.000 OA
BRANCH  15  17
ATOM     17  C   UNL     1       6.634   3.783  12.934  0.00  0.00    +0.000 C 
ATOM     18  C   UNL     1       7.427   4.695  12.004  0.00  0.00    +0.000 C 
BRANCH  17  19
ATOM     19  N   UNL     1       5.297   3.554  12.373  0.00  0.00    +0.000 N 
ATOM     20  C   UNL     1       5.017   2.454  11.602  0.00  0.00    +0.000 C 
ATOM     21  O   UNL     1       5.806   1.608  11.262  0.00  0.00    +0.000 OA
ATOM     22  H   UNL     1       4.569   4.232  12.586  0.00  0.00    +0.000 HD
ENDBRANCH  17  19
ENDBRANCH  15  17
ENDBRANCH  14  15
ENDBRANCH   1  14
BRANCH   1  23
ATOM     23  C   UNL     1       5.140   6.409  16.342  0.00  0.00    +0.000 C 
BRANCH  23  24
ATOM     24  C   UNL     1       6.063   7.101  17.341  0.00  0.00    +0.000 C 
BRANCH  24  25
ATOM     25  C   UNL     1       7.099   6.280  18.115  0.00  0.00    +0.000 C 
BRANCH  25  26
ATOM     26  C   UNL     1       8.245   7.245  18.491  0.00  0.00    +0.000 C 
BRANCH  26  27
ATOM     27  C   UNL     1       8.110   8.595  17.802  0.00  0.00    +0.000 C 
BRANCH  27  28
ATOM     28  C   UNL     1       8.584   9.752  18.682  0.00  0.00    +0.000 C 
BRANCH  28  29
ATOM     29  C   UNL     1       9.560  10.607  17.878  0.00  0.00    +0.000 C 
BRANCH  29  30
ATOM     30  C   UNL     1      10.269  11.654  18.727  0.00  0.00    +0.000 C 
BRANCH  30  31
ATOM     31  C   UNL     1       9.514  11.838  20.042  0.00  0.00    +0.000 C 
BRANCH  31  33
ATOM     32  C   UNL     1      10.086  13.928  21.293  0.00  0.00    +0.000 C 
ATOM     33  C   UNL     1      10.398  12.451  21.121  0.00  0.00    +0.000 C 
ENDBRANCH  31  33
ENDBRANCH  30  31
ENDBRANCH  29  30
ENDBRANCH  28  29
ENDBRANCH  27  28
ENDBRANCH  26  27
ENDBRANCH  25  26
ENDBRANCH  24  25
ENDBRANCH  23  24
ENDBRANCH   1  23
TORSDOF 21
ENDMDL
MODEL 4
REMARK VINA RESULT:      -6.4      2.744      8.428
REMARK  Name = 
REMARK  24 active torsions:
REMARK  status: ('A' for Active; 'I' for Inactive)
REMARK    1  A    between atoms: C_1  and  C_2
REMARK    2  A    between atoms: C_2  and  C_3
REMARK    3  A    between atoms: C_3  and  C_4
REMARK    4  A    between atoms: C_4  and  C_5
REMARK    5  A    between atoms: C_5  and  C_6
REMARK    6  A    between atoms: C_6  and  C_7
REMARK    7  A    between atoms: C_7  and  C_8
REMARK    8  A    between atoms: C_8  and  C_9
REMARK    9  A    between atoms: C_9  and  C_10
REMARK   10  A    between atoms: C_10  and  C_11
REMARK   11  A    between atoms: C_11  and  C_12
REMARK   12  A    between atoms: C_12  and  C_13
REMARK   13  A    between atoms: C_12  and  O_25
REMARK   14  A    between atoms: C_13  and  C_14
REMARK   15  A    between atoms: C_18  and  C_19
REMARK   16  A    between atoms: C_19  and  C_20
REMARK   17  A    between atoms: C_20  and  C_21
REMARK   18  A    between atoms: C_21  and  C_22
REMARK   19  A    between atoms: C_22  and  C_23
REMARK   20  A    between atoms: C_23  and  C_24
REMARK   21  A    between atoms: O_25  and  C_26
REMARK   22  A    between atoms: C_26  and  C_28
REMARK   23  A    between atoms: C_28  and  C_29
REMARK   24  A    between atoms: C_28  and  N_30
REMARK                            x       y       z     vdW  Elec       q    Type
REMARK                         _______ _______ _______ _____ _____    ______ ____
ROOT
ATOM      1  C   UNL     1       2.190   7.114  20.118  0.00  0.00    +0.000 C 
ENDROOT
BRANCH   1   2
ATOM      2  C   UNL     1       1.266   7.645  21.242  0.00  0.00    +0.000 C 
BRANCH   2   3
ATOM      3  C   UNL     1       1.220   9.197  21.359  0.00  0.00    +0.000 C 
ATOM      4  O   UNL     1       1.087   9.625  22.755  0.00  0.00    +0.000 OA
ATOM      5  C   UNL     1      -0.087  10.270  22.527  0.00  0.00    +0.000 C 
ATOM      6  O   UNL     1      -0.754  10.883  23.327  0.00  0.00    +0.000 OA
ATOM      7  C   UNL     1      -0.140   9.897  21.034  0.00  0.00    +0.000 C 
BRANCH   7   8
ATOM      8  C   UNL     1      -0.283  11.089  20.082  0.00  0.00    +0.000 C 
BRANCH   8   9
ATOM      9  C   UNL     1      -1.332  10.730  19.047  0.00  0.00    +0.000 C 
BRANCH   9  10
ATOM     10  C   UNL     1      -2.104  11.923  18.508  0.00  0.00    +0.000 C 
BRANCH  10  11
ATOM     11  C   UNL     1      -3.290  11.363  17.732  0.00  0.00    +0.000 C 
BRANCH  11  12
ATOM     12  C   UNL     1      -4.609  11.699  18.399  0.00  0.00    +0.000 C 
ATOM     13  C   UNL     1      -5.689  11.839  17.344  0.00  0.00    +0.000 C 
ENDBRANCH  11  12
ENDBRANCH  10  11
ENDBRANCH   9  10
ENDBRANCH   8   9
ENDBRANCH   7   8
ENDBRANCH   2   3
ENDBRANCH   1   2
BRANCH   1  14
ATOM     14  O   UNL     1       1.599   5.852  19.692  0.00  0.00    +0.000 OA
BRANCH  14  15
ATOM     15  C   UNL     1       2.137   4.705  20.198  0.00  0.00    +0.000 C 
ATOM     16  O   UNL     1       3.319   4.560  20.480  0.00  0.00    +0.000 OA
BRANCH  15  17
ATOM     17  C   UNL     1       1.071   3.606  20.325  0.00  0.00    +0.000 C 
ATOM     18  C   UNL     1       1.545   2.592  21.362  0.00  0.00    +0.000 C 
BRANCH  17  19
ATOM     19  N   UNL     1       0.766   2.915  19.067  0.00  0.00    +0.000 N 
ATOM     20  C   UNL     1       1.712   2.175  18.403  0.00  0.00    +0.000 C 
ATOM     21  O   UNL     1       2.867   2.048  18.726  0.00  0.00    +0.000 OA
ATOM     22  H   UNL     1      -0.180   2.989  18.701  0.00  0.00    +0.000 HD
ENDBRANCH  17  19
ENDBRANCH  15  17
ENDBRANCH  14  15
ENDBRANCH   1  14
BRANCH   1  23
ATOM     23  C   UNL     1       2.253   7.979  18.835  0.00  0.00    +0.000 C 
BRANCH  23  24
ATOM     24  C   UNL     1       2.915   7.435  17.572  0.00  0.00    +0.000 C 
BRANCH  24  25
ATOM     25  C   UNL     1       4.253   6.696  17.671  0.00  0.00    +0.000 C 
BRANCH  25  26
ATOM     26  C   UNL     1       4.010   5.259  17.156  0.00  0.00    +0.000 C 
BRANCH  26  27
ATOM     27  C   UNL     1       5.298   4.583  16.710  0.00  0.00    +0.000 C 
BRANCH  27  28
ATOM     28  C   UNL     1       6.117   5.453  15.756  0.00  0.00    +0.000 C 
BRANCH  28  29
ATOM     29  C   UNL     1       6.714   4.559  14.674  0.00  0.00    +0.000 C 
BRANCH  29  30
ATOM     30  C   UNL     1       5.676   4.065  13.674  0.00  0.00    +0.000 C 
BRANCH  30  31
ATOM     31  C   UNL     1       6.384   3.427  12.480  0.00  0.00    +0.000 C 
BRANCH  31  33
ATOM     32  C   UNL     1       4.131   3.258  11.404  0.00  0.00    +0.000 C 
ATOM     33  C   UNL     1       5.443   2.540  11.673  0.00  0.00    +0.000 C 
ENDBRANCH  31  33
ENDBRANCH  30  31
ENDBRANCH  29  30
ENDBRANCH  28  29
ENDBRANCH  27  28
ENDBRANCH  26  27
ENDBRANCH  25  26
ENDBRANCH  24  25
ENDBRANCH  23  24
ENDBRANCH   1  23
TORSDOF 21
ENDMDL
MODEL 5
REMARK VINA RESULT:      -6.4      2.460      7.987
REMARK  Name = 
REMARK  24 active torsions:
REMARK  status: ('A' for Active; 'I' for Inactive)
REMARK    1  A    between atoms: C_1  and  C_2
REMARK    2  A    between atoms: C_2  and  C_3
REMARK    3  A    between atoms: C_3  and  C_4
REMARK    4  A    between atoms: C_4  and  C_5
REMARK    5  A    between atoms: C_5  and  C_6
REMARK    6  A    between atoms: C_6  and  C_7
REMARK    7  A    between atoms: C_7  and  C_8
REMARK    8  A    between atoms: C_8  and  C_9
REMARK    9  A    between atoms: C_9  and  C_10
REMARK   10  A    between atoms: C_10  and  C_11
REMARK   11  A    between atoms: C_11  and  C_12
REMARK   12  A    between atoms: C_12  and  C_13
REMARK   13  A    between atoms: C_12  and  O_25
REMARK   14  A    between atoms: C_13  and  C_14
REMARK   15  A    between atoms: C_18  and  C_19
REMARK   16  A    between atoms: C_19  and  C_20
REMARK   17  A    between atoms: C_20  and  C_21
REMARK   18  A    between atoms: C_21  and  C_22
REMARK   19  A    between atoms: C_22  and  C_23
REMARK   20  A    between atoms: C_23  and  C_24
REMARK   21  A    between atoms: O_25  and  C_26
REMARK   22  A    between atoms: C_26  and  C_28
REMARK   23  A    between atoms: C_28  and  C_29
REMARK   24  A    between atoms: C_28  and  N_30
REMARK                            x       y       z     vdW  Elec       q    Type
REMARK                         _______ _______ _______ _____ _____    ______ ____
ROOT
ATOM      1  C   UNL     1       2.399   6.258  19.592  0.00  0.00    +0.000 C 
ENDROOT
BRANCH   1   2
ATOM      2  C   UNL     1       1.343   6.930  20.505  0.00  0.00    +0.000 C 
BRANCH   2   3
ATOM      3  C   UNL     1       1.477   8.477  20.613  0.00  0.00    +0.000 C 
ATOM      4  O   UNL     1       1.736   8.898  21.995  0.00  0.00    +0.000 OA
ATOM      5  C   UNL     1       0.610   9.655  22.058  0.00  0.00    +0.000 C 
ATOM      6  O   UNL     1       0.223  10.318  22.991  0.00  0.00    +0.000 OA
ATOM      7  C   UNL     1       0.152   9.309  20.629  0.00  0.00    +0.000 C 
BRANCH   7   8
ATOM      8  C   UNL     1      -0.108  10.522  19.729  0.00  0.00    +0.000 C 
BRANCH   8   9
ATOM      9  C   UNL     1      -1.073  10.092  18.642  0.00  0.00    +0.000 C 
BRANCH   9  10
ATOM     10  C   UNL     1      -2.114  11.141  18.288  0.00  0.00    +0.000 C 
BRANCH  10  11
ATOM     11  C   UNL     1      -3.012  10.525  17.220  0.00  0.00    +0.000 C 
BRANCH  11  12
ATOM     12  C   UNL     1      -2.703  11.071  15.841  0.00  0.00    +0.000 C 
ATOM     13  C   UNL     1      -2.972  10.002  14.801  0.00  0.00    +0.000 C 
ENDBRANCH  11  12
ENDBRANCH  10  11
ENDBRANCH   9  10
ENDBRANCH   8   9
ENDBRANCH   7   8
ENDBRANCH   2   3
ENDBRANCH   1   2
BRANCH   1  14
ATOM     14  O   UNL     1       1.703   5.156  18.940  0.00  0.00    +0.000 OA
BRANCH  14  15
ATOM     15  C   UNL     1       1.540   4.005  19.655  0.00  0.00    +0.000 C 
ATOM     16  O   UNL     1       0.568   3.758  20.355  0.00  0.00    +0.000 OA
BRANCH  15  17
ATOM     17  C   UNL     1       2.757   3.082  19.497  0.00  0.00    +0.000 C 
ATOM     18  C   UNL     1       2.535   2.197  18.274  0.00  0.00    +0.000 C 
BRANCH  17  19
ATOM     19  N   UNL     1       3.031   2.242  20.668  0.00  0.00    +0.000 N 
ATOM     20  C   UNL     1       4.284   1.742  20.920  0.00  0.00    +0.000 C 
ATOM     21  O   UNL     1       5.255   1.879  20.219  0.00  0.00    +0.000 OA
ATOM     22  H   UNL     1       2.262   2.049  21.305  0.00  0.00    +0.000 HD
ENDBRANCH  17  19
ENDBRANCH  15  17
ENDBRANCH  14  15
ENDBRANCH   1  14
BRANCH   1  23
ATOM     23  C   UNL     1       2.939   7.131  18.434  0.00  0.00    +0.000 C 
BRANCH  23  24
ATOM     24  C   UNL     1       4.272   6.792  17.771  0.00  0.00    +0.000 C 
BRANCH  24  25
ATOM     25  C   UNL     1       4.451   5.443  17.069  0.00  0.00    +0.000 C 
BRANCH  25  26
ATOM     26  C   UNL     1       5.126   5.732  15.710  0.00  0.00    +0.000 C 
BRANCH  26  27
ATOM     27  C   UNL     1       5.887   4.526  15.178  0.00  0.00    +0.000 C 
BRANCH  27  28
ATOM     28  C   UNL     1       6.334   4.709  13.727  0.00  0.00    +0.000 C 
BRANCH  28  29
ATOM     29  C   UNL     1       6.409   3.336  13.065  0.00  0.00    +0.000 C 
BRANCH  29  30
ATOM     30  C   UNL     1       5.698   3.289  11.719  0.00  0.00    +0.000 C 
BRANCH  30  31
ATOM     31  C   UNL     1       4.198   3.494  11.928  0.00  0.00    +0.000 C 
BRANCH  31  33
ATOM     32  C   UNL     1       3.098   4.175   9.787  0.00  0.00    +0.000 C 
ATOM     33  C   UNL     1       3.389   3.018  10.728  0.00  0.00    +0.000 C 
ENDBRANCH  31  33
ENDBRANCH  30  31
ENDBRANCH  29  30
ENDBRANCH  28  29
ENDBRANCH  27  28
ENDBRANCH  26  27
ENDBRANCH  25  26
ENDBRANCH  24  25
ENDBRANCH  23  24
ENDBRANCH   1  23
TORSDOF 21
ENDMDL
MODEL 6
REMARK VINA RESULT:      -6.3      1.181      2.009
REMARK  Name = 
REMARK  24 active torsions:
REMARK  status: ('A' for Active; 'I' for Inactive)
REMARK    1  A    between atoms: C_1  and  C_2
REMARK    2  A    between atoms: C_2  and  C_3
REMARK    3  A    between atoms: C_3  and  C_4
REMARK    4  A    between atoms: C_4  and  C_5
REMARK    5  A    between atoms: C_5  and  C_6
REMARK    6  A    between atoms: C_6  and  C_7
REMARK    7  A    between atoms: C_7  and  C_8
REMARK    8  A    between atoms: C_8  and  C_9
REMARK    9  A    between atoms: C_9  and  C_10
REMARK   10  A    between atoms: C_10  and  C_11
REMARK   11  A    between atoms: C_11  and  C_12
REMARK   12  A    between atoms: C_12  and  C_13
REMARK   13  A    between atoms: C_12  and  O_25
REMARK   14  A    between atoms: C_13  and  C_14
REMARK   15  A    between atoms: C_18  and  C_19
REMARK   16  A    between atoms: C_19  and  C_20
REMARK   17  A    between atoms: C_20  and  C_21
REMARK   18  A    between atoms: C_21  and  C_22
REMARK   19  A    between atoms: C_22  and  C_23
REMARK   20  A    between atoms: C_23  and  C_24
REMARK   21  A    between atoms: O_25  and  C_26
REMARK   22  A    between atoms: C_26  and  C_28
REMARK   23  A    between atoms: C_28  and  C_29
REMARK   24  A    between atoms: C_28  and  N_30
REMARK                            x       y       z     vdW  Elec       q    Type
REMARK                         _______ _______ _______ _____ _____    ______ ____
ROOT
ATOM      1  C   UNL     1       3.446   5.570  17.822  0.00  0.00    +0.000 C 
ENDROOT
BRANCH   1   2
ATOM      2  C   UNL     1       4.463   4.715  18.619  0.00  0.00    +0.000 C 
BRANCH   2   3
ATOM      3  C   UNL     1       5.933   4.833  18.120  0.00  0.00    +0.000 C 
ATOM      4  O   UNL     1       6.573   6.054  18.623  0.00  0.00    +0.000 OA
ATOM      5  C   UNL     1       6.810   6.537  17.376  0.00  0.00    +0.000 C 
ATOM      6  O   UNL     1       7.359   7.573  17.082  0.00  0.00    +0.000 OA
ATOM      7  C   UNL     1       6.152   5.344  16.658  0.00  0.00    +0.000 C 
BRANCH   7   8
ATOM      8  C   UNL     1       7.047   4.642  15.631  0.00  0.00    +0.000 C 
BRANCH   8   9
ATOM      9  C   UNL     1       6.387   4.778  14.273  0.00  0.00    +0.000 C 
BRANCH   9  10
ATOM     10  C   UNL     1       5.944   3.458  13.664  0.00  0.00    +0.000 C 
BRANCH  10  11
ATOM     11  C   UNL     1       4.775   3.773  12.738  0.00  0.00    +0.000 C 
BRANCH  11  12
ATOM     12  C   UNL     1       4.893   3.046  11.414  0.00  0.00    +0.000 C 
ATOM     13  C   UNL     1       5.976   1.989  11.510  0.00  0.00    +0.000 C 
ENDBRANCH  11  12
ENDBRANCH  10  11
ENDBRANCH   9  10
ENDBRANCH   8   9
ENDBRANCH   7   8
ENDBRANCH   2   3
ENDBRANCH   1   2
BRANCH   1  14
ATOM     14  O   UNL     1       2.141   4.989  18.110  0.00  0.00    +0.000 OA
BRANCH  14  15
ATOM     15  C   UNL     1       2.012   3.637  17.979  0.00  0.00    +0.000 C 
ATOM     16  O   UNL     1       2.393   2.996  17.008  0.00  0.00    +0.000 OA
BRANCH  15  17
ATOM     17  C   UNL     1       1.288   3.033  19.192  0.00  0.00    +0.000 C 
ATOM     18  C   UNL     1       0.739   4.174  20.042  0.00  0.00    +0.000 C 
BRANCH  17  19
ATOM     19  N   UNL     1       2.129   2.162  20.022  0.00  0.00    +0.000 N 
ATOM     20  C   UNL     1       2.691   2.605  21.193  0.00  0.00    +0.000 C 
ATOM     21  O   UNL     1       2.612   3.723  21.637  0.00  0.00    +0.000 OA
ATOM     22  H   UNL     1       2.275   1.205  19.710  0.00  0.00    +0.000 HD
ENDBRANCH  17  19
ENDBRANCH  15  17
ENDBRANCH  14  15
ENDBRANCH   1  14
BRANCH   1  23
ATOM     23  C   UNL     1       3.329   7.052  18.255  0.00  0.00    +0.000 C 
BRANCH  23  24
ATOM     24  C   UNL     1       2.511   8.034  17.422  0.00  0.00    +0.000 C 
BRANCH  24  25
ATOM     25  C   UNL     1       2.031   9.347  18.048  0.00  0.00    +0.000 C 
BRANCH  25  26
ATOM     26  C   UNL     1       1.396   8.989  19.409  0.00  0.00    +0.000 C 
BRANCH  26  27
ATOM     27  C   UNL     1       0.405  10.044  19.878  0.00  0.00    +0.000 C 
BRANCH  27  28
ATOM     28  C   UNL     1       0.054  11.048  18.779  0.00  0.00    +0.000 C 
BRANCH  28  29
ATOM     29  C   UNL     1      -1.416  10.870  18.410  0.00  0.00    +0.000 C 
BRANCH  29  30
ATOM     30  C   UNL     1      -1.645   9.739  17.415  0.00  0.00    +0.000 C 
BRANCH  30  31
ATOM     31  C   UNL     1      -3.018   9.903  16.765  0.00  0.00    +0.000 C 
BRANCH  31  33
ATOM     32  C   UNL     1      -3.174  10.063  14.273  0.00  0.00    +0.000 C 
ATOM     33  C   UNL     1      -2.967  10.838  15.563  0.00  0.00    +0.000 C 
ENDBRANCH  31  33
ENDBRANCH  30  31
ENDBRANCH  29  30
ENDBRANCH  28  29
ENDBRANCH  27  28
ENDBRANCH  26  27
ENDBRANCH  25  26
ENDBRANCH  24  25
ENDBRANCH  23  24
ENDBRANCH   1  23
TORSDOF 21
ENDMDL
MODEL 7
REMARK VINA RESULT:      -6.3      1.489      2.449
REMARK  Name = 
REMARK  24 active torsions:
REMARK  status: ('A' for Active; 'I' for Inactive)
REMARK    1  A    between atoms: C_1  and  C_2
REMARK    2  A    between atoms: C_2  and  C_3
REMARK    3  A    between atoms: C_3  and  C_4
REMARK    4  A    between atoms: C_4  and  C_5
REMARK    5  A    between atoms: C_5  and  C_6
REMARK    6  A    between atoms: C_6  and  C_7
REMARK    7  A    between atoms: C_7  and  C_8
REMARK    8  A    between atoms: C_8  and  C_9
REMARK    9  A    between atoms: C_9  and  C_10
REMARK   10  A    between atoms: C_10  and  C_11
REMARK   11  A    between atoms: C_11  and  C_12
REMARK   12  A    between atoms: C_12  and  C_13
REMARK   13  A    between atoms: C_12  and  O_25
REMARK   14  A    between atoms: C_13  and  C_14
REMARK   15  A    between atoms: C_18  and  C_19
REMARK   16  A    between atoms: C_19  and  C_20
REMARK   17  A    between atoms: C_20  and  C_21
REMARK   18  A    between atoms: C_21  and  C_22
REMARK   19  A    between atoms: C_22  and  C_23
REMARK   20  A    between atoms: C_23  and  C_24
REMARK   21  A    between atoms: O_25  and  C_26
REMARK   22  A    between atoms: C_26  and  C_28
REMARK   23  A    between atoms: C_28  and  C_29
REMARK   24  A    between atoms: C_28  and  N_30
REMARK                            x       y       z     vdW  Elec       q    Type
REMARK                         _______ _______ _______ _____ _____    ______ ____
ROOT
ATOM      1  C   UNL     1       2.805   5.985  18.461  0.00  0.00    +0.000 C 
ENDROOT
BRANCH   1   2
ATOM      2  C   UNL     1       4.058   5.980  19.372  0.00  0.00    +0.000 C 
BRANCH   2   3
ATOM      3  C   UNL     1       5.180   5.001  18.919  0.00  0.00    +0.000 C 
ATOM      4  O   UNL     1       6.254   4.920  19.915  0.00  0.00    +0.000 OA
ATOM      5  C   UNL     1       7.200   5.358  19.045  0.00  0.00    +0.000 C 
ATOM      6  O   UNL     1       8.379   5.512  19.260  0.00  0.00    +0.000 OA
ATOM      7  C   UNL     1       6.215   5.535  17.875  0.00  0.00    +0.000 C 
BRANCH   7   8
ATOM      8  C   UNL     1       6.601   4.789  16.594  0.00  0.00    +0.000 C 
BRANCH   8   9
ATOM      9  C   UNL     1       5.334   4.204  16.000  0.00  0.00    +0.000 C 
BRANCH   9  10
ATOM     10  C   UNL     1       5.196   4.419  14.502  0.00  0.00    +0.000 C 
BRANCH  10  11
ATOM     11  C   UNL     1       6.573   4.175  13.895  0.00  0.00    +0.000 C 
BRANCH  11  12
ATOM     12  C   UNL     1       6.480   3.602  12.496  0.00  0.00    +0.000 C 
ATOM     13  C   UNL     1       5.029   3.321  12.158  0.00  0.00    +0.000 C 
ENDBRANCH  11  12
ENDBRANCH  10  11
ENDBRANCH   9  10
ENDBRANCH   8   9
ENDBRANCH   7   8
ENDBRANCH   2   3
ENDBRANCH   1   2
BRANCH   1  14
ATOM     14  O   UNL     1       1.849   5.095  19.109  0.00  0.00    +0.000 OA
BRANCH  14  15
ATOM     15  C   UNL     1       1.376   4.044  18.380  0.00  0.00    +0.000 C 
ATOM     16  O   UNL     1       1.172   4.073  17.174  0.00  0.00    +0.000 OA
BRANCH  15  17
ATOM     17  C   UNL     1       1.091   2.833  19.282  0.00  0.00    +0.000 C 
ATOM     18  C   UNL     1       1.595   3.149  20.686  0.00  0.00    +0.000 C 
BRANCH  17  19
ATOM     19  N   UNL     1       1.695   1.580  18.814  0.00  0.00    +0.000 N 
ATOM     20  C   UNL     1       3.038   1.481  18.548  0.00  0.00    +0.000 C 
ATOM     21  O   UNL     1       3.840   2.379  18.613  0.00  0.00    +0.000 OA
ATOM     22  H   UNL     1       1.088   0.771  18.703  0.00  0.00    +0.000 HD
ENDBRANCH  17  19
ENDBRANCH  15  17
ENDBRANCH  14  15
ENDBRANCH   1  14
BRANCH   1  23
ATOM     23  C   UNL     1       2.068   7.341  18.336  0.00  0.00    +0.000 C 
BRANCH  23  24
ATOM     24  C   UNL     1       1.944   8.263  19.545  0.00  0.00    +0.000 C 
BRANCH  24  25
ATOM     25  C   UNL     1       1.277   7.753  20.826  0.00  0.00    +0.000 C 
BRANCH  25  26
ATOM     26  C   UNL     1       1.302   8.919  21.839  0.00  0.00    +0.000 C 
BRANCH  26  27
ATOM     27  C   UNL     1       0.972  10.254  21.188  0.00  0.00    +0.000 C 
BRANCH  27  28
ATOM     28  C   UNL     1      -0.493  10.651  21.376  0.00  0.00    +0.000 C 
BRANCH  28  29
ATOM     29  C   UNL     1      -0.989  11.302  20.088  0.00  0.00    +0.000 C 
BRANCH  29  30
ATOM     30  C   UNL     1      -1.246  10.293  18.976  0.00  0.00    +0.000 C 
BRANCH  30  31
ATOM     31  C   UNL     1      -1.348  11.026  17.639  0.00  0.00    +0.000 C 
BRANCH  31  33
ATOM     32  C   UNL     1      -2.752   9.707  16.042  0.00  0.00    +0.000 C 
ATOM     33  C   UNL     1      -2.729  10.875  17.014  0.00  0.00    +0.000 C 
ENDBRANCH  31  33
ENDBRANCH  30  31
ENDBRANCH  29  30
ENDBRANCH  28  29
ENDBRANCH  27  28
ENDBRANCH  26  27
ENDBRANCH  25  26
ENDBRANCH  24  25
ENDBRANCH  23  24
ENDBRANCH   1  23
TORSDOF 21
ENDMDL
MODEL 8
REMARK VINA RESULT:      -6.2      2.300      3.521
REMARK  Name = 
REMARK  24 active torsions:
REMARK  status: ('A' for Active; 'I' for Inactive)
REMARK    1  A    between atoms: C_1  and  C_2
REMARK    2  A    between atoms: C_2  and  C_3
REMARK    3  A    between atoms: C_3  and  C_4
REMARK    4  A    between atoms: C_4  and  C_5
REMARK    5  A    between atoms: C_5  and  C_6
REMARK    6  A    between atoms: C_6  and  C_7
REMARK    7  A    between atoms: C_7  and  C_8
REMARK    8  A    between atoms: C_8  and  C_9
REMARK    9  A    between atoms: C_9  and  C_10
REMARK   10  A    between atoms: C_10  and  C_11
REMARK   11  A    between atoms: C_11  and  C_12
REMARK   12  A    between atoms: C_12  and  C_13
REMARK   13  A    between atoms: C_12  and  O_25
REMARK   14  A    between atoms: C_13  and  C_14
REMARK   15  A    between atoms: C_18  and  C_19
REMARK   16  A    between atoms: C_19  and  C_20
REMARK   17  A    between atoms: C_20  and  C_21
REMARK   18  A    between atoms: C_21  and  C_22
REMARK   19  A    between atoms: C_22  and  C_23
REMARK   20  A    between atoms: C_23  and  C_24
REMARK   21  A    between atoms: O_25  and  C_26
REMARK   22  A    between atoms: C_26  and  C_28
REMARK   23  A    between atoms: C_28  and  C_29
REMARK   24  A    between atoms: C_28  and  N_30
REMARK                            x       y       z     vdW  Elec       q    Type
REMARK                         _______ _______ _______ _____ _____    ______ ____
ROOT
ATOM      1  C   UNL     1       2.943   6.049  18.382  0.00  0.00    +0.000 C 
ENDROOT
BRANCH   1   2
ATOM      2  C   UNL     1       4.350   5.644  18.889  0.00  0.00    +0.000 C 
BRANCH   2   3
ATOM      3  C   UNL     1       5.496   5.876  17.861  0.00  0.00    +0.000 C 
ATOM      4  O   UNL     1       5.346   7.163  17.173  0.00  0.00    +0.000 OA
ATOM      5  C   UNL     1       5.259   6.586  15.946  0.00  0.00    +0.000 C 
ATOM      6  O   UNL     1       5.129   7.143  14.882  0.00  0.00    +0.000 OA
ATOM      7  C   UNL     1       5.376   5.147  16.482  0.00  0.00    +0.000 C 
BRANCH   7   8
ATOM      8  C   UNL     1       6.499   4.318  15.851  0.00  0.00    +0.000 C 
BRANCH   8   9
ATOM      9  C   UNL     1       5.864   3.340  14.883  0.00  0.00    +0.000 C 
BRANCH   9  10
ATOM     10  C   UNL     1       5.368   3.977  13.595  0.00  0.00    +0.000 C 
BRANCH  10  11
ATOM     11  C   UNL     1       6.251   3.443  12.473  0.00  0.00    +0.000 C 
BRANCH  11  12
ATOM     12  C   UNL     1       5.465   2.605  11.486  0.00  0.00    +0.000 C 
ATOM     13  C   UNL     1       6.117   1.243  11.344  0.00  0.00    +0.000 C 
ENDBRANCH  11  12
ENDBRANCH  10  11
ENDBRANCH   9  10
ENDBRANCH   8   9
ENDBRANCH   7   8
ENDBRANCH   2   3
ENDBRANCH   1   2
BRANCH   1  14
ATOM     14  O   UNL     1       2.046   5.000  18.851  0.00  0.00    +0.000 OA
BRANCH  14  15
ATOM     15  C   UNL     1       2.174   3.765  18.287  0.00  0.00    +0.000 C 
ATOM     16  O   UNL     1       1.935   3.511  17.114  0.00  0.00    +0.000 OA
BRANCH  15  17
ATOM     17  C   UNL     1       2.616   2.727  19.329  0.00  0.00    +0.000 C 
ATOM     18  C   UNL     1       3.211   1.530  18.594  0.00  0.00    +0.000 C 
BRANCH  17  19
ATOM     19  N   UNL     1       1.542   2.273  20.219  0.00  0.00    +0.000 N 
ATOM     20  C   UNL     1       1.570   2.521  21.569  0.00  0.00    +0.000 C 
ATOM     21  O   UNL     1       2.461   3.069  22.169  0.00  0.00    +0.000 OA
ATOM     22  H   UNL     1       0.758   1.775  19.803  0.00  0.00    +0.000 HD
ENDBRANCH  17  19
ENDBRANCH  15  17
ENDBRANCH  14  15
ENDBRANCH   1  14
BRANCH   1  23
ATOM     23  C   UNL     1       2.368   7.360  18.970  0.00  0.00    +0.000 C 
BRANCH  23  24
ATOM     24  C   UNL     1       2.219   8.598  18.090  0.00  0.00    +0.000 C 
BRANCH  24  25
ATOM     25  C   UNL     1       1.037   9.548  18.307  0.00  0.00    +0.000 C 
BRANCH  25  26
ATOM     26  C   UNL     1       0.760   9.580  19.826  0.00  0.00    +0.000 C 
BRANCH  26  27
ATOM     27  C   UNL     1       0.437  10.981  20.323  0.00  0.00    +0.000 C 
BRANCH  27  28
ATOM     28  C   UNL     1       0.480  12.024  19.206  0.00  0.00    +0.000 C 
BRANCH  28  29
ATOM     29  C   UNL     1       0.249  13.402  19.818  0.00  0.00    +0.000 C 
BRANCH  29  30
ATOM     30  C   UNL     1       1.070  13.636  21.079  0.00  0.00    +0.000 C 
BRANCH  30  31
ATOM     31  C   UNL     1       0.212  14.357  22.118  0.00  0.00    +0.000 C 
BRANCH  31  33
ATOM     32  C   UNL     1      -1.676  14.178  23.750  0.00  0.00    +0.000 C 
ATOM     33  C   UNL     1      -0.837  13.434  22.725  0.00  0.00    +0.000 C 
ENDBRANCH  31  33
ENDBRANCH  30  31
ENDBRANCH  29  30
ENDBRANCH  28  29
ENDBRANCH  27  28
ENDBRANCH  26  27
ENDBRANCH  25  26
ENDBRANCH  24  25
ENDBRANCH  23  24
ENDBRANCH   1  23
TORSDOF 21
ENDMDL
MODEL 9
REMARK VINA RESULT:      -6.2      3.028      5.216
REMARK  Name = 
REMARK  24 active torsions:
REMARK  status: ('A' for Active; 'I' for Inactive)
REMARK    1  A    between atoms: C_1  and  C_2
REMARK    2  A    between atoms: C_2  and  C_3
REMARK    3  A    between atoms: C_3  and  C_4
REMARK    4  A    between atoms: C_4  and  C_5
REMARK    5  A    between atoms: C_5  and  C_6
REMARK    6  A    between atoms: C_6  and  C_7
REMARK    7  A    between atoms: C_7  and  C_8
REMARK    8  A    between atoms: C_8  and  C_9
REMARK    9  A    between atoms: C_9  and  C_10
REMARK   10  A    between atoms: C_10  and  C_11
REMARK   11  A    between atoms: C_11  and  C_12
REMARK   12  A    between atoms: C_12  and  C_13
REMARK   13  A    between atoms: C_12  and  O_25
REMARK   14  A    between atoms: C_13  and  C_14
REMARK   15  A    between atoms: C_18  and  C_19
REMARK   16  A    between atoms: C_19  and  C_20
REMARK   17  A    between atoms: C_20  and  C_21
REMARK   18  A    between atoms: C_21  and  C_22
REMARK   19  A    between atoms: C_22  and  C_23
REMARK   20  A    between atoms: C_23  and  C_24
REMARK   21  A    between atoms: O_25  and  C_26
REMARK   22  A    between atoms: C_26  and  C_28
REMARK   23  A    between atoms: C_28  and  C_29
REMARK   24  A    between atoms: C_28  and  N_30
REMARK                            x       y       z     vdW  Elec       q    Type
REMARK                         _______ _______ _______ _____ _____    ______ ____
ROOT
ATOM      1  C   UNL     1       5.547   3.608  16.418  0.00  0.00    +0.000 C 
ENDROOT
BRANCH   1   2
ATOM      2  C   UNL     1       5.746   4.588  15.236  0.00  0.00    +0.000 C 
BRANCH   2   3
ATOM      3  C   UNL     1       6.889   4.192  14.256  0.00  0.00    +0.000 C 
ATOM      4  O   UNL     1       7.889   5.258  14.140  0.00  0.00    +0.000 OA
ATOM      5  C   UNL     1       7.694   5.404  12.804  0.00  0.00    +0.000 C 
ATOM      6  O   UNL     1       8.260   6.167  12.058  0.00  0.00    +0.000 OA
ATOM      7  C   UNL     1       6.597   4.326  12.725  0.00  0.00    +0.000 C 
BRANCH   7   8
ATOM      8  C   UNL     1       6.861   3.216  11.703  0.00  0.00    +0.000 C 
BRANCH   8   9
ATOM      9  C   UNL     1       5.552   2.490  11.460  0.00  0.00    +0.000 C 
BRANCH   9  10
ATOM     10  C   UNL     1       4.318   3.298  11.829  0.00  0.00    +0.000 C 
BRANCH  10  11
ATOM     11  C   UNL     1       3.324   3.125  10.687  0.00  0.00    +0.000 C 
BRANCH  11  12
ATOM     12  C   UNL     1       3.523   4.165   9.603  0.00  0.00    +0.000 C 
ATOM     13  C   UNL     1       2.184   4.772   9.230  0.00  0.00    +0.000 C 
ENDBRANCH  11  12
ENDBRANCH  10  11
ENDBRANCH   9  10
ENDBRANCH   8   9
ENDBRANCH   7   8
ENDBRANCH   2   3
ENDBRANCH   1   2
BRANCH   1  14
ATOM     14  O   UNL     1       6.578   3.955  17.388  0.00  0.00    +0.000 OA
BRANCH  14  15
ATOM     15  C   UNL     1       6.270   4.902  18.321  0.00  0.00    +0.000 C 
ATOM     16  O   UNL     1       6.019   4.662  19.494  0.00  0.00    +0.000 OA
BRANCH  15  17
ATOM     17  C   UNL     1       6.238   6.303  17.693  0.00  0.00    +0.000 C 
ATOM     18  C   UNL     1       7.510   7.042  18.099  0.00  0.00    +0.000 C 
BRANCH  17  19
ATOM     19  N   UNL     1       5.066   7.103  18.065  0.00  0.00    +0.000 N 
ATOM     20  C   UNL     1       4.179   7.564  17.124  0.00  0.00    +0.000 C 
ATOM     21  O   UNL     1       4.276   7.422  15.931  0.00  0.00    +0.000 OA
ATOM     22  H   UNL     1       4.916   7.298  19.052  0.00  0.00    +0.000 HD
ENDBRANCH  17  19
ENDBRANCH  15  17
ENDBRANCH  14  15
ENDBRANCH   1  14
BRANCH   1  23
ATOM     23  C   UNL     1       4.211   3.745  17.189  0.00  0.00    +0.000 C 
BRANCH  23  24
ATOM     24  C   UNL     1       3.287   2.541  17.348  0.00  0.00    +0.000 C 
BRANCH  24  25
ATOM     25  C   UNL     1       3.245   1.785  18.680  0.00  0.00    +0.000 C 
BRANCH  25  26
ATOM     26  C   UNL     1       1.841   2.016  19.281  0.00  0.00    +0.000 C 
BRANCH  26  27
ATOM     27  C   UNL     1       1.891   2.836  20.562  0.00  0.00    +0.000 C 
BRANCH  27  28
ATOM     28  C   UNL     1       0.899   4.000  20.551  0.00  0.00    +0.000 C 
BRANCH  28  29
ATOM     29  C   UNL     1       1.481   5.128  19.704  0.00  0.00    +0.000 C 
BRANCH  29  30
ATOM     30  C   UNL     1       2.318   6.107  20.517  0.00  0.00    +0.000 C 
BRANCH  30  31
ATOM     31  C   UNL     1       1.920   7.538  20.156  0.00  0.00    +0.000 C 
BRANCH  31  33
ATOM     32  C   UNL     1      -0.040   8.561  21.327  0.00  0.00    +0.000 C 
ATOM     33  C   UNL     1       1.459   8.323  21.378  0.00  0.00    +0.000 C 
ENDBRANCH  31  33
ENDBRANCH  30  31
ENDBRANCH  29  30
ENDBRANCH  28  29
ENDBRANCH  27  28
ENDBRANCH  26  27
ENDBRANCH  25  26
ENDBRANCH  24  25
ENDBRANCH  23  24
ENDBRANCH   1  23
TORSDOF 21
ENDMDL
