MODEL 1
REMARK VINA RESULT:      -7.6      0.000      0.000
REMARK  Name = 
REMARK  16 active torsions:
REMARK  status: ('A' for Active; 'I' for Inactive)
REMARK    1  A    between atoms: C_1  and  C_2
REMARK    2  A    between atoms: C_2  and  C_3
REMARK    3  A    between atoms: C_2  and  C_16
REMARK    4  A    between atoms: C_3  and  C_4
REMARK    5  A    between atoms: C_4  and  C_5
REMARK    6  A    between atoms: N_7  and  CA_8
REMARK    7  A    between atoms: CA_8  and  CB_9
REMARK    8  A    between atoms: CA_8  and  C_13
REMARK    9  A    between atoms: CB_9  and  CG_10
REMARK   10  A    between atoms: CG_10  and  OD2_12
REMARK   11  A    between atoms: C_13  and  OXT_15
REMARK   12  A    between atoms: C_16  and  C_17
REMARK   13  A    between atoms: C_20  and  C_21
REMARK   14  A    between atoms: C_21  and  O_23
REMARK   15  A    between atoms: O_23  and  C_24
REMARK   16  A    between atoms: C_27  and  C_28
REMARK                            x       y       z     vdW  Elec       q    Type
REMARK                         _______ _______ _______ _____ _____    ______ ____
ROOT
ATOM      1  C   UNK A   0       2.181   6.591  20.240  0.00  0.00    +0.000 A 
ATOM      2  C   UNK A   0       2.733   6.925  19.020  0.00  0.00    +0.000 A 
ATOM      3  C   UNK A   0       2.274   8.189  18.547  0.00  0.00    +0.000 A 
ATOM      4  C   UNK A   0       1.375   8.786  19.412  0.00  0.00    +0.000 A 
ATOM      5  S   UNK A   0       1.139   7.825  20.810  0.00  0.00    +0.000 S 
ENDROOT
BRANCH   4   6
ATOM      6  C   UNK A   0       0.614  10.014  19.246  0.00  0.00    +0.000 C 
ATOM      7  O   UNK A   0      -0.122  10.302  18.308  0.00  0.00    +0.000 OA
BRANCH   6   8
ATOM      8  O   UNK A   0       0.893  10.870  20.311  0.00  0.00    +0.000 OA
BRANCH   8   9
ATOM      9  C   UNK A   0      -0.209  11.299  21.070  0.00  0.00    +0.000 A 
ATOM     10  C   UNK A   0      -0.425  10.679  22.301  0.00  0.00    +0.000 A 
ATOM     11  C   UNK A   0      -1.416  11.174  23.157  0.00  0.00    +0.000 A 
ATOM     12  C   UNK A   0      -2.172  12.294  22.788  0.00  0.00    +0.000 A 
ATOM     13  C   UNK A   0      -1.946  12.904  21.547  0.00  0.00    +0.000 A 
ATOM     14  C   UNK A   0      -0.959  12.414  20.691  0.00  0.00    +0.000 A 
BRANCH  12  15
ATOM     15  C   UNK A   0      -3.203  12.855  23.707  0.00  0.00    +0.000 C 
ATOM     16  N   UNK A   0      -3.228  14.104  24.053  0.00  0.00    +0.000 NA
ATOM     17  N   UNK A   0      -4.187  12.064  24.221  0.00  0.00    +0.000 N 
ATOM     18  H   UNK A   0      -2.430  14.611  23.660  0.00  0.00    +0.000 HD
ATOM     19  H   UNK A   0      -4.539  11.336  23.612  0.00  0.00    +0.000 HD
ATOM     20  H   UNK A   0      -4.927  12.627  24.633  0.00  0.00    +0.000 HD
ENDBRANCH  12  15
ENDBRANCH   8   9
ENDBRANCH   6   8
ENDBRANCH   4   6
BRANCH   1  21
ATOM     21  C   UNK A   0       2.380   5.334  21.048  0.00  0.00    +0.000 C 
BRANCH  21  23
ATOM     22  C   UNK A   0       2.802   2.836  21.070  0.00  0.00    +0.000 C 
ATOM     23  C   UNK A   0       2.517   4.063  20.186  0.00  0.00    +0.000 C 
BRANCH  23  24
ATOM     24  C   UNK A   0       1.238   3.777  19.372  0.00  0.00    +0.000 C 
BRANCH  24  25
ATOM     25  C   UNK A   0       1.393   3.721  17.846  0.00  0.00    +0.000 C 
BRANCH  25  26
ATOM     26  C   UNK A   0       2.837   3.398  17.485  0.00  0.00    +0.000 C 
ATOM     27  O   UNK A   0       3.324   2.276  17.581  0.00  0.00    +0.000 OA
ATOM     28  N   ASP A   1       3.562   4.451  16.992  0.00  0.00    +0.000 N 
ATOM     29  H   ASP A   1       3.199   5.400  17.029  0.00  0.00    +0.000 HD
BRANCH  28  30
ATOM     30  CA  ASP A   1       4.970   4.284  16.592  0.00  0.00    +0.000 C 
BRANCH  30  31
ATOM     31  C   ASP A   1       5.820   4.747  17.775  0.00  0.00    +0.000 C 
ATOM     32  O   ASP A   1       6.055   5.930  18.002  0.00  0.00    +0.000 OA
BRANCH  31  33
ATOM     33  OXT ASP A   1       6.290   3.755  18.562  0.00  0.00    +0.000 OA
ATOM     34  HXT ASP A   1       6.508   4.042  19.482  0.00  0.00    +0.000 HD
ENDBRANCH  31  33
ENDBRANCH  30  31
BRANCH  30  35
ATOM     35  CB  ASP A   1       5.274   5.097  15.334  0.00  0.00    +0.000 C 
BRANCH  35  36
ATOM     36  CG  ASP A   1       6.535   4.618  14.676  0.00  0.00    +0.000 C 
ATOM     37  OD1 ASP A   1       7.590   5.245  14.681  0.00  0.00    +0.000 OA
BRANCH  36  38
ATOM     38  OD2 ASP A   1       6.398   3.422  14.069  0.00  0.00    +0.000 OA
ATOM     39  HD2 ASP A   1       7.224   2.897  14.005  0.00  0.00    +0.000 HD
ENDBRANCH  36  38
ENDBRANCH  35  36
ENDBRANCH  30  35
ENDBRANCH  28  30
ENDBRANCH  25  26
ENDBRANCH  24  25
ENDBRANCH  23  24
ENDBRANCH  21  23
ENDBRANCH   1  21
TORSDOF 15
ENDMDL
MODEL 2
REMARK VINA RESULT:      -7.4      2.626      3.154
REMARK  Name = 
REMARK  16 active torsions:
REMARK  status: ('A' for Active; 'I' for Inactive)
REMARK    1  A    between atoms: C_1  and  C_2
REMARK    2  A    between atoms: C_2  and  C_3
REMARK    3  A    between atoms: C_2  and  C_16
REMARK    4  A    between atoms: C_3  and  C_4
REMARK    5  A    between atoms: C_4  and  C_5
REMARK    6  A    between atoms: N_7  and  CA_8
REMARK    7  A    between atoms: CA_8  and  CB_9
REMARK    8  A    between atoms: CA_8  and  C_13
REMARK    9  A    between atoms: CB_9  and  CG_10
REMARK   10  A    between atoms: CG_10  and  OD2_12
REMARK   11  A    between atoms: C_13  and  OXT_15
REMARK   12  A    between atoms: C_16  and  C_17
REMARK   13  A    between atoms: C_20  and  C_21
REMARK   14  A    between atoms: C_21  and  O_23
REMARK   15  A    between atoms: O_23  and  C_24
REMARK   16  A    between atoms: C_27  and  C_28
REMARK                            x       y       z     vdW  Elec       q    Type
REMARK                         _______ _______ _______ _____ _____    ______ ____
ROOT
ATOM      1  C   UNK A   0       2.750   6.906  19.420  0.00  0.00    +0.000 A 
ATOM      2  C   UNK A   0       2.727   7.458  18.156  0.00  0.00    +0.000 A 
ATOM      3  C   UNK A   0       1.902   8.619  18.087  0.00  0.00    +0.000 A 
ATOM      4  C   UNK A   0       1.306   8.919  19.298  0.00  0.00    +0.000 A 
ATOM      5  S   UNK A   0       1.796   7.817  20.514  0.00  0.00    +0.000 S 
ENDROOT
BRANCH   4   6
ATOM      6  C   UNK A   0       0.329   9.949  19.613  0.00  0.00    +0.000 C 
ATOM      7  O   UNK A   0      -0.058  10.281  20.729  0.00  0.00    +0.000 OA
BRANCH   6   8
ATOM      8  O   UNK A   0      -0.165  10.487  18.424  0.00  0.00    +0.000 OA
BRANCH   8   9
ATOM      9  C   UNK A   0      -1.561  10.608  18.328  0.00  0.00    +0.000 A 
ATOM     10  C   UNK A   0      -2.169  11.648  19.033  0.00  0.00    +0.000 A 
ATOM     11  C   UNK A   0      -3.532  11.901  18.849  0.00  0.00    +0.000 A 
ATOM     12  C   UNK A   0      -4.279  11.127  17.950  0.00  0.00    +0.000 A 
ATOM     13  C   UNK A   0      -3.656  10.084  17.253  0.00  0.00    +0.000 A 
ATOM     14  C   UNK A   0      -2.296   9.828  17.433  0.00  0.00    +0.000 A 
BRANCH  12  15
ATOM     15  C   UNK A   0      -5.723  11.411  17.716  0.00  0.00    +0.000 C 
ATOM     16  N   UNK A   0      -6.669  10.816  18.374  0.00  0.00    +0.000 NA
ATOM     17  N   UNK A   0      -6.115  12.332  16.792  0.00  0.00    +0.000 N 
ATOM     18  H   UNK A   0      -6.288  10.111  19.012  0.00  0.00    +0.000 HD
ATOM     19  H   UNK A   0      -5.520  13.145  16.691  0.00  0.00    +0.000 HD
ATOM     20  H   UNK A   0      -7.096  12.572  16.912  0.00  0.00    +0.000 HD
ENDBRANCH  12  15
ENDBRANCH   8   9
ENDBRANCH   6   8
ENDBRANCH   4   6
BRANCH   1  21
ATOM     21  C   UNK A   0       3.466   5.666  19.891  0.00  0.00    +0.000 C 
BRANCH  21  23
ATOM     22  C   UNK A   0       1.912   4.116  21.158  0.00  0.00    +0.000 C 
ATOM     23  C   UNK A   0       2.604   4.390  19.811  0.00  0.00    +0.000 C 
BRANCH  23  24
ATOM     24  C   UNK A   0       1.511   4.500  18.728  0.00  0.00    +0.000 C 
BRANCH  24  25
ATOM     25  C   UNK A   0       1.857   3.939  17.341  0.00  0.00    +0.000 C 
BRANCH  25  26
ATOM     26  C   UNK A   0       3.272   3.374  17.352  0.00  0.00    +0.000 C 
ATOM     27  O   UNK A   0       3.549   2.250  17.759  0.00  0.00    +0.000 OA
ATOM     28  N   ASP A   1       4.231   4.198  16.824  0.00  0.00    +0.000 N 
ATOM     29  H   ASP A   1       4.023   5.169  16.603  0.00  0.00    +0.000 HD
BRANCH  28  30
ATOM     30  CA  ASP A   1       5.642   3.780  16.760  0.00  0.00    +0.000 C 
BRANCH  30  31
ATOM     31  C   ASP A   1       6.423   4.733  17.666  0.00  0.00    +0.000 C 
ATOM     32  O   ASP A   1       7.385   4.372  18.337  0.00  0.00    +0.000 OA
BRANCH  31  33
ATOM     33  OXT ASP A   1       5.980   6.008  17.670  0.00  0.00    +0.000 OA
ATOM     34  HXT ASP A   1       6.651   6.665  17.978  0.00  0.00    +0.000 HD
ENDBRANCH  31  33
ENDBRANCH  30  31
BRANCH  30  35
ATOM     35  CB  ASP A   1       6.155   3.832  15.321  0.00  0.00    +0.000 C 
BRANCH  35  36
ATOM     36  CG  ASP A   1       6.514   5.236  14.929  0.00  0.00    +0.000 C 
ATOM     37  OD1 ASP A   1       7.664   5.624  14.753  0.00  0.00    +0.000 OA
BRANCH  36  38
ATOM     38  OD2 ASP A   1       5.440   6.042  14.793  0.00  0.00    +0.000 OA
ATOM     39  HD2 ASP A   1       5.445   6.832  15.373  0.00  0.00    +0.000 HD
ENDBRANCH  36  38
ENDBRANCH  35  36
ENDBRANCH  30  35
ENDBRANCH  28  30
ENDBRANCH  25  26
ENDBRANCH  24  25
ENDBRANCH  23  24
ENDBRANCH  21  23
ENDBRANCH   1  21
TORSDOF 15
ENDMDL
MODEL 3
REMARK VINA RESULT:      -7.4      2.618      3.575
REMARK  Name = 
REMARK  16 active torsions:
REMARK  status: ('A' for Active; 'I' for Inactive)
REMARK    1  A    between atoms: C_1  and  C_2
REMARK    2  A    between atoms: C_2  and  C_3
REMARK    3  A    between atoms: C_2  and  C_16
REMARK    4  A    between atoms: C_3  and  C_4
REMARK    5  A    between atoms: C_4  and  C_5
REMARK    6  A    between atoms: N_7  and  CA_8
REMARK    7  A    between atoms: CA_8  and  CB_9
REMARK    8  A    between atoms: CA_8  and  C_13
REMARK    9  A    between atoms: CB_9  and  CG_10
REMARK   10  A    between atoms: CG_10  and  OD2_12
REMARK   11  A    between atoms: C_13  and  OXT_15
REMARK   12  A    between atoms: C_16  and  C_17
REMARK   13  A    between atoms: C_20  and  C_21
REMARK   14  A    between atoms: C_21  and  O_23
REMARK   15  A    between atoms: O_23  and  C_24
REMARK   16  A    between atoms: C_27  and  C_28
REMARK                            x       y       z     vdW  Elec       q    Type
REMARK                         _______ _______ _______ _____ _____    ______ ____
ROOT
ATOM      1  C   UNK A   0       2.502   5.906  19.975  0.00  0.00    +0.000 A 
ATOM      2  C   UNK A   0       1.801   6.567  20.963  0.00  0.00    +0.000 A 
ATOM      3  C   UNK A   0       1.367   7.859  20.547  0.00  0.00    +0.000 A 
ATOM      4  C   UNK A   0       1.756   8.160  19.254  0.00  0.00    +0.000 A 
ATOM      5  S   UNK A   0       2.601   6.848  18.547  0.00  0.00    +0.000 S 
ENDROOT
BRANCH   4   6
ATOM      6  C   UNK A   0       1.599   9.399  18.510  0.00  0.00    +0.000 C 
ATOM      7  O   UNK A   0       2.068   9.660  17.407  0.00  0.00    +0.000 OA
BRANCH   6   8
ATOM      8  O   UNK A   0       0.863  10.301  19.278  0.00  0.00    +0.000 OA
BRANCH   8   9
ATOM      9  C   UNK A   0      -0.467  10.516  18.882  0.00  0.00    +0.000 A 
ATOM     10  C   UNK A   0      -1.195  11.492  19.565  0.00  0.00    +0.000 A 
ATOM     11  C   UNK A   0      -2.470  11.846  19.109  0.00  0.00    +0.000 A 
ATOM     12  C   UNK A   0      -3.004  11.238  17.965  0.00  0.00    +0.000 A 
ATOM     13  C   UNK A   0      -2.264  10.258  17.292  0.00  0.00    +0.000 A 
ATOM     14  C   UNK A   0      -0.992   9.901  17.743  0.00  0.00    +0.000 A 
BRANCH  12  15
ATOM     15  C   UNK A   0      -4.344  11.634  17.447  0.00  0.00    +0.000 C 
ATOM     16  N   UNK A   0      -4.844  11.147  16.354  0.00  0.00    +0.000 NA
ATOM     17  N   UNK A   0      -5.117  12.534  18.118  0.00  0.00    +0.000 N 
ATOM     18  H   UNK A   0      -4.181  10.518  15.893  0.00  0.00    +0.000 HD
ATOM     19  H   UNK A   0      -5.067  12.499  19.129  0.00  0.00    +0.000 HD
ATOM     20  H   UNK A   0      -6.072  12.523  17.769  0.00  0.00    +0.000 HD
ENDBRANCH  12  15
ENDBRANCH   8   9
ENDBRANCH   6   8
ENDBRANCH   4   6
BRANCH   1  21
ATOM     21  C   UNK A   0       3.154   4.548  20.033  0.00  0.00    +0.000 C 
BRANCH  21  23
ATOM     22  C   UNK A   0       0.716   3.860  20.104  0.00  0.00    +0.000 C 
ATOM     23  C   UNK A   0       2.160   3.381  19.870  0.00  0.00    +0.000 C 
BRANCH  23  24
ATOM     24  C   UNK A   0       2.232   2.755  18.462  0.00  0.00    +0.000 C 
BRANCH  24  25
ATOM     25  C   UNK A   0       3.631   2.411  17.932  0.00  0.00    +0.000 C 
BRANCH  25  26
ATOM     26  C   UNK A   0       4.234   3.628  17.240  0.00  0.00    +0.000 C 
ATOM     27  O   UNK A   0       3.572   4.437  16.598  0.00  0.00    +0.000 OA
ATOM     28  N   ASP A   1       5.581   3.792  17.424  0.00  0.00    +0.000 N 
ATOM     29  H   ASP A   1       6.146   3.061  17.849  0.00  0.00    +0.000 HD
BRANCH  28  30
ATOM     30  CA  ASP A   1       6.297   4.930  16.822  0.00  0.00    +0.000 C 
BRANCH  30  31
ATOM     31  C   ASP A   1       6.786   4.465  15.450  0.00  0.00    +0.000 C 
ATOM     32  O   ASP A   1       6.319   3.487  14.875  0.00  0.00    +0.000 OA
BRANCH  31  33
ATOM     33  OXT ASP A   1       7.769   5.217  14.910  0.00  0.00    +0.000 OA
ATOM     34  HXT ASP A   1       7.484   5.749  14.128  0.00  0.00    +0.000 HD
ENDBRANCH  31  33
ENDBRANCH  30  31
BRANCH  30  35
ATOM     35  CB  ASP A   1       7.462   5.366  17.711  0.00  0.00    +0.000 C 
BRANCH  35  36
ATOM     36  CG  ASP A   1       7.551   6.864  17.783  0.00  0.00    +0.000 C 
ATOM     37  OD1 ASP A   1       8.261   7.469  18.580  0.00  0.00    +0.000 OA
BRANCH  36  38
ATOM     38  OD2 ASP A   1       6.763   7.488  16.883  0.00  0.00    +0.000 OA
ATOM     39  HD2 ASP A   1       7.026   7.356  15.948  0.00  0.00    +0.000 HD
ENDBRANCH  36  38
ENDBRANCH  35  36
ENDBRANCH  30  35
ENDBRANCH  28  30
ENDBRANCH  25  26
ENDBRANCH  24  25
ENDBRANCH  23  24
ENDBRANCH  21  23
ENDBRANCH   1  21
TORSDOF 15
ENDMDL
MODEL 4
REMARK VINA RESULT:      -7.4      3.886     11.361
REMARK  Name = 
REMARK  16 active torsions:
REMARK  status: ('A' for Active; 'I' for Inactive)
REMARK    1  A    between atoms: C_1  and  C_2
REMARK    2  A    between atoms: C_2  and  C_3
REMARK    3  A    between atoms: C_2  and  C_16
REMARK    4  A    between atoms: C_3  and  C_4
REMARK    5  A    between atoms: C_4  and  C_5
REMARK    6  A    between atoms: N_7  and  CA_8
REMARK    7  A    between atoms: CA_8  and  CB_9
REMARK    8  A    between atoms: CA_8  and  C_13
REMARK    9  A    between atoms: CB_9  and  CG_10
REMARK   10  A    between atoms: CG_10  and  OD2_12
REMARK   11  A    between atoms: C_13  and  OXT_15
REMARK   12  A    between atoms: C_16  and  C_17
REMARK   13  A    between atoms: C_20  and  C_21
REMARK   14  A    between atoms: C_21  and  O_23
REMARK   15  A    between atoms: O_23  and  C_24
REMARK   16  A    between atoms: C_27  and  C_28
REMARK                            x       y       z     vdW  Elec       q    Type
REMARK                         _______ _______ _______ _____ _____    ______ ____
ROOT
ATOM      1  C   UNK A   0       1.650   9.219  19.127  0.00  0.00    +0.000 A 
ATOM      2  C   UNK A   0       2.193   8.878  17.906  0.00  0.00    +0.000 A 
ATOM      3  C   UNK A   0       2.692   7.542  17.890  0.00  0.00    +0.000 A 
ATOM      4  C   UNK A   0       2.528   6.899  19.103  0.00  0.00    +0.000 A 
ATOM      5  S   UNK A   0       1.724   7.909  20.229  0.00  0.00    +0.000 S 
ENDROOT
BRANCH   4   6
ATOM      6  C   UNK A   0       2.989   5.584  19.518  0.00  0.00    +0.000 C 
ATOM      7  O   UNK A   0       2.291   4.619  19.814  0.00  0.00    +0.000 OA
BRANCH   6   8
ATOM      8  O   UNK A   0       4.382   5.591  19.588  0.00  0.00    +0.000 OA
BRANCH   8   9
ATOM      9  C   UNK A   0       5.067   5.284  18.401  0.00  0.00    +0.000 A 
ATOM     10  C   UNK A   0       4.528   4.288  17.584  0.00  0.00    +0.000 A 
ATOM     11  C   UNK A   0       5.088   4.053  16.323  0.00  0.00    +0.000 A 
ATOM     12  C   UNK A   0       6.170   4.825  15.877  0.00  0.00    +0.000 A 
ATOM     13  C   UNK A   0       6.702   5.818  16.709  0.00  0.00    +0.000 A 
ATOM     14  C   UNK A   0       6.147   6.056  17.967  0.00  0.00    +0.000 A 
BRANCH  12  15
ATOM     15  C   UNK A   0       6.750   4.611  14.520  0.00  0.00    +0.000 C 
ATOM     16  N   UNK A   0       7.635   5.406  14.004  0.00  0.00    +0.000 NA
ATOM     17  N   UNK A   0       6.375   3.546  13.759  0.00  0.00    +0.000 N 
ATOM     18  H   UNK A   0       7.822   6.201  14.623  0.00  0.00    +0.000 HD
ATOM     19  H   UNK A   0       6.182   2.686  14.257  0.00  0.00    +0.000 HD
ATOM     20  H   UNK A   0       7.015   3.414  12.978  0.00  0.00    +0.000 HD
ENDBRANCH  12  15
ENDBRANCH   8   9
ENDBRANCH   6   8
ENDBRANCH   4   6
BRANCH   1  21
ATOM     21  C   UNK A   0       1.057  10.537  19.556  0.00  0.00    +0.000 C 
BRANCH  21  23
ATOM     22  C   UNK A   0      -1.014  11.817  20.258  0.00  0.00    +0.000 C 
ATOM     23  C   UNK A   0      -0.484  10.541  19.581  0.00  0.00    +0.000 C 
BRANCH  23  24
ATOM     24  C   UNK A   0      -1.084  10.471  18.161  0.00  0.00    +0.000 C 
BRANCH  24  25
ATOM     25  C   UNK A   0      -1.998  11.631  17.742  0.00  0.00    +0.000 C 
BRANCH  25  26
ATOM     26  C   UNK A   0      -3.456  11.226  17.914  0.00  0.00    +0.000 C 
ATOM     27  O   UNK A   0      -3.896  10.128  17.591  0.00  0.00    +0.000 OA
ATOM     28  N   ASP A   1      -4.254  12.168  18.509  0.00  0.00    +0.000 N 
ATOM     29  H   ASP A   1      -3.920  13.117  18.662  0.00  0.00    +0.000 HD
BRANCH  28  30
ATOM     30  CA  ASP A   1      -5.684  11.911  18.749  0.00  0.00    +0.000 C 
BRANCH  30  31
ATOM     31  C   ASP A   1      -6.458  12.982  17.978  0.00  0.00    +0.000 C 
ATOM     32  O   ASP A   1      -6.421  14.171  18.277  0.00  0.00    +0.000 OA
BRANCH  31  33
ATOM     33  OXT ASP A   1      -7.183  12.522  16.936  0.00  0.00    +0.000 OA
ATOM     34  HXT ASP A   1      -7.726  13.216  16.488  0.00  0.00    +0.000 HD
ENDBRANCH  31  33
ENDBRANCH  30  31
BRANCH  30  35
ATOM     35  CB  ASP A   1      -5.999  11.962  20.244  0.00  0.00    +0.000 C 
BRANCH  35  36
ATOM     36  CG  ASP A   1      -7.171  11.084  20.577  0.00  0.00    +0.000 C 
ATOM     37  OD1 ASP A   1      -7.647  10.977  21.702  0.00  0.00    +0.000 OA
BRANCH  36  38
ATOM     38  OD2 ASP A   1      -7.652  10.413  19.511  0.00  0.00    +0.000 OA
ATOM     39  HD2 ASP A   1      -8.244   9.663  19.732  0.00  0.00    +0.000 HD
ENDBRANCH  36  38
ENDBRANCH  35  36
ENDBRANCH  30  35
ENDBRANCH  28  30
ENDBRANCH  25  26
ENDBRANCH  24  25
ENDBRANCH  23  24
ENDBRANCH  21  23
ENDBRANCH   1  21
TORSDOF 15
ENDMDL
MODEL 5
REMARK VINA RESULT:      -7.3      1.288      1.863
REMARK  Name = 
REMARK  16 active torsions:
REMARK  status: ('A' for Active; 'I' for Inactive)
REMARK    1  A    between atoms: C_1  and  C_2
REMARK    2  A    between atoms: C_2  and  C_3
REMARK    3  A    between atoms: C_2  and  C_16
REMARK    4  A    between atoms: C_3  and  C_4
REMARK    5  A    between atoms: C_4  and  C_5
REMARK    6  A    between atoms: N_7  and  CA_8
REMARK    7  A    between atoms: CA_8  and  CB_9
REMARK    8  A    between atoms: CA_8  and  C_13
REMARK    9  A    between atoms: CB_9  and  CG_10
REMARK   10  A    between atoms: CG_10  and  OD2_12
REMARK   11  A    between atoms: C_13  and  OXT_15
REMARK   12  A    between atoms: C_16  and  C_17
REMARK   13  A    between atoms: C_20  and  C_21
REMARK   14  A    between atoms: C_21  and  O_23
REMARK   15  A    between atoms: O_23  and  C_24
REMARK   16  A    between atoms: C_27  and  C_28
REMARK                            x       y       z     vdW  Elec       q    Type
REMARK                         _______ _______ _______ _____ _____    ______ ____
ROOT
ATOM      1  C   UNK A   0       2.464   7.689  18.902  0.00  0.00    +0.000 A 
ATOM      2  C   UNK A   0       2.400   8.394  17.718  0.00  0.00    +0.000 A 
ATOM      3  C   UNK A   0       1.455   9.460  17.773  0.00  0.00    +0.000 A 
ATOM      4  C   UNK A   0       0.811   9.537  18.994  0.00  0.00    +0.000 A 
ATOM      5  S   UNK A   0       1.399   8.345  20.074  0.00  0.00    +0.000 S 
ENDROOT
BRANCH   4   6
ATOM      6  C   UNK A   0      -0.277  10.409  19.408  0.00  0.00    +0.000 C 
ATOM      7  O   UNK A   0      -1.437  10.378  19.010  0.00  0.00    +0.000 OA
BRANCH   6   8
ATOM      8  O   UNK A   0       0.214  11.353  20.310  0.00  0.00    +0.000 OA
BRANCH   8   9
ATOM      9  C   UNK A   0      -0.663  11.751  21.333  0.00  0.00    +0.000 A 
ATOM     10  C   UNK A   0      -1.441  12.888  21.109  0.00  0.00    +0.000 A 
ATOM     11  C   UNK A   0      -2.434  13.236  22.032  0.00  0.00    +0.000 A 
ATOM     12  C   UNK A   0      -2.657  12.438  23.162  0.00  0.00    +0.000 A 
ATOM     13  C   UNK A   0      -1.866  11.303  23.375  0.00  0.00    +0.000 A 
ATOM     14  C   UNK A   0      -0.875  10.951  22.458  0.00  0.00    +0.000 A 
BRANCH  12  15
ATOM     15  C   UNK A   0      -3.737  12.776  24.132  0.00  0.00    +0.000 C 
ATOM     16  N   UNK A   0      -3.906  13.973  24.602  0.00  0.00    +0.000 NA
ATOM     17  N   UNK A   0      -4.614  11.827  24.563  0.00  0.00    +0.000 N 
ATOM     18  H   UNK A   0      -3.178  14.609  24.263  0.00  0.00    +0.000 HD
ATOM     19  H   UNK A   0      -4.884  11.126  23.883  0.00  0.00    +0.000 HD
ATOM     20  H   UNK A   0      -5.411  12.253  25.028  0.00  0.00    +0.000 HD
ENDBRANCH  12  15
ENDBRANCH   8   9
ENDBRANCH   6   8
ENDBRANCH   4   6
BRANCH   1  21
ATOM     21  C   UNK A   0       3.302   6.481  19.232  0.00  0.00    +0.000 C 
BRANCH  21  23
ATOM     22  C   UNK A   0       1.687   4.667  18.511  0.00  0.00    +0.000 C 
ATOM     23  C   UNK A   0       2.475   5.264  19.691  0.00  0.00    +0.000 C 
BRANCH  23  24
ATOM     24  C   UNK A   0       3.365   4.150  20.281  0.00  0.00    +0.000 C 
BRANCH  24  25
ATOM     25  C   UNK A   0       3.703   2.975  19.352  0.00  0.00    +0.000 C 
BRANCH  25  26
ATOM     26  C   UNK A   0       4.691   3.428  18.285  0.00  0.00    +0.000 C 
ATOM     27  O   UNK A   0       4.520   3.247  17.084  0.00  0.00    +0.000 OA
ATOM     28  N   ASP A   1       5.782   4.109  18.756  0.00  0.00    +0.000 N 
ATOM     29  H   ASP A   1       5.985   4.150  19.752  0.00  0.00    +0.000 HD
BRANCH  28  30
ATOM     30  CA  ASP A   1       6.816   4.616  17.837  0.00  0.00    +0.000 C 
BRANCH  30  31
ATOM     31  C   ASP A   1       7.628   5.650  18.619  0.00  0.00    +0.000 C 
ATOM     32  O   ASP A   1       7.731   6.820  18.264  0.00  0.00    +0.000 OA
BRANCH  31  33
ATOM     33  OXT ASP A   1       8.222   5.182  19.737  0.00  0.00    +0.000 OA
ATOM     34  HXT ASP A   1       8.060   4.222  19.906  0.00  0.00    +0.000 HD
ENDBRANCH  31  33
ENDBRANCH  30  31
BRANCH  30  35
ATOM     35  CB  ASP A   1       6.178   5.233  16.593  0.00  0.00    +0.000 C 
BRANCH  35  36
ATOM     36  CG  ASP A   1       6.890   4.788  15.348  0.00  0.00    +0.000 C 
ATOM     37  OD1 ASP A   1       7.816   5.407  14.832  0.00  0.00    +0.000 OA
BRANCH  36  38
ATOM     38  OD2 ASP A   1       6.407   3.636  14.840  0.00  0.00    +0.000 OA
ATOM     39  HD2 ASP A   1       6.071   3.702  13.921  0.00  0.00    +0.000 HD
ENDBRANCH  36  38
ENDBRANCH  35  36
ENDBRANCH  30  35
ENDBRANCH  28  30
ENDBRANCH  25  26
ENDBRANCH  24  25
ENDBRANCH  23  24
ENDBRANCH  21  23
ENDBRANCH   1  21
TORSDOF 15
ENDMDL
MODEL 6
REMARK VINA RESULT:      -7.2      1.216      2.351
REMARK  Name = 
REMARK  16 active torsions:
REMARK  status: ('A' for Active; 'I' for Inactive)
REMARK    1  A    between atoms: C_1  and  C_2
REMARK    2  A    between atoms: C_2  and  C_3
REMARK    3  A    between atoms: C_2  and  C_16
REMARK    4  A    between atoms: C_3  and  C_4
REMARK    5  A    between atoms: C_4  and  C_5
REMARK    6  A    between atoms: N_7  and  CA_8
REMARK    7  A    between atoms: CA_8  and  CB_9
REMARK    8  A    between atoms: CA_8  and  C_13
REMARK    9  A    between atoms: CB_9  and  CG_10
REMARK   10  A    between atoms: CG_10  and  OD2_12
REMARK   11  A    between atoms: C_13  and  OXT_15
REMARK   12  A    between atoms: C_16  and  C_17
REMARK   13  A    between atoms: C_20  and  C_21
REMARK   14  A    between atoms: C_21  and  O_23
REMARK   15  A    between atoms: O_23  and  C_24
REMARK   16  A    between atoms: C_27  and  C_28
REMARK                            x       y       z     vdW  Elec       q    Type
REMARK                         _______ _______ _______ _____ _____    ______ ____
ROOT
ATOM      1  C   UNK A   0       2.535   6.539  19.725  0.00  0.00    +0.000 A 
ATOM      2  C   UNK A   0       2.881   6.934  18.448  0.00  0.00    +0.000 A 
ATOM      3  C   UNK A   0       2.305   8.189  18.096  0.00  0.00    +0.000 A 
ATOM      4  C   UNK A   0       1.523   8.718  19.106  0.00  0.00    +0.000 A 
ATOM      5  S   UNK A   0       1.541   7.707  20.489  0.00  0.00    +0.000 S 
ENDROOT
BRANCH   4   6
ATOM      6  C   UNK A   0       0.695   9.914  19.100  0.00  0.00    +0.000 C 
ATOM      7  O   UNK A   0      -0.096  10.257  18.228  0.00  0.00    +0.000 OA
BRANCH   6   8
ATOM      8  O   UNK A   0       0.979  10.669  20.238  0.00  0.00    +0.000 OA
BRANCH   8   9
ATOM      9  C   UNK A   0      -0.126  11.106  20.986  0.00  0.00    +0.000 A 
ATOM     10  C   UNK A   0      -0.339  10.511  22.231  0.00  0.00    +0.000 A 
ATOM     11  C   UNK A   0      -1.334  11.016  23.075  0.00  0.00    +0.000 A 
ATOM     12  C   UNK A   0      -2.098  12.123  22.682  0.00  0.00    +0.000 A 
ATOM     13  C   UNK A   0      -1.876  12.708  21.429  0.00  0.00    +0.000 A 
ATOM     14  C   UNK A   0      -0.885  12.208  20.583  0.00  0.00    +0.000 A 
BRANCH  12  15
ATOM     15  C   UNK A   0      -3.134  12.695  23.588  0.00  0.00    +0.000 C 
ATOM     16  N   UNK A   0      -4.007  11.961  24.205  0.00  0.00    +0.000 NA
ATOM     17  N   UNK A   0      -3.201  14.036  23.818  0.00  0.00    +0.000 N 
ATOM     18  H   UNK A   0      -3.914  10.976  23.940  0.00  0.00    +0.000 HD
ATOM     19  H   UNK A   0      -2.316  14.528  23.852  0.00  0.00    +0.000 HD
ATOM     20  H   UNK A   0      -3.796  14.239  24.617  0.00  0.00    +0.000 HD
ENDBRANCH  12  15
ENDBRANCH   8   9
ENDBRANCH   6   8
ENDBRANCH   4   6
BRANCH   1  21
ATOM     21  C   UNK A   0       2.906   5.270  20.449  0.00  0.00    +0.000 C 
BRANCH  21  23
ATOM     22  C   UNK A   0       1.630   4.308  18.482  0.00  0.00    +0.000 C 
ATOM     23  C   UNK A   0       2.570   3.990  19.658  0.00  0.00    +0.000 C 
BRANCH  23  24
ATOM     24  C   UNK A   0       3.835   3.316  19.087  0.00  0.00    +0.000 C 
BRANCH  24  25
ATOM     25  C   UNK A   0       3.823   2.987  17.587  0.00  0.00    +0.000 C 
BRANCH  25  26
ATOM     26  C   UNK A   0       4.543   4.084  16.813  0.00  0.00    +0.000 C 
ATOM     27  O   UNK A   0       4.274   4.382  15.654  0.00  0.00    +0.000 OA
ATOM     28  N   ASP A   1       5.498   4.764  17.522  0.00  0.00    +0.000 N 
ATOM     29  H   ASP A   1       5.804   4.438  18.436  0.00  0.00    +0.000 HD
BRANCH  28  30
ATOM     30  CA  ASP A   1       6.268   5.858  16.905  0.00  0.00    +0.000 C 
BRANCH  30  31
ATOM     31  C   ASP A   1       6.987   5.260  15.695  0.00  0.00    +0.000 C 
ATOM     32  O   ASP A   1       7.878   4.423  15.799  0.00  0.00    +0.000 OA
BRANCH  31  33
ATOM     33  OXT ASP A   1       6.564   5.717  14.497  0.00  0.00    +0.000 OA
ATOM     34  HXT ASP A   1       6.272   5.006  13.877  0.00  0.00    +0.000 HD
ENDBRANCH  31  33
ENDBRANCH  30  31
BRANCH  30  35
ATOM     35  CB  ASP A   1       7.259   6.452  17.906  0.00  0.00    +0.000 C 
BRANCH  35  36
ATOM     36  CG  ASP A   1       7.601   5.457  18.977  0.00  0.00    +0.000 C 
ATOM     37  OD1 ASP A   1       7.244   5.561  20.147  0.00  0.00    +0.000 OA
BRANCH  36  38
ATOM     38  OD2 ASP A   1       8.351   4.429  18.530  0.00  0.00    +0.000 OA
ATOM     39  HD2 ASP A   1       7.841   3.699  18.119  0.00  0.00    +0.000 HD
ENDBRANCH  36  38
ENDBRANCH  35  36
ENDBRANCH  30  35
ENDBRANCH  28  30
ENDBRANCH  25  26
ENDBRANCH  24  25
ENDBRANCH  23  24
ENDBRANCH  21  23
ENDBRANCH   1  21
TORSDOF 15
ENDMDL
MODEL 7
REMARK VINA RESULT:      -7.1      3.386     11.441
REMARK  Name = 
REMARK  16 active torsions:
REMARK  status: ('A' for Active; 'I' for Inactive)
REMARK    1  A    between atoms: C_1  and  C_2
REMARK    2  A    between atoms: C_2  and  C_3
REMARK    3  A    between atoms: C_2  and  C_16
REMARK    4  A    between atoms: C_3  and  C_4
REMARK    5  A    between atoms: C_4  and  C_5
REMARK    6  A    between atoms: N_7  and  CA_8
REMARK    7  A    between atoms: CA_8  and  CB_9
REMARK    8  A    between atoms: CA_8  and  C_13
REMARK    9  A    between atoms: CB_9  and  CG_10
REMARK   10  A    between atoms: CG_10  and  OD2_12
REMARK   11  A    between atoms: C_13  and  OXT_15
REMARK   12  A    between atoms: C_16  and  C_17
REMARK   13  A    between atoms: C_20  and  C_21
REMARK   14  A    between atoms: C_21  and  O_23
REMARK   15  A    between atoms: O_23  and  C_24
REMARK   16  A    between atoms: C_27  and  C_28
REMARK                            x       y       z     vdW  Elec       q    Type
REMARK                         _______ _______ _______ _____ _____    ______ ____
ROOT
ATOM      1  C   UNK A   0       1.508   9.027  19.038  0.00  0.00    +0.000 A 
ATOM      2  C   UNK A   0       2.033   8.598  17.836  0.00  0.00    +0.000 A 
ATOM      3  C   UNK A   0       2.620   7.303  17.934  0.00  0.00    +0.000 A 
ATOM      4  C   UNK A   0       2.540   6.778  19.211  0.00  0.00    +0.000 A 
ATOM      5  S   UNK A   0       1.709   7.845  20.262  0.00  0.00    +0.000 S 
ENDROOT
BRANCH   4   6
ATOM      6  C   UNK A   0       3.103   5.545  19.737  0.00  0.00    +0.000 C 
ATOM      7  O   UNK A   0       2.497   4.643  20.307  0.00  0.00    +0.000 OA
BRANCH   6   8
ATOM      8  O   UNK A   0       4.485   5.556  19.545  0.00  0.00    +0.000 OA
BRANCH   8   9
ATOM      9  C   UNK A   0       4.932   5.364  18.227  0.00  0.00    +0.000 A 
ATOM     10  C   UNK A   0       5.931   6.215  17.754  0.00  0.00    +0.000 A 
ATOM     11  C   UNK A   0       6.513   5.968  16.506  0.00  0.00    +0.000 A 
ATOM     12  C   UNK A   0       6.109   4.863  15.745  0.00  0.00    +0.000 A 
ATOM     13  C   UNK A   0       5.102   4.019  16.231  0.00  0.00    +0.000 A 
ATOM     14  C   UNK A   0       4.518   4.262  17.475  0.00  0.00    +0.000 A 
BRANCH  12  15
ATOM     15  C   UNK A   0       6.748   4.566  14.432  0.00  0.00    +0.000 C 
ATOM     16  N   UNK A   0       6.424   3.538  13.712  0.00  0.00    +0.000 NA
ATOM     17  N   UNK A   0       7.710   5.385  13.920  0.00  0.00    +0.000 N 
ATOM     18  H   UNK A   0       5.731   2.955  14.191  0.00  0.00    +0.000 HD
ATOM     19  H   UNK A   0       7.597   6.374  14.102  0.00  0.00    +0.000 HD
ATOM     20  H   UNK A   0       7.876   5.180  12.938  0.00  0.00    +0.000 HD
ENDBRANCH  12  15
ENDBRANCH   8   9
ENDBRANCH   6   8
ENDBRANCH   4   6
BRANCH   1  21
ATOM     21  C   UNK A   0       0.843  10.342  19.357  0.00  0.00    +0.000 C 
BRANCH  21  23
ATOM     22  C   UNK A   0      -0.853  11.227  21.018  0.00  0.00    +0.000 C 
ATOM     23  C   UNK A   0      -0.587  10.190  19.913  0.00  0.00    +0.000 C 
BRANCH  23  24
ATOM     24  C   UNK A   0      -1.656  10.377  18.816  0.00  0.00    +0.000 C 
BRANCH  24  25
ATOM     25  C   UNK A   0      -2.098  11.818  18.526  0.00  0.00    +0.000 C 
BRANCH  25  26
ATOM     26  C   UNK A   0      -3.610  11.933  18.670  0.00  0.00    +0.000 C 
ATOM     27  O   UNK A   0      -4.404  11.448  17.870  0.00  0.00    +0.000 OA
ATOM     28  N   ASP A   1      -4.039  12.582  19.797  0.00  0.00    +0.000 N 
ATOM     29  H   ASP A   1      -3.386  13.087  20.391  0.00  0.00    +0.000 HD
BRANCH  28  30
ATOM     30  CA  ASP A   1      -5.475  12.759  20.073  0.00  0.00    +0.000 C 
BRANCH  30  31
ATOM     31  C   ASP A   1      -5.897  14.060  19.389  0.00  0.00    +0.000 C 
ATOM     32  O   ASP A   1      -5.884  15.145  19.961  0.00  0.00    +0.000 OA
BRANCH  31  33
ATOM     33  OXT ASP A   1      -6.280  13.928  18.101  0.00  0.00    +0.000 OA
ATOM     34  HXT ASP A   1      -7.129  14.385  17.887  0.00  0.00    +0.000 HD
ENDBRANCH  31  33
ENDBRANCH  30  31
BRANCH  30  35
ATOM     35  CB  ASP A   1      -5.732  12.811  21.579  0.00  0.00    +0.000 C 
BRANCH  35  36
ATOM     36  CG  ASP A   1      -4.456  13.051  22.334  0.00  0.00    +0.000 C 
ATOM     37  OD1 ASP A   1      -3.843  12.176  22.937  0.00  0.00    +0.000 OA
BRANCH  36  38
ATOM     38  OD2 ASP A   1      -4.046  14.335  22.291  0.00  0.00    +0.000 OA
ATOM     39  HD2 ASP A   1      -3.093  14.467  22.479  0.00  0.00    +0.000 HD
ENDBRANCH  36  38
ENDBRANCH  35  36
ENDBRANCH  30  35
ENDBRANCH  28  30
ENDBRANCH  25  26
ENDBRANCH  24  25
ENDBRANCH  23  24
ENDBRANCH  21  23
ENDBRANCH   1  21
TORSDOF 15
ENDMDL
MODEL 8
REMARK VINA RESULT:      -7.1      2.928      4.290
REMARK  Name = 
REMARK  16 active torsions:
REMARK  status: ('A' for Active; 'I' for Inactive)
REMARK    1  A    between atoms: C_1  and  C_2
REMARK    2  A    between atoms: C_2  and  C_3
REMARK    3  A    between atoms: C_2  and  C_16
REMARK    4  A    between atoms: C_3  and  C_4
REMARK    5  A    between atoms: C_4  and  C_5
REMARK    6  A    between atoms: N_7  and  CA_8
REMARK    7  A    between atoms: CA_8  and  CB_9
REMARK    8  A    between atoms: CA_8  and  C_13
REMARK    9  A    between atoms: CB_9  and  CG_10
REMARK   10  A    between atoms: CG_10  and  OD2_12
REMARK   11  A    between atoms: C_13  and  OXT_15
REMARK   12  A    between atoms: C_16  and  C_17
REMARK   13  A    between atoms: C_20  and  C_21
REMARK   14  A    between atoms: C_21  and  O_23
REMARK   15  A    between atoms: O_23  and  C_24
REMARK   16  A    between atoms: C_27  and  C_28
REMARK                            x       y       z     vdW  Elec       q    Type
REMARK                         _______ _______ _______ _____ _____    ______ ____
ROOT
ATOM      1  C   UNK A   0       2.893   6.565  18.979  0.00  0.00    +0.000 A 
ATOM      2  C   UNK A   0       2.386   6.460  20.258  0.00  0.00    +0.000 A 
ATOM      3  C   UNK A   0       1.586   7.584  20.617  0.00  0.00    +0.000 A 
ATOM      4  C   UNK A   0       1.511   8.527  19.608  0.00  0.00    +0.000 A 
ATOM      5  S   UNK A   0       2.370   8.010  18.220  0.00  0.00    +0.000 S 
ENDROOT
BRANCH   4   6
ATOM      6  C   UNK A   0       0.886   9.840  19.620  0.00  0.00    +0.000 C 
ATOM      7  O   UNK A   0       0.655  10.537  20.603  0.00  0.00    +0.000 OA
BRANCH   6   8
ATOM      8  O   UNK A   0       0.522  10.183  18.317  0.00  0.00    +0.000 OA
BRANCH   8   9
ATOM      9  C   UNK A   0      -0.825  10.524  18.116  0.00  0.00    +0.000 A 
ATOM     10  C   UNK A   0      -1.565   9.739  17.231  0.00  0.00    +0.000 A 
ATOM     11  C   UNK A   0      -2.944   9.946  17.113  0.00  0.00    +0.000 A 
ATOM     12  C   UNK A   0      -3.580  10.922  17.893  0.00  0.00    +0.000 A 
ATOM     13  C   UNK A   0      -2.824  11.705  18.774  0.00  0.00    +0.000 A 
ATOM     14  C   UNK A   0      -1.449  11.502  18.895  0.00  0.00    +0.000 A 
BRANCH  12  15
ATOM     15  C   UNK A   0      -5.054  11.126  17.805  0.00  0.00    +0.000 C 
ATOM     16  N   UNK A   0      -5.879  10.659  18.690  0.00  0.00    +0.000 NA
ATOM     17  N   UNK A   0      -5.604  11.833  16.779  0.00  0.00    +0.000 N 
ATOM     18  H   UNK A   0      -5.387  10.104  19.397  0.00  0.00    +0.000 HD
ATOM     19  H   UNK A   0      -5.065  12.620  16.439  0.00  0.00    +0.000 HD
ATOM     20  H   UNK A   0      -6.571  12.074  16.981  0.00  0.00    +0.000 HD
ENDBRANCH  12  15
ENDBRANCH   8   9
ENDBRANCH   6   8
ENDBRANCH   4   6
BRANCH   1  21
ATOM     21  C   UNK A   0       3.804   5.613  18.248  0.00  0.00    +0.000 C 
BRANCH  21  23
ATOM     22  C   UNK A   0       1.681   4.334  17.722  0.00  0.00    +0.000 C 
ATOM     23  C   UNK A   0       3.186   4.219  18.023  0.00  0.00    +0.000 C 
BRANCH  23  24
ATOM     24  C   UNK A   0       3.852   3.477  16.845  0.00  0.00    +0.000 C 
BRANCH  24  25
ATOM     25  C   UNK A   0       5.316   3.830  16.548  0.00  0.00    +0.000 C 
BRANCH  25  26
ATOM     26  C   UNK A   0       5.428   4.436  15.155  0.00  0.00    +0.000 C 
ATOM     27  O   UNK A   0       5.255   5.627  14.919  0.00  0.00    +0.000 OA
ATOM     28  N   ASP A   1       5.789   3.558  14.167  0.00  0.00    +0.000 N 
ATOM     29  H   ASP A   1       5.810   2.555  14.340  0.00  0.00    +0.000 HD
BRANCH  28  30
ATOM     30  CA  ASP A   1       5.946   4.004  12.773  0.00  0.00    +0.000 C 
BRANCH  30  31
ATOM     31  C   ASP A   1       5.228   2.975  11.899  0.00  0.00    +0.000 C 
ATOM     32  O   ASP A   1       5.730   1.897  11.595  0.00  0.00    +0.000 OA
BRANCH  31  33
ATOM     33  OXT ASP A   1       3.994   3.336  11.489  0.00  0.00    +0.000 OA
ATOM     34  HXT ASP A   1       3.866   3.289  10.510  0.00  0.00    +0.000 HD
ENDBRANCH  31  33
ENDBRANCH  30  31
BRANCH  30  35
ATOM     35  CB  ASP A   1       7.425   4.116  12.404  0.00  0.00    +0.000 C 
BRANCH  35  36
ATOM     36  CG  ASP A   1       7.980   5.451  12.809  0.00  0.00    +0.000 C 
ATOM     37  OD1 ASP A   1       8.228   6.357  12.019  0.00  0.00    +0.000 OA
BRANCH  36  38
ATOM     38  OD2 ASP A   1       8.188   5.561  14.137  0.00  0.00    +0.000 OA
ATOM     39  HD2 ASP A   1       9.041   5.191  14.450  0.00  0.00    +0.000 HD
ENDBRANCH  36  38
ENDBRANCH  35  36
ENDBRANCH  30  35
ENDBRANCH  28  30
ENDBRANCH  25  26
ENDBRANCH  24  25
ENDBRANCH  23  24
ENDBRANCH  21  23
ENDBRANCH   1  21
TORSDOF 15
ENDMDL
MODEL 9
REMARK VINA RESULT:      -7.1      1.814      3.071
REMARK  Name = 
REMARK  16 active torsions:
REMARK  status: ('A' for Active; 'I' for Inactive)
REMARK    1  A    between atoms: C_1  and  C_2
REMARK    2  A    between atoms: C_2  and  C_3
REMARK    3  A    between atoms: C_2  and  C_16
REMARK    4  A    between atoms: C_3  and  C_4
REMARK    5  A    between atoms: C_4  and  C_5
REMARK    6  A    between atoms: N_7  and  CA_8
REMARK    7  A    between atoms: CA_8  and  CB_9
REMARK    8  A    between atoms: CA_8  and  C_13
REMARK    9  A    between atoms: CB_9  and  CG_10
REMARK   10  A    between atoms: CG_10  and  OD2_12
REMARK   11  A    between atoms: C_13  and  OXT_15
REMARK   12  A    between atoms: C_16  and  C_17
REMARK   13  A    between atoms: C_20  and  C_21
REMARK   14  A    between atoms: C_21  and  O_23
REMARK   15  A    between atoms: O_23  and  C_24
REMARK   16  A    between atoms: C_27  and  C_28
REMARK                            x       y       z     vdW  Elec       q    Type
REMARK                         _______ _______ _______ _____ _____    ______ ____
ROOT
ATOM      1  C   UNK A   0       1.907   5.616  18.699  0.00  0.00    +0.000 A 
ATOM      2  C   UNK A   0       2.362   6.794  18.144  0.00  0.00    +0.000 A 
ATOM      3  C   UNK A   0       2.272   7.890  19.051  0.00  0.00    +0.000 A 
ATOM      4  C   UNK A   0       1.740   7.525  20.274  0.00  0.00    +0.000 A 
ATOM      5  S   UNK A   0       1.404   5.846  20.321  0.00  0.00    +0.000 S 
ENDROOT
BRANCH   4   6
ATOM      6  C   UNK A   0       1.397   8.359  21.415  0.00  0.00    +0.000 C 
ATOM      7  O   UNK A   0       2.167   8.801  22.262  0.00  0.00    +0.000 OA
BRANCH   6   8
ATOM      8  O   UNK A   0       0.015   8.546  21.443  0.00  0.00    +0.000 OA
BRANCH   8   9
ATOM      9  C   UNK A   0      -0.431   9.857  21.675  0.00  0.00    +0.000 A 
ATOM     10  C   UNK A   0      -0.584  10.692  20.567  0.00  0.00    +0.000 A 
ATOM     11  C   UNK A   0      -1.168  11.953  20.730  0.00  0.00    +0.000 A 
ATOM     12  C   UNK A   0      -1.613  12.368  21.993  0.00  0.00    +0.000 A 
ATOM     13  C   UNK A   0      -1.449  11.520  23.096  0.00  0.00    +0.000 A 
ATOM     14  C   UNK A   0      -0.867  10.262  22.939  0.00  0.00    +0.000 A 
BRANCH  12  15
ATOM     15  C   UNK A   0      -2.271  13.692  22.173  0.00  0.00    +0.000 C 
ATOM     16  N   UNK A   0      -1.691  14.810  21.865  0.00  0.00    +0.000 NA
ATOM     17  N   UNK A   0      -3.538  13.784  22.667  0.00  0.00    +0.000 N 
ATOM     18  H   UNK A   0      -0.730  14.652  21.547  0.00  0.00    +0.000 HD
ATOM     19  H   UNK A   0      -4.177  13.046  22.397  0.00  0.00    +0.000 HD
ATOM     20  H   UNK A   0      -3.921  14.713  22.515  0.00  0.00    +0.000 HD
ENDBRANCH  12  15
ENDBRANCH   8   9
ENDBRANCH   6   8
ENDBRANCH   4   6
BRANCH   1  21
ATOM     21  C   UNK A   0       1.802   4.255  18.060  0.00  0.00    +0.000 C 
BRANCH  21  23
ATOM     22  C   UNK A   0       0.597   2.191  18.902  0.00  0.00    +0.000 C 
ATOM     23  C   UNK A   0       1.831   3.094  19.074  0.00  0.00    +0.000 C 
BRANCH  23  24
ATOM     24  C   UNK A   0       3.089   2.217  18.910  0.00  0.00    +0.000 C 
BRANCH  24  25
ATOM     25  C   UNK A   0       4.289   2.560  19.805  0.00  0.00    +0.000 C 
BRANCH  25  26
ATOM     26  C   UNK A   0       4.943   3.847  19.319  0.00  0.00    +0.000 C 
ATOM     27  O   UNK A   0       4.842   4.921  19.905  0.00  0.00    +0.000 OA
ATOM     28  N   ASP A   1       5.707   3.719  18.190  0.00  0.00    +0.000 N 
ATOM     29  H   ASP A   1       5.690   2.864  17.639  0.00  0.00    +0.000 HD
BRANCH  28  30
ATOM     30  CA  ASP A   1       6.409   4.878  17.611  0.00  0.00    +0.000 C 
BRANCH  30  31
ATOM     31  C   ASP A   1       6.277   4.757  16.092  0.00  0.00    +0.000 C 
ATOM     32  O   ASP A   1       6.176   3.677  15.518  0.00  0.00    +0.000 OA
BRANCH  31  33
ATOM     33  OXT ASP A   1       6.272   5.931  15.424  0.00  0.00    +0.000 OA
ATOM     34  HXT ASP A   1       6.936   5.979  14.693  0.00  0.00    +0.000 HD
ENDBRANCH  31  33
ENDBRANCH  30  31
BRANCH  30  35
ATOM     35  CB  ASP A   1       7.874   4.894  18.044  0.00  0.00    +0.000 C 
BRANCH  35  36
ATOM     36  CG  ASP A   1       8.070   5.780  19.242  0.00  0.00    +0.000 C 
ATOM     37  OD1 ASP A   1       7.944   5.399  20.401  0.00  0.00    +0.000 OA
BRANCH  36  38
ATOM     38  OD2 ASP A   1       8.395   7.048  18.918  0.00  0.00    +0.000 OA
ATOM     39  HD2 ASP A   1       7.684   7.705  19.074  0.00  0.00    +0.000 HD
ENDBRANCH  36  38
ENDBRANCH  35  36
ENDBRANCH  30  35
ENDBRANCH  28  30
ENDBRANCH  25  26
ENDBRANCH  24  25
ENDBRANCH  23  24
ENDBRANCH  21  23
ENDBRANCH   1  21
TORSDOF 15
ENDMDL
