MODEL 1
REMARK VINA RESULT:      -8.6      0.000      0.000
REMARK  Name = 
REMARK  8 active torsions:
REMARK  status: ('A' for Active; 'I' for Inactive)
REMARK    1  A    between atoms: C_1  and  O_2
REMARK    2  A    between atoms: O_2  and  C_3
REMARK    3  A    between atoms: C_6  and  C_7
REMARK    4  A    between atoms: C_13  and  S_14
REMARK    5  A    between atoms: S_14  and  N_17
REMARK    6  A    between atoms: C_20  and  C_21
REMARK    7  A    between atoms: C_26  and  O_27
REMARK    8  A    between atoms: O_27  and  C_28
REMARK                            x       y       z     vdW  Elec       q    Type
REMARK                         _______ _______ _______ _____ _____    ______ ____
ROOT
ATOM      1  C   UNL     1       8.337   9.073  18.216  0.00  0.00    +0.000 C 
ATOM      2  O   UNL     1       7.488   9.301  17.367  0.00  0.00    +0.000 OA
ATOM      3  N   UNL     1       8.545   7.852  18.832  0.00  0.00    +0.000 N 
ATOM      4  C   UNL     1       7.807   6.711  18.585  0.00  0.00    +0.000 A 
ATOM      5  N   UNL     1       8.158   5.516  19.013  0.00  0.00    +0.000 NA
ATOM      6  N   UNL     1       7.320   4.517  18.518  0.00  0.00    +0.000 NA
ATOM      7  C   UNL     1       6.368   5.028  17.761  0.00  0.00    +0.000 A 
ATOM      8  S   UNL     1       6.336   6.733  17.721  0.00  0.00    +0.000 S 
ATOM      9  H   UNL     1       9.350   7.687  19.413  0.00  0.00    +0.000 HD
ENDROOT
BRANCH   1  13
ATOM     10  C   UNL     1      11.029  12.149  19.601  0.00  0.00    +0.000 A 
ATOM     11  C   UNL     1      10.103  11.540  20.454  0.00  0.00    +0.000 A 
ATOM     12  C   UNL     1       9.222  10.574  19.973  0.00  0.00    +0.000 A 
ATOM     13  C   UNL     1       9.218  10.219  18.613  0.00  0.00    +0.000 A 
ATOM     14  C   UNL     1      10.054  10.920  17.744  0.00  0.00    +0.000 A 
ATOM     15  C   UNL     1      10.959  11.890  18.223  0.00  0.00    +0.000 A 
BRANCH  10  17
ATOM     16  C   UNL     1      11.584  14.367  20.193  0.00  0.00    +0.000 C 
ATOM     17  O   UNL     1      11.983  12.996  20.100  0.00  0.00    +0.000 OA
ENDBRANCH  10  17
BRANCH  15  18
ATOM     18  O   UNL     1      11.699  12.435  17.206  0.00  0.00    +0.000 OA
ATOM     19  C   UNL     1      11.315  13.688  16.662  0.00  0.00    +0.000 C 
ENDBRANCH  15  18
ENDBRANCH   1  13
BRANCH   7  20
ATOM     20  S   UNL     1       5.205   4.186  16.728  0.00  0.00    +0.000 S 
ATOM     21  O   UNL     1       4.476   5.244  16.057  0.00  0.00    +0.000 OA
ATOM     22  O   UNL     1       6.021   3.255  15.972  0.00  0.00    +0.000 OA
BRANCH  20  23
ATOM     23  N   UNL     1       4.081   3.250  17.577  0.00  0.00    +0.000 NA
ATOM     24  C   UNL     1       2.657   3.311  17.236  0.00  0.00    +0.000 C 
ATOM     25  C   UNL     1       1.996   4.409  18.041  0.00  0.00    +0.000 C 
ATOM     26  C   UNL     1       2.219   4.227  19.553  0.00  0.00    +0.000 C 
ATOM     27  C   UNL     1       1.808   5.511  20.277  0.00  0.00    +0.000 C 
ATOM     28  C   UNL     1       3.660   3.833  19.937  0.00  0.00    +0.000 C 
ATOM     29  C   UNL     1       4.331   2.863  18.972  0.00  0.00    +0.000 C 
ENDBRANCH  20  23
ENDBRANCH   7  20
TORSDOF 5
ENDMDL
MODEL 2
REMARK VINA RESULT:      -8.6      0.794      1.834
REMARK  Name = 
REMARK  8 active torsions:
REMARK  status: ('A' for Active; 'I' for Inactive)
REMARK    1  A    between atoms: C_1  and  O_2
REMARK    2  A    between atoms: O_2  and  C_3
REMARK    3  A    between atoms: C_6  and  C_7
REMARK    4  A    between atoms: C_13  and  S_14
REMARK    5  A    between atoms: S_14  and  N_17
REMARK    6  A    between atoms: C_20  and  C_21
REMARK    7  A    between atoms: C_26  and  O_27
REMARK    8  A    between atoms: O_27  and  C_28
REMARK                            x       y       z     vdW  Elec       q    Type
REMARK                         _______ _______ _______ _____ _____    ______ ____
ROOT
ATOM      1  C   UNL     1       8.429   9.101  18.400  0.00  0.00    +0.000 C 
ATOM      2  O   UNL     1       7.597   9.378  17.550  0.00  0.00    +0.000 OA
ATOM      3  N   UNL     1       8.616   7.849  18.958  0.00  0.00    +0.000 N 
ATOM      4  C   UNL     1       7.874   6.728  18.642  0.00  0.00    +0.000 A 
ATOM      5  N   UNL     1       8.207   5.510  19.015  0.00  0.00    +0.000 NA
ATOM      6  N   UNL     1       7.370   4.544  18.457  0.00  0.00    +0.000 NA
ATOM      7  C   UNL     1       6.436   5.101  17.710  0.00  0.00    +0.000 A 
ATOM      8  S   UNL     1       6.418   6.806  17.755  0.00  0.00    +0.000 S 
ATOM      9  H   UNL     1       9.409   7.648  19.545  0.00  0.00    +0.000 HD
ENDROOT
BRANCH   1  13
ATOM     10  C   UNL     1      10.836  12.516  19.480  0.00  0.00    +0.000 A 
ATOM     11  C   UNL     1      10.954  11.896  18.232  0.00  0.00    +0.000 A 
ATOM     12  C   UNL     1      10.189  10.773  17.922  0.00  0.00    +0.000 A 
ATOM     13  C   UNL     1       9.312  10.217  18.869  0.00  0.00    +0.000 A 
ATOM     14  C   UNL     1       9.294  10.762  20.153  0.00  0.00    +0.000 A 
ATOM     15  C   UNL     1      10.054  11.906  20.474  0.00  0.00    +0.000 A 
BRANCH  10  17
ATOM     16  C   UNL     1      10.724  14.875  19.452  0.00  0.00    +0.000 C 
ATOM     17  O   UNL     1      11.484  13.696  19.735  0.00  0.00    +0.000 OA
ENDBRANCH  10  17
BRANCH  15  18
ATOM     18  O   UNL     1       9.868  12.286  21.777  0.00  0.00    +0.000 OA
ATOM     19  C   UNL     1       8.645  11.972  22.424  0.00  0.00    +0.000 C 
ENDBRANCH  15  18
ENDBRANCH   1  13
BRANCH   7  20
ATOM     20  S   UNL     1       5.284   4.322  16.617  0.00  0.00    +0.000 S 
ATOM     21  O   UNL     1       4.620   5.419  15.940  0.00  0.00    +0.000 OA
ATOM     22  O   UNL     1       6.095   3.376  15.873  0.00  0.00    +0.000 OA
BRANCH  20  23
ATOM     23  N   UNL     1       4.096   3.411  17.403  0.00  0.00    +0.000 NA
ATOM     24  C   UNL     1       2.681   3.589  17.066  0.00  0.00    +0.000 C 
ATOM     25  C   UNL     1       2.090   4.676  17.939  0.00  0.00    +0.000 C 
ATOM     26  C   UNL     1       2.293   4.383  19.436  0.00  0.00    +0.000 C 
ATOM     27  C   UNL     1       1.965   5.643  20.240  0.00  0.00    +0.000 C 
ATOM     28  C   UNL     1       3.702   3.870  19.795  0.00  0.00    +0.000 C 
ATOM     29  C   UNL     1       4.312   2.920  18.771  0.00  0.00    +0.000 C 
ENDBRANCH  20  23
ENDBRANCH   7  20
TORSDOF 5
ENDMDL
MODEL 3
REMARK VINA RESULT:      -8.3      6.074      7.898
REMARK  Name = 
REMARK  8 active torsions:
REMARK  status: ('A' for Active; 'I' for Inactive)
REMARK    1  A    between atoms: C_1  and  O_2
REMARK    2  A    between atoms: O_2  and  C_3
REMARK    3  A    between atoms: C_6  and  C_7
REMARK    4  A    between atoms: C_13  and  S_14
REMARK    5  A    between atoms: S_14  and  N_17
REMARK    6  A    between atoms: C_20  and  C_21
REMARK    7  A    between atoms: C_26  and  O_27
REMARK    8  A    between atoms: O_27  and  C_28
REMARK                            x       y       z     vdW  Elec       q    Type
REMARK                         _______ _______ _______ _____ _____    ______ ____
ROOT
ATOM      1  C   UNL     1       1.432   8.108  20.514  0.00  0.00    +0.000 C 
ATOM      2  O   UNL     1       1.576   7.077  21.155  0.00  0.00    +0.000 OA
ATOM      3  N   UNL     1       2.037   8.388  19.302  0.00  0.00    +0.000 N 
ATOM      4  C   UNL     1       2.908   7.542  18.644  0.00  0.00    +0.000 A 
ATOM      5  N   UNL     1       3.297   7.729  17.400  0.00  0.00    +0.000 NA
ATOM      6  N   UNL     1       4.067   6.666  16.928  0.00  0.00    +0.000 NA
ATOM      7  C   UNL     1       4.232   5.749  17.861  0.00  0.00    +0.000 A 
ATOM      8  S   UNL     1       3.604   6.173  19.389  0.00  0.00    +0.000 S 
ATOM      9  H   UNL     1       1.769   9.188  18.754  0.00  0.00    +0.000 HD
ENDROOT
BRANCH   1  13
ATOM     10  C   UNL     1      -0.922  11.161  22.454  0.00  0.00    +0.000 A 
ATOM     11  C   UNL     1      -0.511  10.007  23.128  0.00  0.00    +0.000 A 
ATOM     12  C   UNL     1       0.218   9.020  22.469  0.00  0.00    +0.000 A 
ATOM     13  C   UNL     1       0.525   9.146  21.103  0.00  0.00    +0.000 A 
ATOM     14  C   UNL     1       0.004  10.236  20.406  0.00  0.00    +0.000 A 
ATOM     15  C   UNL     1      -0.725  11.247  21.067  0.00  0.00    +0.000 A 
BRANCH  10  17
ATOM     16  C   UNL     1      -2.942  12.091  23.249  0.00  0.00    +0.000 C 
ATOM     17  O   UNL     1      -1.519  12.190  23.134  0.00  0.00    +0.000 OA
ENDBRANCH  10  17
BRANCH  15  18
ATOM     18  O   UNL     1      -1.118  12.233  20.200  0.00  0.00    +0.000 OA
ATOM     19  C   UNL     1      -2.150  11.964  19.265  0.00  0.00    +0.000 C 
ENDBRANCH  15  18
ENDBRANCH   1  13
BRANCH   7  20
ATOM     20  S   UNL     1       4.923   4.127  17.708  0.00  0.00    +0.000 S 
ATOM     21  O   UNL     1       5.478   4.089  16.370  0.00  0.00    +0.000 OA
ATOM     22  O   UNL     1       5.782   4.004  18.870  0.00  0.00    +0.000 OA
BRANCH  20  23
ATOM     23  N   UNL     1       3.786   2.880  17.827  0.00  0.00    +0.000 NA
ATOM     24  C   UNL     1       2.485   2.997  17.162  0.00  0.00    +0.000 C 
ATOM     25  C   UNL     1       1.501   3.665  18.099  0.00  0.00    +0.000 C 
ATOM     26  C   UNL     1       1.396   2.924  19.443  0.00  0.00    +0.000 C 
ATOM     27  C   UNL     1       0.643   3.806  20.442  0.00  0.00    +0.000 C 
ATOM     28  C   UNL     1       2.752   2.485  20.032  0.00  0.00    +0.000 C 
ATOM     29  C   UNL     1       3.764   1.998  19.001  0.00  0.00    +0.000 C 
ENDBRANCH  20  23
ENDBRANCH   7  20
TORSDOF 5
ENDMDL
MODEL 4
REMARK VINA RESULT:      -8.1      1.118      2.193
REMARK  Name = 
REMARK  8 active torsions:
REMARK  status: ('A' for Active; 'I' for Inactive)
REMARK    1  A    between atoms: C_1  and  O_2
REMARK    2  A    between atoms: O_2  and  C_3
REMARK    3  A    between atoms: C_6  and  C_7
REMARK    4  A    between atoms: C_13  and  S_14
REMARK    5  A    between atoms: S_14  and  N_17
REMARK    6  A    between atoms: C_20  and  C_21
REMARK    7  A    between atoms: C_26  and  O_27
REMARK    8  A    between atoms: O_27  and  C_28
REMARK                            x       y       z     vdW  Elec       q    Type
REMARK                         _______ _______ _______ _____ _____    ______ ____
ROOT
ATOM      1  C   UNL     1       8.504   9.290  18.361  0.00  0.00    +0.000 C 
ATOM      2  O   UNL     1       7.721   9.613  17.480  0.00  0.00    +0.000 OA
ATOM      3  N   UNL     1       8.627   8.021  18.897  0.00  0.00    +0.000 N 
ATOM      4  C   UNL     1       7.866   6.931  18.521  0.00  0.00    +0.000 A 
ATOM      5  N   UNL     1       8.145   5.696  18.880  0.00  0.00    +0.000 NA
ATOM      6  N   UNL     1       7.305   4.769  18.261  0.00  0.00    +0.000 NA
ATOM      7  C   UNL     1       6.425   5.372  17.486  0.00  0.00    +0.000 A 
ATOM      8  S   UNL     1       6.456   7.075  17.570  0.00  0.00    +0.000 S 
ATOM      9  H   UNL     1       9.385   7.782  19.514  0.00  0.00    +0.000 HD
ENDROOT
BRANCH   1  13
ATOM     10  C   UNL     1      10.959  12.604  19.632  0.00  0.00    +0.000 A 
ATOM     11  C   UNL     1      11.112  12.012  18.375  0.00  0.00    +0.000 A 
ATOM     12  C   UNL     1      10.330  10.922  18.002  0.00  0.00    +0.000 A 
ATOM     13  C   UNL     1       9.397  10.368  18.897  0.00  0.00    +0.000 A 
ATOM     14  C   UNL     1       9.340  10.880  20.193  0.00  0.00    +0.000 A 
ATOM     15  C   UNL     1      10.117  11.992  20.575  0.00  0.00    +0.000 A 
BRANCH  10  17
ATOM     16  C   UNL     1      11.391  14.853  19.056  0.00  0.00    +0.000 C 
ATOM     17  O   UNL     1      11.629  13.758  19.946  0.00  0.00    +0.000 OA
ENDBRANCH  10  17
BRANCH  15  18
ATOM     18  O   UNL     1       9.886  12.345  21.879  0.00  0.00    +0.000 OA
ATOM     19  C   UNL     1       8.604  12.119  22.442  0.00  0.00    +0.000 C 
ENDBRANCH  15  18
ENDBRANCH   1  13
BRANCH   7  20
ATOM     20  S   UNL     1       5.302   4.654  16.322  0.00  0.00    +0.000 S 
ATOM     21  O   UNL     1       5.198   5.634  15.259  0.00  0.00    +0.000 OA
ATOM     22  O   UNL     1       5.860   3.339  16.065  0.00  0.00    +0.000 OA
BRANCH  20  23
ATOM     23  N   UNL     1       3.747   4.396  16.934  0.00  0.00    +0.000 NA
ATOM     24  C   UNL     1       3.233   5.226  18.027  0.00  0.00    +0.000 C 
ATOM     25  C   UNL     1       3.604   4.597  19.352  0.00  0.00    +0.000 C 
ATOM     26  C   UNL     1       3.113   3.142  19.456  0.00  0.00    +0.000 C 
ATOM     27  C   UNL     1       3.779   2.474  20.660  0.00  0.00    +0.000 C 
ATOM     28  C   UNL     1       3.344   2.305  18.181  0.00  0.00    +0.000 C 
ATOM     29  C   UNL     1       3.132   3.063  16.876  0.00  0.00    +0.000 C 
ENDBRANCH  20  23
ENDBRANCH   7  20
TORSDOF 5
ENDMDL
MODEL 5
REMARK VINA RESULT:      -7.9      0.845      1.248
REMARK  Name = 
REMARK  8 active torsions:
REMARK  status: ('A' for Active; 'I' for Inactive)
REMARK    1  A    between atoms: C_1  and  O_2
REMARK    2  A    between atoms: O_2  and  C_3
REMARK    3  A    between atoms: C_6  and  C_7
REMARK    4  A    between atoms: C_13  and  S_14
REMARK    5  A    between atoms: S_14  and  N_17
REMARK    6  A    between atoms: C_20  and  C_21
REMARK    7  A    between atoms: C_26  and  O_27
REMARK    8  A    between atoms: O_27  and  C_28
REMARK                            x       y       z     vdW  Elec       q    Type
REMARK                         _______ _______ _______ _____ _____    ______ ____
ROOT
ATOM      1  C   UNL     1       8.277   9.041  18.296  0.00  0.00    +0.000 C 
ATOM      2  O   UNL     1       7.361   9.322  17.538  0.00  0.00    +0.000 OA
ATOM      3  N   UNL     1       8.490   7.799  18.868  0.00  0.00    +0.000 N 
ATOM      4  C   UNL     1       7.682   6.696  18.675  0.00  0.00    +0.000 A 
ATOM      5  N   UNL     1       8.020   5.478  19.046  0.00  0.00    +0.000 NA
ATOM      6  N   UNL     1       7.095   4.526  18.617  0.00  0.00    +0.000 NA
ATOM      7  C   UNL     1       6.098   5.093  17.966  0.00  0.00    +0.000 A 
ATOM      8  S   UNL     1       6.137   6.798  17.958  0.00  0.00    +0.000 S 
ATOM      9  H   UNL     1       9.338   7.589  19.366  0.00  0.00    +0.000 HD
ENDROOT
BRANCH   1  13
ATOM     10  C   UNL     1      11.218  11.973  19.470  0.00  0.00    +0.000 A 
ATOM     11  C   UNL     1      10.339  11.399  20.394  0.00  0.00    +0.000 A 
ATOM     12  C   UNL     1       9.376  10.481  19.983  0.00  0.00    +0.000 A 
ATOM     13  C   UNL     1       9.242  10.140  18.626  0.00  0.00    +0.000 A 
ATOM     14  C   UNL     1      10.034  10.810  17.694  0.00  0.00    +0.000 A 
ATOM     15  C   UNL     1      11.020  11.732  18.101  0.00  0.00    +0.000 A 
BRANCH  10  17
ATOM     16  C   UNL     1      11.920  14.153  20.046  0.00  0.00    +0.000 C 
ATOM     17  O   UNL     1      12.250  12.769  19.893  0.00  0.00    +0.000 OA
ENDBRANCH  10  17
BRANCH  15  18
ATOM     18  O   UNL     1      11.698  12.252  17.030  0.00  0.00    +0.000 OA
ATOM     19  C   UNL     1      11.346  13.537  16.543  0.00  0.00    +0.000 C 
ENDBRANCH  15  18
ENDBRANCH   1  13
BRANCH   7  20
ATOM     20  S   UNL     1       4.805   4.322  17.036  0.00  0.00    +0.000 S 
ATOM     21  O   UNL     1       4.993   4.798  15.680  0.00  0.00    +0.000 OA
ATOM     22  O   UNL     1       4.941   2.913  17.352  0.00  0.00    +0.000 OA
BRANCH  20  23
ATOM     23  N   UNL     1       3.248   4.768  17.523  0.00  0.00    +0.000 NA
ATOM     24  C   UNL     1       3.057   5.678  18.656  0.00  0.00    +0.000 C 
ATOM     25  C   UNL     1       2.972   4.874  19.936  0.00  0.00    +0.000 C 
ATOM     26  C   UNL     1       1.871   3.801  19.868  0.00  0.00    +0.000 C 
ATOM     27  C   UNL     1       2.043   2.834  21.042  0.00  0.00    +0.000 C 
ATOM     28  C   UNL     1       1.826   3.024  18.536  0.00  0.00    +0.000 C 
ATOM     29  C   UNL     1       2.108   3.868  17.299  0.00  0.00    +0.000 C 
ENDBRANCH  20  23
ENDBRANCH   7  20
TORSDOF 5
ENDMDL
MODEL 6
REMARK VINA RESULT:      -7.9      5.720      8.386
REMARK  Name = 
REMARK  8 active torsions:
REMARK  status: ('A' for Active; 'I' for Inactive)
REMARK    1  A    between atoms: C_1  and  O_2
REMARK    2  A    between atoms: O_2  and  C_3
REMARK    3  A    between atoms: C_6  and  C_7
REMARK    4  A    between atoms: C_13  and  S_14
REMARK    5  A    between atoms: S_14  and  N_17
REMARK    6  A    between atoms: C_20  and  C_21
REMARK    7  A    between atoms: C_26  and  O_27
REMARK    8  A    between atoms: O_27  and  C_28
REMARK                            x       y       z     vdW  Elec       q    Type
REMARK                         _______ _______ _______ _____ _____    ______ ____
ROOT
ATOM      1  C   UNL     1       1.124   8.382  20.510  0.00  0.00    +0.000 C 
ATOM      2  O   UNL     1       1.817   8.709  19.557  0.00  0.00    +0.000 OA
ATOM      3  N   UNL     1       1.069   7.115  21.062  0.00  0.00    +0.000 N 
ATOM      4  C   UNL     1       1.784   6.026  20.603  0.00  0.00    +0.000 A 
ATOM      5  N   UNL     1       1.886   4.895  21.270  0.00  0.00    +0.000 NA
ATOM      6  N   UNL     1       2.769   4.005  20.658  0.00  0.00    +0.000 NA
ATOM      7  C   UNL     1       3.262   4.516  19.547  0.00  0.00    +0.000 A 
ATOM      8  S   UNL     1       2.589   6.018  19.098  0.00  0.00    +0.000 S 
ATOM      9  H   UNL     1       0.593   6.941  21.931  0.00  0.00    +0.000 HD
ENDROOT
BRANCH   1  13
ATOM     10  C   UNL     1      -1.097  11.482  22.530  0.00  0.00    +0.000 A 
ATOM     11  C   UNL     1      -0.837  10.248  23.134  0.00  0.00    +0.000 A 
ATOM     12  C   UNL     1      -0.147   9.252  22.447  0.00  0.00    +0.000 A 
ATOM     13  C   UNL     1       0.268   9.451  21.119  0.00  0.00    +0.000 A 
ATOM     14  C   UNL     1      -0.106  10.633  20.480  0.00  0.00    +0.000 A 
ATOM     15  C   UNL     1      -0.792  11.653  21.171  0.00  0.00    +0.000 A 
BRANCH  10  17
ATOM     16  C   UNL     1      -3.037  12.339  23.569  0.00  0.00    +0.000 C 
ATOM     17  O   UNL     1      -1.652  12.507  23.251  0.00  0.00    +0.000 OA
ENDBRANCH  10  17
BRANCH  15  18
ATOM     18  O   UNL     1      -1.036  12.734  20.363  0.00  0.00    +0.000 OA
ATOM     19  C   UNL     1      -0.033  13.726  20.210  0.00  0.00    +0.000 C 
ENDBRANCH  15  18
ENDBRANCH   1  13
BRANCH   7  20
ATOM     20  S   UNL     1       4.575   3.900  18.534  0.00  0.00    +0.000 S 
ATOM     21  O   UNL     1       5.384   3.096  19.429  0.00  0.00    +0.000 OA
ATOM     22  O   UNL     1       3.891   3.293  17.408  0.00  0.00    +0.000 OA
BRANCH  20  23
ATOM     23  N   UNL     1       5.571   5.105  17.888  0.00  0.00    +0.000 NA
ATOM     24  C   UNL     1       5.031   6.084  16.940  0.00  0.00    +0.000 C 
ATOM     25  C   UNL     1       5.168   5.546  15.532  0.00  0.00    +0.000 C 
ATOM     26  C   UNL     1       6.621   5.166  15.200  0.00  0.00    +0.000 C 
ATOM     27  C   UNL     1       6.642   4.350  13.906  0.00  0.00    +0.000 C 
ATOM     28  C   UNL     1       7.348   4.403  16.327  0.00  0.00    +0.000 C 
ATOM     29  C   UNL     1       7.015   4.881  17.735  0.00  0.00    +0.000 C 
ENDBRANCH  20  23
ENDBRANCH   7  20
TORSDOF 5
ENDMDL
MODEL 7
REMARK VINA RESULT:      -7.8      1.159      2.164
REMARK  Name = 
REMARK  8 active torsions:
REMARK  status: ('A' for Active; 'I' for Inactive)
REMARK    1  A    between atoms: C_1  and  O_2
REMARK    2  A    between atoms: O_2  and  C_3
REMARK    3  A    between atoms: C_6  and  C_7
REMARK    4  A    between atoms: C_13  and  S_14
REMARK    5  A    between atoms: S_14  and  N_17
REMARK    6  A    between atoms: C_20  and  C_21
REMARK    7  A    between atoms: C_26  and  O_27
REMARK    8  A    between atoms: O_27  and  C_28
REMARK                            x       y       z     vdW  Elec       q    Type
REMARK                         _______ _______ _______ _____ _____    ______ ____
ROOT
ATOM      1  C   UNL     1       8.213   8.943  18.351  0.00  0.00    +0.000 C 
ATOM      2  O   UNL     1       7.234   9.250  17.687  0.00  0.00    +0.000 OA
ATOM      3  N   UNL     1       8.471   7.684  18.863  0.00  0.00    +0.000 N 
ATOM      4  C   UNL     1       7.645   6.588  18.707  0.00  0.00    +0.000 A 
ATOM      5  N   UNL     1       8.009   5.359  19.008  0.00  0.00    +0.000 NA
ATOM      6  N   UNL     1       7.046   4.422  18.633  0.00  0.00    +0.000 NA
ATOM      7  C   UNL     1       5.998   5.010  18.091  0.00  0.00    +0.000 A 
ATOM      8  S   UNL     1       6.042   6.715  18.134  0.00  0.00    +0.000 S 
ATOM      9  H   UNL     1       9.360   7.457  19.276  0.00  0.00    +0.000 HD
ENDROOT
BRANCH   1  13
ATOM     10  C   UNL     1      10.890  12.281  18.917  0.00  0.00    +0.000 A 
ATOM     11  C   UNL     1      10.715  11.679  17.667  0.00  0.00    +0.000 A 
ATOM     12  C   UNL     1       9.872  10.581  17.518  0.00  0.00    +0.000 A 
ATOM     13  C   UNL     1       9.207  10.031  18.628  0.00  0.00    +0.000 A 
ATOM     14  C   UNL     1       9.485  10.554  19.891  0.00  0.00    +0.000 A 
ATOM     15  C   UNL     1      10.327  11.674  20.050  0.00  0.00    +0.000 A 
BRANCH  10  17
ATOM     16  C   UNL     1      10.832  14.641  18.992  0.00  0.00    +0.000 C 
ATOM     17  O   UNL     1      11.610  13.441  19.037  0.00  0.00    +0.000 OA
ENDBRANCH  10  17
BRANCH  15  18
ATOM     18  O   UNL     1      10.440  12.037  21.367  0.00  0.00    +0.000 OA
ATOM     19  C   UNL     1       9.318  12.596  22.032  0.00  0.00    +0.000 C 
ENDBRANCH  15  18
ENDBRANCH   1  13
BRANCH   7  20
ATOM     20  S   UNL     1       4.624   4.272  17.256  0.00  0.00    +0.000 S 
ATOM     21  O   UNL     1       4.830   4.590  15.857  0.00  0.00    +0.000 OA
ATOM     22  O   UNL     1       4.639   2.894  17.712  0.00  0.00    +0.000 OA
BRANCH  20  23
ATOM     23  N   UNL     1       3.122   4.903  17.710  0.00  0.00    +0.000 NA
ATOM     24  C   UNL     1       3.002   5.749  18.901  0.00  0.00    +0.000 C 
ATOM     25  C   UNL     1       2.736   4.877  20.110  0.00  0.00    +0.000 C 
ATOM     26  C   UNL     1       1.500   3.983  19.912  0.00  0.00    +0.000 C 
ATOM     27  C   UNL     1       1.470   2.921  21.014  0.00  0.00    +0.000 C 
ATOM     28  C   UNL     1       1.416   3.318  18.524  0.00  0.00    +0.000 C 
ATOM     29  C   UNL     1       1.880   4.197  17.368  0.00  0.00    +0.000 C 
ENDBRANCH  20  23
ENDBRANCH   7  20
TORSDOF 5
ENDMDL
MODEL 8
REMARK VINA RESULT:      -7.8      6.202      8.436
REMARK  Name = 
REMARK  8 active torsions:
REMARK  status: ('A' for Active; 'I' for Inactive)
REMARK    1  A    between atoms: C_1  and  O_2
REMARK    2  A    between atoms: O_2  and  C_3
REMARK    3  A    between atoms: C_6  and  C_7
REMARK    4  A    between atoms: C_13  and  S_14
REMARK    5  A    between atoms: S_14  and  N_17
REMARK    6  A    between atoms: C_20  and  C_21
REMARK    7  A    between atoms: C_26  and  O_27
REMARK    8  A    between atoms: O_27  and  C_28
REMARK                            x       y       z     vdW  Elec       q    Type
REMARK                         _______ _______ _______ _____ _____    ______ ____
ROOT
ATOM      1  C   UNL     1       0.632   8.983  20.630  0.00  0.00    +0.000 C 
ATOM      2  O   UNL     1       0.819   7.950  21.255  0.00  0.00    +0.000 OA
ATOM      3  N   UNL     1       1.189   9.287  19.401  0.00  0.00    +0.000 N 
ATOM      4  C   UNL     1       2.053   8.465  18.704  0.00  0.00    +0.000 A 
ATOM      5  N   UNL     1       2.394   8.671  17.449  0.00  0.00    +0.000 NA
ATOM      6  N   UNL     1       3.168   7.628  16.939  0.00  0.00    +0.000 NA
ATOM      7  C   UNL     1       3.383   6.706  17.857  0.00  0.00    +0.000 A 
ATOM      8  S   UNL     1       2.801   7.103  19.410  0.00  0.00    +0.000 S 
ATOM      9  H   UNL     1       0.886  10.087  18.870  0.00  0.00    +0.000 HD
ENDROOT
BRANCH   1  13
ATOM     10  C   UNL     1      -1.706  11.984  22.668  0.00  0.00    +0.000 A 
ATOM     11  C   UNL     1      -1.200  10.864  23.336  0.00  0.00    +0.000 A 
ATOM     12  C   UNL     1      -0.477   9.893  22.647  0.00  0.00    +0.000 A 
ATOM     13  C   UNL     1      -0.275   9.998  21.260  0.00  0.00    +0.000 A 
ATOM     14  C   UNL     1      -0.890  11.048  20.579  0.00  0.00    +0.000 A 
ATOM     15  C   UNL     1      -1.612  12.044  21.269  0.00  0.00    +0.000 A 
BRANCH  10  17
ATOM     16  C   UNL     1      -1.438  14.113  23.656  0.00  0.00    +0.000 C 
ATOM     17  O   UNL     1      -2.296  13.004  23.368  0.00  0.00    +0.000 OA
ENDBRANCH  10  17
BRANCH  15  18
ATOM     18  O   UNL     1      -2.108  12.992  20.413  0.00  0.00    +0.000 OA
ATOM     19  C   UNL     1      -3.474  12.938  20.033  0.00  0.00    +0.000 C 
ENDBRANCH  15  18
ENDBRANCH   1  13
BRANCH   7  20
ATOM     20  S   UNL     1       4.100   5.100  17.664  0.00  0.00    +0.000 S 
ATOM     21  O   UNL     1       4.809   5.163  16.401  0.00  0.00    +0.000 OA
ATOM     22  O   UNL     1       4.818   4.887  18.906  0.00  0.00    +0.000 OA
BRANCH  20  23
ATOM     23  N   UNL     1       2.968   3.849  17.552  0.00  0.00    +0.000 NA
ATOM     24  C   UNL     1       1.543   4.117  17.770  0.00  0.00    +0.000 C 
ATOM     25  C   UNL     1       1.223   3.959  19.241  0.00  0.00    +0.000 C 
ATOM     26  C   UNL     1       1.635   2.576  19.774  0.00  0.00    +0.000 C 
ATOM     27  C   UNL     1       1.579   2.592  21.303  0.00  0.00    +0.000 C 
ATOM     28  C   UNL     1       3.022   2.102  19.294  0.00  0.00    +0.000 C 
ATOM     29  C   UNL     1       3.352   2.463  17.850  0.00  0.00    +0.000 C 
ENDBRANCH  20  23
ENDBRANCH   7  20
TORSDOF 5
ENDMDL
MODEL 9
REMARK VINA RESULT:      -7.7      7.605     10.881
REMARK  Name = 
REMARK  8 active torsions:
REMARK  status: ('A' for Active; 'I' for Inactive)
REMARK    1  A    between atoms: C_1  and  O_2
REMARK    2  A    between atoms: O_2  and  C_3
REMARK    3  A    between atoms: C_6  and  C_7
REMARK    4  A    between atoms: C_13  and  S_14
REMARK    5  A    between atoms: S_14  and  N_17
REMARK    6  A    between atoms: C_20  and  C_21
REMARK    7  A    between atoms: C_26  and  O_27
REMARK    8  A    between atoms: O_27  and  C_28
REMARK                            x       y       z     vdW  Elec       q    Type
REMARK                         _______ _______ _______ _____ _____    ______ ____
ROOT
ATOM      1  C   UNL     1       1.743   7.916  20.055  0.00  0.00    +0.000 C 
ATOM      2  O   UNL     1       1.453   8.692  19.156  0.00  0.00    +0.000 OA
ATOM      3  N   UNL     1       1.454   8.099  21.395  0.00  0.00    +0.000 N 
ATOM      4  C   UNL     1       0.804   9.201  21.916  0.00  0.00    +0.000 A 
ATOM      5  N   UNL     1       0.346   9.254  23.149  0.00  0.00    +0.000 NA
ATOM      6  N   UNL     1      -0.386  10.418  23.385  0.00  0.00    +0.000 NA
ATOM      7  C   UNL     1      -0.414  11.186  22.313  0.00  0.00    +0.000 A 
ATOM      8  S   UNL     1       0.551  10.631  21.021  0.00  0.00    +0.000 S 
ATOM      9  H   UNL     1       1.588   7.362  22.067  0.00  0.00    +0.000 HD
ENDROOT
BRANCH   1  13
ATOM     10  C   UNL     1       3.526   4.153  18.921  0.00  0.00    +0.000 A 
ATOM     11  C   UNL     1       2.854   4.315  20.137  0.00  0.00    +0.000 A 
ATOM     12  C   UNL     1       2.318   5.549  20.494  0.00  0.00    +0.000 A 
ATOM     13  C   UNL     1       2.473   6.669  19.658  0.00  0.00    +0.000 A 
ATOM     14  C   UNL     1       3.253   6.533  18.509  0.00  0.00    +0.000 A 
ATOM     15  C   UNL     1       3.789   5.284  18.133  0.00  0.00    +0.000 A 
BRANCH  10  17
ATOM     16  C   UNL     1       2.936   2.148  17.820  0.00  0.00    +0.000 C 
ATOM     17  O   UNL     1       3.932   2.911  18.510  0.00  0.00    +0.000 OA
ENDBRANCH  10  17
BRANCH  15  18
ATOM     18  O   UNL     1       4.497   5.372  16.962  0.00  0.00    +0.000 OA
ATOM     19  C   UNL     1       5.911   5.273  16.997  0.00  0.00    +0.000 C 
ENDBRANCH  15  18
ENDBRANCH   1  13
BRANCH   7  20
ATOM     20  S   UNL     1      -1.381  12.638  22.018  0.00  0.00    +0.000 S 
ATOM     21  O   UNL     1      -0.809  13.644  22.890  0.00  0.00    +0.000 OA
ATOM     22  O   UNL     1      -1.339  12.796  20.576  0.00  0.00    +0.000 OA
BRANCH  20  23
ATOM     23  N   UNL     1      -3.013  12.473  22.429  0.00  0.00    +0.000 NA
ATOM     24  C   UNL     1      -4.050  13.118  21.618  0.00  0.00    +0.000 C 
ATOM     25  C   UNL     1      -4.302  14.515  22.145  0.00  0.00    +0.000 C 
ATOM     26  C   UNL     1      -4.662  14.508  23.641  0.00  0.00    +0.000 C 
ATOM     27  C   UNL     1      -4.594  15.939  24.178  0.00  0.00    +0.000 C 
ATOM     28  C   UNL     1      -3.786  13.572  24.498  0.00  0.00    +0.000 C 
ATOM     29  C   UNL     1      -3.415  12.256  23.825  0.00  0.00    +0.000 C 
ENDBRANCH  20  23
ENDBRANCH   7  20
TORSDOF 5
ENDMDL
