MODEL 1
REMARK VINA RESULT:      -8.0      0.000      0.000
REMARK  Name = 
REMARK  2 active torsions:
REMARK  status: ('A' for Active; 'I' for Inactive)
REMARK    1  A    between atoms: C_1  and  C_2
REMARK    2  A    between atoms: C_9  and  C_10
REMARK                            x       y       z     vdW  Elec       q    Type
REMARK                         _______ _______ _______ _____ _____    ______ ____
ROOT
ATOM      1  C   UNL     1       1.017   3.512  18.582  0.00  0.00    +0.000 C 
ATOM      2  C   UNL     1       2.502   3.713  18.595  0.00  0.00    +0.000 A 
ATOM      3  C   UNL     1       3.226   3.747  19.807  0.00  0.00    +0.000 A 
ATOM      4  C   UNL     1       4.616   3.920  19.817  0.00  0.00    +0.000 A 
ATOM      5  C   UNL     1       5.242   4.054  18.595  0.00  0.00    +0.000 A 
ATOM      6  C   UNL     1       4.544   4.035  17.386  0.00  0.00    +0.000 A 
ATOM      7  C   UNL     1       3.172   3.861  17.371  0.00  0.00    +0.000 A 
ATOM      8  C   UNL     1       5.541   4.209  16.321  0.00  0.00    +0.000 C 
ATOM      9  C   UNL     1       5.225   4.216  15.018  0.00  0.00    +0.000 C 
ATOM     10  C   UNL     1       6.880   4.343  17.019  0.00  0.00    +0.000 C 
ATOM     11  O   UNL     1       7.973   4.544  16.528  0.00  0.00    +0.000 OA
ATOM     12  N   UNL     1       6.602   4.223  18.368  0.00  0.00    +0.000 N 
ATOM     13  H   UNL     1       7.320   4.276  19.077  0.00  0.00    +0.000 HD
ENDROOT
BRANCH   9  14
ATOM     14  C   UNL     1       6.122   4.320  13.923  0.00  0.00    +0.000 A 
ATOM     15  C   UNL     1       6.206   3.613  12.739  0.00  0.00    +0.000 A 
ATOM     16  C   UNL     1       7.304   4.124  12.004  0.00  0.00    +0.000 A 
ATOM     17  C   UNL     1       7.843   5.152  12.741  0.00  0.00    +0.000 A 
ATOM     18  N   UNL     1       7.110   5.273  13.890  0.00  0.00    +0.000 N 
ATOM     19  H   UNL     1       7.333   5.911  14.649  0.00  0.00    +0.000 HD
ENDBRANCH   9  14
TORSDOF 1
ENDMDL
MODEL 2
REMARK VINA RESULT:      -7.6      1.791      5.962
REMARK  Name = 
REMARK  2 active torsions:
REMARK  status: ('A' for Active; 'I' for Inactive)
REMARK    1  A    between atoms: C_1  and  C_2
REMARK    2  A    between atoms: C_9  and  C_10
REMARK                            x       y       z     vdW  Elec       q    Type
REMARK                         _______ _______ _______ _____ _____    ______ ____
ROOT
ATOM      1  C   UNL     1       5.740   3.467  12.722  0.00  0.00    +0.000 C 
ATOM      2  C   UNL     1       5.994   4.043  14.082  0.00  0.00    +0.000 A 
ATOM      3  C   UNL     1       7.117   4.861  14.334  0.00  0.00    +0.000 A 
ATOM      4  C   UNL     1       7.345   5.410  15.602  0.00  0.00    +0.000 A 
ATOM      5  C   UNL     1       6.426   5.118  16.589  0.00  0.00    +0.000 A 
ATOM      6  C   UNL     1       5.315   4.302  16.364  0.00  0.00    +0.000 A 
ATOM      7  C   UNL     1       5.085   3.760  15.113  0.00  0.00    +0.000 A 
ATOM      8  C   UNL     1       4.586   4.224  17.637  0.00  0.00    +0.000 C 
ATOM      9  C   UNL     1       3.444   3.538  17.785  0.00  0.00    +0.000 C 
ATOM     10  C   UNL     1       5.378   5.058  18.625  0.00  0.00    +0.000 C 
ATOM     11  O   UNL     1       5.163   5.237  19.807  0.00  0.00    +0.000 OA
ATOM     12  N   UNL     1       6.445   5.560  17.905  0.00  0.00    +0.000 N 
ATOM     13  H   UNL     1       7.147   6.156  18.320  0.00  0.00    +0.000 HD
ENDROOT
BRANCH   9  14
ATOM     14  C   UNL     1       2.644   3.451  18.954  0.00  0.00    +0.000 A 
ATOM     15  C   UNL     1       1.355   3.877  19.214  0.00  0.00    +0.000 A 
ATOM     16  C   UNL     1       1.050   3.547  20.557  0.00  0.00    +0.000 A 
ATOM     17  C   UNL     1       2.147   2.898  21.075  0.00  0.00    +0.000 A 
ATOM     18  N   UNL     1       3.097   2.832  20.091  0.00  0.00    +0.000 N 
ATOM     19  H   UNL     1       4.035   2.464  20.224  0.00  0.00    +0.000 HD
ENDBRANCH   9  14
TORSDOF 1
ENDMDL
MODEL 3
REMARK VINA RESULT:      -7.5      1.566      5.793
REMARK  Name = 
REMARK  2 active torsions:
REMARK  status: ('A' for Active; 'I' for Inactive)
REMARK    1  A    between atoms: C_1  and  C_2
REMARK    2  A    between atoms: C_9  and  C_10
REMARK                            x       y       z     vdW  Elec       q    Type
REMARK                         _______ _______ _______ _____ _____    ______ ____
ROOT
ATOM      1  C   UNL     1       5.257   2.576  11.441  0.00  0.00    +0.000 C 
ATOM      2  C   UNL     1       5.896   3.441  12.485  0.00  0.00    +0.000 A 
ATOM      3  C   UNL     1       7.118   4.104  12.240  0.00  0.00    +0.000 A 
ATOM      4  C   UNL     1       7.706   4.924  13.211  0.00  0.00    +0.000 A 
ATOM      5  C   UNL     1       7.039   5.055  14.412  0.00  0.00    +0.000 A 
ATOM      6  C   UNL     1       5.835   4.399  14.678  0.00  0.00    +0.000 A 
ATOM      7  C   UNL     1       5.250   3.591  13.722  0.00  0.00    +0.000 A 
ATOM      8  C   UNL     1       5.443   4.779  16.043  0.00  0.00    +0.000 C 
ATOM      9  C   UNL     1       4.314   4.349  16.625  0.00  0.00    +0.000 C 
ATOM     10  C   UNL     1       6.531   5.704  16.549  0.00  0.00    +0.000 C 
ATOM     11  O   UNL     1       6.636   6.222  17.644  0.00  0.00    +0.000 OA
ATOM     12  N   UNL     1       7.428   5.820  15.504  0.00  0.00    +0.000 N 
ATOM     13  H   UNL     1       8.264   6.383  15.566  0.00  0.00    +0.000 HD
ENDROOT
BRANCH   9  14
ATOM     14  C   UNL     1       3.826   4.705  17.909  0.00  0.00    +0.000 A 
ATOM     15  C   UNL     1       3.651   3.960  19.060  0.00  0.00    +0.000 A 
ATOM     16  C   UNL     1       3.117   4.814  20.055  0.00  0.00    +0.000 A 
ATOM     17  C   UNL     1       3.010   6.068  19.499  0.00  0.00    +0.000 A 
ATOM     18  N   UNL     1       3.458   5.993  18.208  0.00  0.00    +0.000 N 
ATOM     19  H   UNL     1       3.424   6.761  17.543  0.00  0.00    +0.000 HD
ENDBRANCH   9  14
TORSDOF 1
ENDMDL
MODEL 4
REMARK VINA RESULT:      -7.4      1.768      2.053
REMARK  Name = 
REMARK  2 active torsions:
REMARK  status: ('A' for Active; 'I' for Inactive)
REMARK    1  A    between atoms: C_1  and  C_2
REMARK    2  A    between atoms: C_9  and  C_10
REMARK                            x       y       z     vdW  Elec       q    Type
REMARK                         _______ _______ _______ _____ _____    ______ ____
ROOT
ATOM      1  C   UNL     1       3.990   2.163  20.387  0.00  0.00    +0.000 C 
ATOM      2  C   UNL     1       4.020   3.427  19.581  0.00  0.00    +0.000 A 
ATOM      3  C   UNL     1       3.449   4.622  20.071  0.00  0.00    +0.000 A 
ATOM      4  C   UNL     1       3.492   5.806  19.323  0.00  0.00    +0.000 A 
ATOM      5  C   UNL     1       4.114   5.751  18.093  0.00  0.00    +0.000 A 
ATOM      6  C   UNL     1       4.675   4.577  17.586  0.00  0.00    +0.000 A 
ATOM      7  C   UNL     1       4.638   3.407  18.321  0.00  0.00    +0.000 A 
ATOM      8  C   UNL     1       5.232   4.912  16.268  0.00  0.00    +0.000 C 
ATOM      9  C   UNL     1       5.874   4.022  15.498  0.00  0.00    +0.000 C 
ATOM     10  C   UNL     1       4.936   6.383  16.050  0.00  0.00    +0.000 C 
ATOM     11  O   UNL     1       5.179   7.068  15.076  0.00  0.00    +0.000 OA
ATOM     12  N   UNL     1       4.282   6.797  17.195  0.00  0.00    +0.000 N 
ATOM     13  H   UNL     1       3.960   7.746  17.323  0.00  0.00    +0.000 HD
ENDROOT
BRANCH   9  14
ATOM     14  C   UNL     1       6.492   4.267  14.243  0.00  0.00    +0.000 A 
ATOM     15  C   UNL     1       6.269   3.722  12.993  0.00  0.00    +0.000 A 
ATOM     16  C   UNL     1       7.182   4.319  12.089  0.00  0.00    +0.000 A 
ATOM     17  C   UNL     1       7.917   5.238  12.802  0.00  0.00    +0.000 A 
ATOM     18  N   UNL     1       7.479   5.209  14.099  0.00  0.00    +0.000 N 
ATOM     19  H   UNL     1       7.898   5.739  14.858  0.00  0.00    +0.000 HD
ENDBRANCH   9  14
TORSDOF 1
ENDMDL
MODEL 5
REMARK VINA RESULT:      -7.2      1.682      1.781
REMARK  Name = 
REMARK  2 active torsions:
REMARK  status: ('A' for Active; 'I' for Inactive)
REMARK    1  A    between atoms: C_1  and  C_2
REMARK    2  A    between atoms: C_9  and  C_10
REMARK                            x       y       z     vdW  Elec       q    Type
REMARK                         _______ _______ _______ _____ _____    ______ ____
ROOT
ATOM      1  C   UNL     1       1.839   1.793  19.133  0.00  0.00    +0.000 C 
ATOM      2  C   UNL     1       2.427   3.109  18.724  0.00  0.00    +0.000 A 
ATOM      3  C   UNL     1       2.162   4.289  19.452  0.00  0.00    +0.000 A 
ATOM      4  C   UNL     1       2.725   5.516  19.077  0.00  0.00    +0.000 A 
ATOM      5  C   UNL     1       3.548   5.518  17.970  0.00  0.00    +0.000 A 
ATOM      6  C   UNL     1       3.814   4.365  17.229  0.00  0.00    +0.000 A 
ATOM      7  C   UNL     1       3.263   3.152  17.597  0.00  0.00    +0.000 A 
ATOM      8  C   UNL     1       4.715   4.764  16.138  0.00  0.00    +0.000 C 
ATOM      9  C   UNL     1       5.200   3.898  15.237  0.00  0.00    +0.000 C 
ATOM     10  C   UNL     1       4.939   6.254  16.305  0.00  0.00    +0.000 C 
ATOM     11  O   UNL     1       5.583   7.006  15.601  0.00  0.00    +0.000 OA
ATOM     12  N   UNL     1       4.216   6.609  17.429  0.00  0.00    +0.000 N 
ATOM     13  H   UNL     1       4.183   7.556  17.776  0.00  0.00    +0.000 HD
ENDROOT
BRANCH   9  14
ATOM     14  C   UNL     1       6.115   4.179  14.190  0.00  0.00    +0.000 A 
ATOM     15  C   UNL     1       6.164   3.749  12.877  0.00  0.00    +0.000 A 
ATOM     16  C   UNL     1       7.304   4.330  12.271  0.00  0.00    +0.000 A 
ATOM     17  C   UNL     1       7.906   5.127  13.216  0.00  0.00    +0.000 A 
ATOM     18  N   UNL     1       7.169   5.041  14.366  0.00  0.00    +0.000 N 
ATOM     19  H   UNL     1       7.427   5.477  15.247  0.00  0.00    +0.000 HD
ENDBRANCH   9  14
TORSDOF 1
ENDMDL
MODEL 6
REMARK VINA RESULT:      -7.2      1.525      5.809
REMARK  Name = 
REMARK  2 active torsions:
REMARK  status: ('A' for Active; 'I' for Inactive)
REMARK    1  A    between atoms: C_1  and  C_2
REMARK    2  A    between atoms: C_9  and  C_10
REMARK                            x       y       z     vdW  Elec       q    Type
REMARK                         _______ _______ _______ _____ _____    ______ ____
ROOT
ATOM      1  C   UNL     1       5.289   3.274  11.834  0.00  0.00    +0.000 C 
ATOM      2  C   UNL     1       5.895   3.806  13.098  0.00  0.00    +0.000 A 
ATOM      3  C   UNL     1       7.054   4.613  13.072  0.00  0.00    +0.000 A 
ATOM      4  C   UNL     1       7.610   5.122  14.252  0.00  0.00    +0.000 A 
ATOM      5  C   UNL     1       6.976   4.803  15.435  0.00  0.00    +0.000 A 
ATOM      6  C   UNL     1       5.836   3.999  15.484  0.00  0.00    +0.000 A 
ATOM      7  C   UNL     1       5.282   3.496  14.321  0.00  0.00    +0.000 A 
ATOM      8  C   UNL     1       5.462   3.884  16.900  0.00  0.00    +0.000 C 
ATOM      9  C   UNL     1       4.389   3.197  17.320  0.00  0.00    +0.000 C 
ATOM     10  C   UNL     1       6.493   4.684  17.671  0.00  0.00    +0.000 C 
ATOM     11  O   UNL     1       6.595   4.828  18.873  0.00  0.00    +0.000 OA
ATOM     12  N   UNL     1       7.342   5.205  16.713  0.00  0.00    +0.000 N 
ATOM     13  H   UNL     1       8.134   5.785  16.948  0.00  0.00    +0.000 HD
ENDROOT
BRANCH   9  14
ATOM     14  C   UNL     1       3.920   3.078  18.654  0.00  0.00    +0.000 A 
ATOM     15  C   UNL     1       2.772   3.544  19.265  0.00  0.00    +0.000 A 
ATOM     16  C   UNL     1       2.811   3.150  20.625  0.00  0.00    +0.000 A 
ATOM     17  C   UNL     1       3.966   2.424  20.804  0.00  0.00    +0.000 A 
ATOM     18  N   UNL     1       4.619   2.374  19.602  0.00  0.00    +0.000 N 
ATOM     19  H   UNL     1       5.536   1.959  19.465  0.00  0.00    +0.000 HD
ENDBRANCH   9  14
TORSDOF 1
ENDMDL
MODEL 7
REMARK VINA RESULT:      -7.1      2.187      2.679
REMARK  Name = 
REMARK  2 active torsions:
REMARK  status: ('A' for Active; 'I' for Inactive)
REMARK    1  A    between atoms: C_1  and  C_2
REMARK    2  A    between atoms: C_9  and  C_10
REMARK                            x       y       z     vdW  Elec       q    Type
REMARK                         _______ _______ _______ _____ _____    ______ ____
ROOT
ATOM      1  C   UNL     1       1.690   2.576  21.226  0.00  0.00    +0.000 C 
ATOM      2  C   UNL     1       2.076   3.811  20.469  0.00  0.00    +0.000 A 
ATOM      3  C   UNL     1       1.660   5.091  20.895  0.00  0.00    +0.000 A 
ATOM      4  C   UNL     1       2.034   6.245  20.196  0.00  0.00    +0.000 A 
ATOM      5  C   UNL     1       2.825   6.075  19.077  0.00  0.00    +0.000 A 
ATOM      6  C   UNL     1       3.238   4.817  18.634  0.00  0.00    +0.000 A 
ATOM      7  C   UNL     1       2.873   3.675  19.323  0.00  0.00    +0.000 A 
ATOM      8  C   UNL     1       4.049   5.042  17.429  0.00  0.00    +0.000 C 
ATOM      9  C   UNL     1       4.634   4.047  16.746  0.00  0.00    +0.000 C 
ATOM     10  C   UNL     1       4.062   6.541  17.207  0.00  0.00    +0.000 C 
ATOM     11  O   UNL     1       4.578   7.168  16.302  0.00  0.00    +0.000 OA
ATOM     12  N   UNL     1       3.320   7.071  18.246  0.00  0.00    +0.000 N 
ATOM     13  H   UNL     1       3.160   8.063  18.347  0.00  0.00    +0.000 HD
ENDROOT
BRANCH   9  14
ATOM     14  C   UNL     1       5.478   4.172  15.612  0.00  0.00    +0.000 A 
ATOM     15  C   UNL     1       5.322   3.749  14.305  0.00  0.00    +0.000 A 
ATOM     16  C   UNL     1       6.481   4.126  13.584  0.00  0.00    +0.000 A 
ATOM     17  C   UNL     1       7.303   4.798  14.459  0.00  0.00    +0.000 A 
ATOM     18  N   UNL     1       6.678   4.834  15.677  0.00  0.00    +0.000 N 
ATOM     19  H   UNL     1       7.094   5.210  16.524  0.00  0.00    +0.000 HD
ENDBRANCH   9  14
TORSDOF 1
ENDMDL
MODEL 8
REMARK VINA RESULT:      -7.1      3.671      4.134
REMARK  Name = 
REMARK  2 active torsions:
REMARK  status: ('A' for Active; 'I' for Inactive)
REMARK    1  A    between atoms: C_1  and  C_2
REMARK    2  A    between atoms: C_9  and  C_10
REMARK                            x       y       z     vdW  Elec       q    Type
REMARK                         _______ _______ _______ _____ _____    ______ ____
ROOT
ATOM      1  C   UNL     1       0.724  10.404  18.223  0.00  0.00    +0.000 C 
ATOM      2  C   UNL     1       1.368   9.168  18.773  0.00  0.00    +0.000 A 
ATOM      3  C   UNL     1       1.024   8.667  20.048  0.00  0.00    +0.000 A 
ATOM      4  C   UNL     1       1.616   7.503  20.554  0.00  0.00    +0.000 A 
ATOM      5  C   UNL     1       2.546   6.870  19.754  0.00  0.00    +0.000 A 
ATOM      6  C   UNL     1       2.908   7.355  18.496  0.00  0.00    +0.000 A 
ATOM      7  C   UNL     1       2.324   8.502  17.991  0.00  0.00    +0.000 A 
ATOM      8  C   UNL     1       3.913   6.426  17.961  0.00  0.00    +0.000 C 
ATOM      9  C   UNL     1       4.470   6.569  16.750  0.00  0.00    +0.000 C 
ATOM     10  C   UNL     1       4.110   5.365  19.025  0.00  0.00    +0.000 C 
ATOM     11  O   UNL     1       4.879   4.424  19.023  0.00  0.00    +0.000 OA
ATOM     12  N   UNL     1       3.243   5.706  20.046  0.00  0.00    +0.000 N 
ATOM     13  H   UNL     1       3.166   5.165  20.896  0.00  0.00    +0.000 HD
ENDROOT
BRANCH   9  14
ATOM     14  C   UNL     1       5.401   5.697  16.129  0.00  0.00    +0.000 A 
ATOM     15  C   UNL     1       5.347   4.998  14.939  0.00  0.00    +0.000 A 
ATOM     16  C   UNL     1       6.551   4.264  14.809  0.00  0.00    +0.000 A 
ATOM     17  C   UNL     1       7.326   4.557  15.907  0.00  0.00    +0.000 A 
ATOM     18  N   UNL     1       6.628   5.437  16.689  0.00  0.00    +0.000 N 
ATOM     19  H   UNL     1       6.937   5.767  17.599  0.00  0.00    +0.000 HD
ENDBRANCH   9  14
TORSDOF 1
ENDMDL
MODEL 9
REMARK VINA RESULT:      -7.0      2.600      6.437
REMARK  Name = 
REMARK  2 active torsions:
REMARK  status: ('A' for Active; 'I' for Inactive)
REMARK    1  A    between atoms: C_1  and  C_2
REMARK    2  A    between atoms: C_9  and  C_10
REMARK                            x       y       z     vdW  Elec       q    Type
REMARK                         _______ _______ _______ _____ _____    ______ ____
ROOT
ATOM      1  C   UNL     1       7.843   7.901  17.800  0.00  0.00    +0.000 C 
ATOM      2  C   UNL     1       7.134   6.646  17.391  0.00  0.00    +0.000 A 
ATOM      3  C   UNL     1       7.516   5.933  16.233  0.00  0.00    +0.000 A 
ATOM      4  C   UNL     1       6.863   4.751  15.860  0.00  0.00    +0.000 A 
ATOM      5  C   UNL     1       5.835   4.317  16.673  0.00  0.00    +0.000 A 
ATOM      6  C   UNL     1       5.434   5.014  17.815  0.00  0.00    +0.000 A 
ATOM      7  C   UNL     1       6.078   6.178  18.188  0.00  0.00    +0.000 A 
ATOM      8  C   UNL     1       4.323   4.253  18.403  0.00  0.00    +0.000 C 
ATOM      9  C   UNL     1       3.704   4.620  19.534  0.00  0.00    +0.000 C 
ATOM     10  C   UNL     1       4.107   3.059  17.495  0.00  0.00    +0.000 C 
ATOM     11  O   UNL     1       3.263   2.188  17.578  0.00  0.00    +0.000 OA
ATOM     12  N   UNL     1       5.062   3.176  16.503  0.00  0.00    +0.000 N 
ATOM     13  H   UNL     1       5.148   2.508  15.750  0.00  0.00    +0.000 HD
ENDROOT
BRANCH   9  14
ATOM     14  C   UNL     1       2.666   3.922  20.204  0.00  0.00    +0.000 A 
ATOM     15  C   UNL     1       2.612   3.346  21.459  0.00  0.00    +0.000 A 
ATOM     16  C   UNL     1       1.330   2.765  21.618  0.00  0.00    +0.000 A 
ATOM     17  C   UNL     1       0.620   3.029  20.469  0.00  0.00    +0.000 A 
ATOM     18  N   UNL     1       1.432   3.743  19.630  0.00  0.00    +0.000 N 
ATOM     19  H   UNL     1       1.184   4.011  18.682  0.00  0.00    +0.000 HD
ENDBRANCH   9  14
TORSDOF 1
ENDMDL
