MODEL 1
REMARK VINA RESULT:      -5.8      0.000      0.000
REMARK  Name = 
REMARK  7 active torsions:
REMARK  status: ('A' for Active; 'I' for Inactive)
REMARK    1  A    between atoms: C_1  and  S_2
REMARK    2  A    between atoms: S_2  and  C_3
REMARK    3  A    between atoms: C_3  and  C_4
REMARK    4  A    between atoms: C_4  and  C_5
REMARK    5  A    between atoms: C_5  and  N_6
REMARK    6  A    between atoms: C_5  and  C_7
REMARK    7  A    between atoms: C_10  and  C_11
REMARK                            x       y       z     vdW  Elec       q    Type
REMARK                         _______ _______ _______ _____ _____    ______ ____
ROOT
ATOM      1  C   UNL     1       4.947   4.747  18.902  0.00  0.00    +0.000 C 
ATOM      2  O   UNL     1       5.934   4.239  19.433  0.00  0.00    +0.000 OA
ATOM      3  N   UNL     1       3.654   4.349  19.216  0.00  0.00    +0.000 N 
ATOM      4  C   UNL     1       3.283   3.295  20.250  0.00  0.00    +0.000 C 
ATOM      5  C   UNL     1       1.924   2.782  19.764  0.00  0.00    +0.000 C 
ATOM      6  C   UNL     1       1.311   3.983  19.085  0.00  0.00    +0.000 C 
ATOM      7  C   UNL     1       1.596   4.276  17.645  0.00  0.00    +0.000 C 
ATOM      8  C   UNL     1       2.442   4.917  18.700  0.00  0.00    +0.000 C 
ENDROOT
BRANCH   4   9
ATOM      9  C   UNL     1       4.366   2.241  20.408  0.00  0.00    +0.000 C 
ATOM     10  N   UNL     1       5.264   1.366  20.539  0.00  0.00    +0.000 NA
ENDBRANCH   4   9
BRANCH   1  11
ATOM     11  C   UNL     1       5.175   5.984  17.955  0.00  0.00    +0.000 C 
BRANCH  11  12
ATOM     12  N   UNL     1       6.665   6.261  18.020  0.00  0.00    +0.000 NA
ATOM     13  H   UNL     1       6.733   7.285  18.143  0.00  0.00    +0.000 HD
ATOM     14  H   UNL     1       7.024   6.116  17.074  0.00  0.00    +0.000 HD
ENDBRANCH  11  12
BRANCH  11  15
ATOM     15  C   UNL     1       4.876   5.779  16.454  0.00  0.00    +0.000 C 
BRANCH  15  16
ATOM     16  C   UNL     1       5.319   4.489  15.761  0.00  0.00    +0.000 C 
BRANCH  16  18
ATOM     17  C   UNL     1       6.155   3.676  13.170  0.00  0.00    +0.000 C 
ATOM     18  S   UNL     1       6.728   4.599  14.614  0.00  0.00    +0.000 S 
ENDBRANCH  16  18
ENDBRANCH  15  16
ENDBRANCH  11  15
ENDBRANCH   1  11
TORSDOF 6
ENDMDL
MODEL 2
REMARK VINA RESULT:      -5.8      2.763      5.338
REMARK  Name = 
REMARK  7 active torsions:
REMARK  status: ('A' for Active; 'I' for Inactive)
REMARK    1  A    between atoms: C_1  and  S_2
REMARK    2  A    between atoms: S_2  and  C_3
REMARK    3  A    between atoms: C_3  and  C_4
REMARK    4  A    between atoms: C_4  and  C_5
REMARK    5  A    between atoms: C_5  and  N_6
REMARK    6  A    between atoms: C_5  and  C_7
REMARK    7  A    between atoms: C_10  and  C_11
REMARK                            x       y       z     vdW  Elec       q    Type
REMARK                         _______ _______ _______ _____ _____    ______ ____
ROOT
ATOM      1  C   UNL     1       4.600   3.759  17.869  0.00  0.00    +0.000 C 
ATOM      2  O   UNL     1       4.797   3.722  19.083  0.00  0.00    +0.000 OA
ATOM      3  N   UNL     1       5.594   4.121  16.971  0.00  0.00    +0.000 N 
ATOM      4  C   UNL     1       7.029   4.475  17.339  0.00  0.00    +0.000 C 
ATOM      5  C   UNL     1       7.479   5.383  16.191  0.00  0.00    +0.000 C 
ATOM      6  C   UNL     1       6.696   4.874  15.005  0.00  0.00    +0.000 C 
ATOM      7  C   UNL     1       5.315   5.381  14.725  0.00  0.00    +0.000 C 
ATOM      8  C   UNL     1       5.482   4.138  15.541  0.00  0.00    +0.000 C 
ENDROOT
BRANCH   4   9
ATOM      9  C   UNL     1       7.131   5.075  18.731  0.00  0.00    +0.000 C 
ATOM     10  N   UNL     1       7.216   5.574  19.886  0.00  0.00    +0.000 NA
ENDBRANCH   4   9
BRANCH   1  11
ATOM     11  C   UNL     1       3.217   3.232  17.332  0.00  0.00    +0.000 C 
BRANCH  11  12
ATOM     12  N   UNL     1       3.119   1.802  17.833  0.00  0.00    +0.000 NA
ATOM     13  H   UNL     1       2.409   1.840  18.584  0.00  0.00    +0.000 HD
ATOM     14  H   UNL     1       3.987   1.618  18.341  0.00  0.00    +0.000 HD
ENDBRANCH  11  12
BRANCH  11  15
ATOM     15  C   UNL     1       1.948   3.927  17.868  0.00  0.00    +0.000 C 
BRANCH  15  16
ATOM     16  C   UNL     1       1.121   3.256  18.967  0.00  0.00    +0.000 C 
BRANCH  16  18
ATOM     17  C   UNL     1       2.388   2.892  21.483  0.00  0.00    +0.000 C 
ATOM     18  S   UNL     1       1.213   3.973  20.638  0.00  0.00    +0.000 S 
ENDBRANCH  16  18
ENDBRANCH  15  16
ENDBRANCH  11  15
ENDBRANCH   1  11
TORSDOF 6
ENDMDL
MODEL 3
REMARK VINA RESULT:      -5.7      2.574      5.051
REMARK  Name = 
REMARK  7 active torsions:
REMARK  status: ('A' for Active; 'I' for Inactive)
REMARK    1  A    between atoms: C_1  and  S_2
REMARK    2  A    between atoms: S_2  and  C_3
REMARK    3  A    between atoms: C_3  and  C_4
REMARK    4  A    between atoms: C_4  and  C_5
REMARK    5  A    between atoms: C_5  and  N_6
REMARK    6  A    between atoms: C_5  and  C_7
REMARK    7  A    between atoms: C_10  and  C_11
REMARK                            x       y       z     vdW  Elec       q    Type
REMARK                         _______ _______ _______ _____ _____    ______ ____
ROOT
ATOM      1  C   UNL     1       4.857   3.638  18.169  0.00  0.00    +0.000 C 
ATOM      2  O   UNL     1       5.163   3.544  19.357  0.00  0.00    +0.000 OA
ATOM      3  N   UNL     1       5.734   4.142  17.219  0.00  0.00    +0.000 N 
ATOM      4  C   UNL     1       7.161   4.599  17.491  0.00  0.00    +0.000 C 
ATOM      5  C   UNL     1       7.429   5.613  16.375  0.00  0.00    +0.000 C 
ATOM      6  C   UNL     1       6.590   5.109  15.225  0.00  0.00    +0.000 C 
ATOM      7  C   UNL     1       5.152   5.506  15.096  0.00  0.00    +0.000 C 
ATOM      8  C   UNL     1       5.495   4.236  15.808  0.00  0.00    +0.000 C 
ENDROOT
BRANCH   4   9
ATOM      9  C   UNL     1       7.335   5.120  18.908  0.00  0.00    +0.000 C 
ATOM     10  N   UNL     1       7.480   5.552  20.084  0.00  0.00    +0.000 NA
ENDBRANCH   4   9
BRANCH   1  11
ATOM     11  C   UNL     1       3.481   3.022  17.713  0.00  0.00    +0.000 C 
BRANCH  11  12
ATOM     12  N   UNL     1       3.188   1.925  18.720  0.00  0.00    +0.000 NA
ATOM     13  H   UNL     1       2.295   1.512  18.399  0.00  0.00    +0.000 HD
ATOM     14  H   UNL     1       2.927   2.397  19.589  0.00  0.00    +0.000 HD
ENDBRANCH  11  12
BRANCH  11  15
ATOM     15  C   UNL     1       2.248   3.950  17.768  0.00  0.00    +0.000 C 
BRANCH  15  16
ATOM     16  C   UNL     1       2.424   5.424  18.134  0.00  0.00    +0.000 C 
BRANCH  16  18
ATOM     17  C   UNL     1       1.362   4.482  20.596  0.00  0.00    +0.000 C 
ATOM     18  S   UNL     1       2.278   5.872  19.893  0.00  0.00    +0.000 S 
ENDBRANCH  16  18
ENDBRANCH  15  16
ENDBRANCH  11  15
ENDBRANCH   1  11
TORSDOF 6
ENDMDL
MODEL 4
REMARK VINA RESULT:      -5.5      1.678      1.992
REMARK  Name = 
REMARK  7 active torsions:
REMARK  status: ('A' for Active; 'I' for Inactive)
REMARK    1  A    between atoms: C_1  and  S_2
REMARK    2  A    between atoms: S_2  and  C_3
REMARK    3  A    between atoms: C_3  and  C_4
REMARK    4  A    between atoms: C_4  and  C_5
REMARK    5  A    between atoms: C_5  and  N_6
REMARK    6  A    between atoms: C_5  and  C_7
REMARK    7  A    between atoms: C_10  and  C_11
REMARK                            x       y       z     vdW  Elec       q    Type
REMARK                         _______ _______ _______ _____ _____    ______ ____
ROOT
ATOM      1  C   UNL     1       5.520   4.688  19.212  0.00  0.00    +0.000 C 
ATOM      2  O   UNL     1       5.862   3.522  19.410  0.00  0.00    +0.000 OA
ATOM      3  N   UNL     1       4.186   5.071  19.193  0.00  0.00    +0.000 N 
ATOM      4  C   UNL     1       3.000   4.149  19.442  0.00  0.00    +0.000 C 
ATOM      5  C   UNL     1       1.852   4.834  18.693  0.00  0.00    +0.000 C 
ATOM      6  C   UNL     1       2.197   6.301  18.776  0.00  0.00    +0.000 C 
ATOM      7  C   UNL     1       3.097   6.934  17.761  0.00  0.00    +0.000 C 
ATOM      8  C   UNL     1       3.689   6.407  19.029  0.00  0.00    +0.000 C 
ENDROOT
BRANCH   4   9
ATOM      9  C   UNL     1       3.292   2.716  19.031  0.00  0.00    +0.000 C 
ATOM     10  N   UNL     1       3.534   1.527  18.689  0.00  0.00    +0.000 NA
ENDBRANCH   4   9
BRANCH   1  11
ATOM     11  C   UNL     1       6.649   5.782  19.130  0.00  0.00    +0.000 C 
BRANCH  11  12
ATOM     12  N   UNL     1       7.680   5.363  20.161  0.00  0.00    +0.000 NA
ATOM     13  H   UNL     1       7.605   4.332  20.197  0.00  0.00    +0.000 HD
ATOM     14  H   UNL     1       7.310   5.655  21.069  0.00  0.00    +0.000 HD
ENDBRANCH  11  12
BRANCH  11  15
ATOM     15  C   UNL     1       7.432   5.880  17.804  0.00  0.00    +0.000 C 
BRANCH  15  16
ATOM     16  C   UNL     1       7.196   4.843  16.704  0.00  0.00    +0.000 C 
BRANCH  16  18
ATOM     17  C   UNL     1       6.291   4.039  14.134  0.00  0.00    +0.000 C 
ATOM     18  S   UNL     1       5.940   5.231  15.445  0.00  0.00    +0.000 S 
ENDBRANCH  16  18
ENDBRANCH  15  16
ENDBRANCH  11  15
ENDBRANCH   1  11
TORSDOF 6
ENDMDL
MODEL 5
REMARK VINA RESULT:      -5.4      2.533      4.909
REMARK  Name = 
REMARK  7 active torsions:
REMARK  status: ('A' for Active; 'I' for Inactive)
REMARK    1  A    between atoms: C_1  and  S_2
REMARK    2  A    between atoms: S_2  and  C_3
REMARK    3  A    between atoms: C_3  and  C_4
REMARK    4  A    between atoms: C_4  and  C_5
REMARK    5  A    between atoms: C_5  and  N_6
REMARK    6  A    between atoms: C_5  and  C_7
REMARK    7  A    between atoms: C_10  and  C_11
REMARK                            x       y       z     vdW  Elec       q    Type
REMARK                         _______ _______ _______ _____ _____    ______ ____
ROOT
ATOM      1  C   UNL     1       5.000   3.651  18.435  0.00  0.00    +0.000 C 
ATOM      2  O   UNL     1       5.399   3.533  19.594  0.00  0.00    +0.000 OA
ATOM      3  N   UNL     1       5.790   4.203  17.437  0.00  0.00    +0.000 N 
ATOM      4  C   UNL     1       7.222   4.690  17.612  0.00  0.00    +0.000 C 
ATOM      5  C   UNL     1       7.380   5.741  16.509  0.00  0.00    +0.000 C 
ATOM      6  C   UNL     1       6.467   5.247  15.413  0.00  0.00    +0.000 C 
ATOM      7  C   UNL     1       5.015   5.610  15.404  0.00  0.00    +0.000 C 
ATOM      8  C   UNL     1       5.441   4.330  16.051  0.00  0.00    +0.000 C 
ENDROOT
BRANCH   4   9
ATOM      9  C   UNL     1       7.492   5.177  19.026  0.00  0.00    +0.000 C 
ATOM     10  N   UNL     1       7.716   5.580  20.200  0.00  0.00    +0.000 NA
ENDBRANCH   4   9
BRANCH   1  11
ATOM     11  C   UNL     1       3.609   3.012  18.067  0.00  0.00    +0.000 C 
BRANCH  11  12
ATOM     12  N   UNL     1       3.877   1.523  17.953  0.00  0.00    +0.000 NA
ATOM     13  H   UNL     1       2.972   1.079  18.182  0.00  0.00    +0.000 HD
ATOM     14  H   UNL     1       4.466   1.277  18.751  0.00  0.00    +0.000 HD
ENDBRANCH  11  12
BRANCH  11  15
ATOM     15  C   UNL     1       2.485   3.132  19.119  0.00  0.00    +0.000 C 
BRANCH  15  16
ATOM     16  C   UNL     1       1.608   4.385  19.153  0.00  0.00    +0.000 C 
BRANCH  16  18
ATOM     17  C   UNL     1       2.945   6.762  18.354  0.00  0.00    +0.000 C 
ATOM     18  S   UNL     1       2.349   5.905  19.829  0.00  0.00    +0.000 S 
ENDBRANCH  16  18
ENDBRANCH  15  16
ENDBRANCH  11  15
ENDBRANCH   1  11
TORSDOF 6
ENDMDL
MODEL 6
REMARK VINA RESULT:      -5.4      1.743      2.298
REMARK  Name = 
REMARK  7 active torsions:
REMARK  status: ('A' for Active; 'I' for Inactive)
REMARK    1  A    between atoms: C_1  and  S_2
REMARK    2  A    between atoms: S_2  and  C_3
REMARK    3  A    between atoms: C_3  and  C_4
REMARK    4  A    between atoms: C_4  and  C_5
REMARK    5  A    between atoms: C_5  and  N_6
REMARK    6  A    between atoms: C_5  and  C_7
REMARK    7  A    between atoms: C_10  and  C_11
REMARK                            x       y       z     vdW  Elec       q    Type
REMARK                         _______ _______ _______ _____ _____    ______ ____
ROOT
ATOM      1  C   UNL     1       4.178   4.006  18.653  0.00  0.00    +0.000 C 
ATOM      2  O   UNL     1       5.326   3.759  19.021  0.00  0.00    +0.000 OA
ATOM      3  N   UNL     1       3.071   3.673  19.422  0.00  0.00    +0.000 N 
ATOM      4  C   UNL     1       3.115   3.014  20.794  0.00  0.00    +0.000 C 
ATOM      5  C   UNL     1       1.764   2.298  20.889  0.00  0.00    +0.000 C 
ATOM      6  C   UNL     1       0.841   3.165  20.067  0.00  0.00    +0.000 C 
ATOM      7  C   UNL     1       0.722   2.967  18.588  0.00  0.00    +0.000 C 
ATOM      8  C   UNL     1       1.702   3.969  19.111  0.00  0.00    +0.000 C 
ENDROOT
BRANCH   4   9
ATOM      9  C   UNL     1       4.340   2.133  20.966  0.00  0.00    +0.000 C 
ATOM     10  N   UNL     1       5.357   1.401  21.109  0.00  0.00    +0.000 NA
ENDBRANCH   4   9
BRANCH   1  11
ATOM     11  C   UNL     1       3.992   4.858  17.343  0.00  0.00    +0.000 C 
BRANCH  11  12
ATOM     12  N   UNL     1       3.725   6.272  17.827  0.00  0.00    +0.000 NA
ATOM     13  H   UNL     1       2.699   6.314  17.948  0.00  0.00    +0.000 HD
ATOM     14  H   UNL     1       3.890   6.884  17.025  0.00  0.00    +0.000 HD
ENDBRANCH  11  12
BRANCH  11  15
ATOM     15  C   UNL     1       5.216   4.983  16.411  0.00  0.00    +0.000 C 
BRANCH  15  16
ATOM     16  C   UNL     1       6.046   6.268  16.416  0.00  0.00    +0.000 C 
BRANCH  16  18
ATOM     17  C   UNL     1       7.783   8.168  17.618  0.00  0.00    +0.000 C 
ATOM     18  S   UNL     1       7.354   6.413  17.673  0.00  0.00    +0.000 S 
ENDBRANCH  16  18
ENDBRANCH  15  16
ENDBRANCH  11  15
ENDBRANCH   1  11
TORSDOF 6
ENDMDL
MODEL 7
REMARK VINA RESULT:      -5.3      2.623      5.366
REMARK  Name = 
REMARK  7 active torsions:
REMARK  status: ('A' for Active; 'I' for Inactive)
REMARK    1  A    between atoms: C_1  and  S_2
REMARK    2  A    between atoms: S_2  and  C_3
REMARK    3  A    between atoms: C_3  and  C_4
REMARK    4  A    between atoms: C_4  and  C_5
REMARK    5  A    between atoms: C_5  and  N_6
REMARK    6  A    between atoms: C_5  and  C_7
REMARK    7  A    between atoms: C_10  and  C_11
REMARK                            x       y       z     vdW  Elec       q    Type
REMARK                         _______ _______ _______ _____ _____    ______ ____
ROOT
ATOM      1  C   UNL     1       4.246   4.250  18.390  0.00  0.00    +0.000 C 
ATOM      2  O   UNL     1       3.594   4.855  19.241  0.00  0.00    +0.000 OA
ATOM      3  N   UNL     1       4.909   4.909  17.364  0.00  0.00    +0.000 N 
ATOM      4  C   UNL     1       4.957   6.419  17.172  0.00  0.00    +0.000 C 
ATOM      5  C   UNL     1       5.196   6.579  15.667  0.00  0.00    +0.000 C 
ATOM      6  C   UNL     1       5.998   5.354  15.300  0.00  0.00    +0.000 C 
ATOM      7  C   UNL     1       5.316   4.070  14.948  0.00  0.00    +0.000 C 
ATOM      8  C   UNL     1       5.740   4.304  16.364  0.00  0.00    +0.000 C 
ENDROOT
BRANCH   4   9
ATOM      9  C   UNL     1       3.716   7.105  17.717  0.00  0.00    +0.000 C 
ATOM     10  N   UNL     1       2.686   7.675  18.170  0.00  0.00    +0.000 NA
ENDBRANCH   4   9
BRANCH   1  11
ATOM     11  C   UNL     1       4.442   2.699  18.578  0.00  0.00    +0.000 C 
BRANCH  11  12
ATOM     12  N   UNL     1       5.119   2.549  19.928  0.00  0.00    +0.000 NA
ATOM     13  H   UNL     1       5.630   3.438  20.062  0.00  0.00    +0.000 HD
ATOM     14  H   UNL     1       5.869   1.867  19.797  0.00  0.00    +0.000 HD
ENDBRANCH  11  12
BRANCH  11  15
ATOM     15  C   UNL     1       3.164   1.840  18.678  0.00  0.00    +0.000 C 
BRANCH  15  16
ATOM     16  C   UNL     1       1.818   2.429  18.250  0.00  0.00    +0.000 C 
BRANCH  16  18
ATOM     17  C   UNL     1       1.597   2.590  21.079  0.00  0.00    +0.000 C 
ATOM     18  S   UNL     1       0.720   3.045  19.566  0.00  0.00    +0.000 S 
ENDBRANCH  16  18
ENDBRANCH  15  16
ENDBRANCH  11  15
ENDBRANCH   1  11
TORSDOF 6
ENDMDL
MODEL 8
REMARK VINA RESULT:      -5.3      2.378      3.239
REMARK  Name = 
REMARK  7 active torsions:
REMARK  status: ('A' for Active; 'I' for Inactive)
REMARK    1  A    between atoms: C_1  and  S_2
REMARK    2  A    between atoms: S_2  and  C_3
REMARK    3  A    between atoms: C_3  and  C_4
REMARK    4  A    between atoms: C_4  and  C_5
REMARK    5  A    between atoms: C_5  and  N_6
REMARK    6  A    between atoms: C_5  and  C_7
REMARK    7  A    between atoms: C_10  and  C_11
REMARK                            x       y       z     vdW  Elec       q    Type
REMARK                         _______ _______ _______ _____ _____    ______ ____
ROOT
ATOM      1  C   UNL     1       6.477   5.453  16.511  0.00  0.00    +0.000 C 
ATOM      2  O   UNL     1       7.572   5.815  16.941  0.00  0.00    +0.000 OA
ATOM      3  N   UNL     1       5.367   5.326  17.335  0.00  0.00    +0.000 N 
ATOM      4  C   UNL     1       5.334   5.640  18.825  0.00  0.00    +0.000 C 
ATOM      5  C   UNL     1       4.196   4.760  19.350  0.00  0.00    +0.000 C 
ATOM      6  C   UNL     1       3.246   4.668  18.180  0.00  0.00    +0.000 C 
ATOM      7  C   UNL     1       3.429   3.621  17.126  0.00  0.00    +0.000 C 
ATOM      8  C   UNL     1       4.040   4.971  16.923  0.00  0.00    +0.000 C 
ENDROOT
BRANCH   4   9
ATOM      9  C   UNL     1       6.686   5.429  19.485  0.00  0.00    +0.000 C 
ATOM     10  N   UNL     1       7.808   5.254  20.032  0.00  0.00    +0.000 NA
ENDBRANCH   4   9
BRANCH   1  11
ATOM     11  C   UNL     1       6.318   5.281  14.954  0.00  0.00    +0.000 C 
BRANCH  11  12
ATOM     12  N   UNL     1       7.691   5.583  14.383  0.00  0.00    +0.000 NA
ATOM     13  H   UNL     1       8.156   4.661  14.325  0.00  0.00    +0.000 HD
ATOM     14  H   UNL     1       8.210   6.060  15.123  0.00  0.00    +0.000 HD
ENDBRANCH  11  12
BRANCH  11  15
ATOM     15  C   UNL     1       5.977   3.866  14.440  0.00  0.00    +0.000 C 
BRANCH  15  16
ATOM     16  C   UNL     1       6.441   3.432  13.049  0.00  0.00    +0.000 C 
BRANCH  16  18
ATOM     17  C   UNL     1       5.835   1.377  11.182  0.00  0.00    +0.000 C 
ATOM     18  S   UNL     1       5.160   2.907  11.866  0.00  0.00    +0.000 S 
ENDBRANCH  16  18
ENDBRANCH  15  16
ENDBRANCH  11  15
ENDBRANCH   1  11
TORSDOF 6
ENDMDL
MODEL 9
REMARK VINA RESULT:      -5.3      3.672      4.991
REMARK  Name = 
REMARK  7 active torsions:
REMARK  status: ('A' for Active; 'I' for Inactive)
REMARK    1  A    between atoms: C_1  and  S_2
REMARK    2  A    between atoms: S_2  and  C_3
REMARK    3  A    between atoms: C_3  and  C_4
REMARK    4  A    between atoms: C_4  and  C_5
REMARK    5  A    between atoms: C_5  and  N_6
REMARK    6  A    between atoms: C_5  and  C_7
REMARK    7  A    between atoms: C_10  and  C_11
REMARK                            x       y       z     vdW  Elec       q    Type
REMARK                         _______ _______ _______ _____ _____    ______ ____
ROOT
ATOM      1  C   UNL     1       6.872   5.988  17.056  0.00  0.00    +0.000 C 
ATOM      2  O   UNL     1       7.601   5.766  16.090  0.00  0.00    +0.000 OA
ATOM      3  N   UNL     1       5.774   5.191  17.349  0.00  0.00    +0.000 N 
ATOM      4  C   UNL     1       5.350   3.953  16.572  0.00  0.00    +0.000 C 
ATOM      5  C   UNL     1       3.845   3.859  16.844  0.00  0.00    +0.000 C 
ATOM      6  C   UNL     1       3.695   4.448  18.226  0.00  0.00    +0.000 C 
ATOM      7  C   UNL     1       3.529   5.923  18.414  0.00  0.00    +0.000 C 
ATOM      8  C   UNL     1       4.901   5.331  18.479  0.00  0.00    +0.000 C 
ENDROOT
BRANCH   4   9
ATOM      9  C   UNL     1       5.749   4.031  15.108  0.00  0.00    +0.000 C 
ATOM     10  N   UNL     1       6.081   4.096  13.893  0.00  0.00    +0.000 NA
ENDBRANCH   4   9
BRANCH   1  11
ATOM     11  C   UNL     1       7.304   7.123  18.058  0.00  0.00    +0.000 C 
BRANCH  11  12
ATOM     12  N   UNL     1       8.180   6.428  19.085  0.00  0.00    +0.000 NA
ATOM     13  H   UNL     1       8.969   7.080  19.236  0.00  0.00    +0.000 HD
ATOM     14  H   UNL     1       8.618   5.641  18.601  0.00  0.00    +0.000 HD
ENDBRANCH  11  12
BRANCH  11  15
ATOM     15  C   UNL     1       8.183   8.258  17.491  0.00  0.00    +0.000 C 
BRANCH  15  16
ATOM     16  C   UNL     1       8.019   9.683  18.024  0.00  0.00    +0.000 C 
BRANCH  16  18
ATOM     17  C   UNL     1      10.219  11.480  18.048  0.00  0.00    +0.000 C 
ATOM     18  S   UNL     1       9.329  10.323  19.113  0.00  0.00    +0.000 S 
ENDBRANCH  16  18
ENDBRANCH  15  16
ENDBRANCH  11  15
ENDBRANCH   1  11
TORSDOF 6
ENDMDL
