MODEL 1
REMARK VINA RESULT:      -7.5      0.000      0.000
REMARK  Name = 
REMARK  2 active torsions:
REMARK  status: ('A' for Active; 'I' for Inactive)
REMARK    1  A    between atoms: C_1  and  C_2
REMARK    2  A    between atoms: C_2  and  C_3
REMARK                            x       y       z     vdW  Elec       q    Type
REMARK                         _______ _______ _______ _____ _____    ______ ____
ROOT
ATOM      1  C   UNL     1       3.162   6.629  17.966  0.00  0.00    +0.000 A 
ATOM      2  N   UNL     1       4.206   7.184  17.303  0.00  0.00    +0.000 NA
ATOM      3  C   UNL     1       4.971   6.296  16.652  0.00  0.00    +0.000 A 
ATOM      4  N   UNL     1       6.051   6.599  15.879  0.00  0.00    +0.000 N 
ATOM      5  N   UNL     1       6.652   5.526  15.329  0.00  0.00    +0.000 NA
ATOM      6  C   UNL     1       5.929   4.504  15.782  0.00  0.00    +0.000 A 
ATOM      7  N   UNL     1       6.220   3.234  15.462  0.00  0.00    +0.000 N 
ATOM      8  C   UNL     1       4.845   4.922  16.612  0.00  0.00    +0.000 A 
ATOM      9  C   UNL     1       3.779   4.339  17.331  0.00  0.00    +0.000 A 
ATOM     10  C   UNL     1       2.888   5.237  17.982  0.00  0.00    +0.000 A 
ATOM     11  C   UNL     1       1.679   4.692  18.720  0.00  0.00    +0.000 C 
ATOM     12  C   UNL     1       1.360   3.225  18.421  0.00  0.00    +0.000 C 
ATOM     13  C   UNL     1       2.627   2.389  18.467  0.00  0.00    +0.000 C 
ATOM     14  C   UNL     1       3.569   2.848  17.365  0.00  0.00    +0.000 C 
ATOM     15  H   UNL     1       6.419   7.522  15.691  0.00  0.00    +0.000 HD
ATOM     16  H   UNL     1       6.908   3.091  14.731  0.00  0.00    +0.000 HD
ATOM     17  H   UNL     1       5.549   2.486  15.561  0.00  0.00    +0.000 HD
ENDROOT
BRANCH   1  19
ATOM     18  C   UNL     1       1.902   8.888  17.959  0.00  0.00    +0.000 C 
ATOM     19  C   UNL     1       2.261   7.604  18.710  0.00  0.00    +0.000 C 
ENDBRANCH   1  19
TORSDOF 1
ENDMDL
MODEL 2
REMARK VINA RESULT:      -7.2      1.776      3.740
REMARK  Name = 
REMARK  2 active torsions:
REMARK  status: ('A' for Active; 'I' for Inactive)
REMARK    1  A    between atoms: C_1  and  C_2
REMARK    2  A    between atoms: C_2  and  C_3
REMARK                            x       y       z     vdW  Elec       q    Type
REMARK                         _______ _______ _______ _____ _____    ______ ____
ROOT
ATOM      1  C   UNL     1       3.032   4.545  19.826  0.00  0.00    +0.000 A 
ATOM      2  N   UNL     1       3.880   3.708  19.181  0.00  0.00    +0.000 NA
ATOM      3  C   UNL     1       4.470   4.252  18.107  0.00  0.00    +0.000 A 
ATOM      4  N   UNL     1       5.392   3.637  17.314  0.00  0.00    +0.000 N 
ATOM      5  N   UNL     1       5.838   4.398  16.296  0.00  0.00    +0.000 NA
ATOM      6  C   UNL     1       5.161   5.536  16.446  0.00  0.00    +0.000 A 
ATOM      7  N   UNL     1       5.318   6.568  15.604  0.00  0.00    +0.000 N 
ATOM      8  C   UNL     1       4.291   5.514  17.577  0.00  0.00    +0.000 A 
ATOM      9  C   UNL     1       3.381   6.375  18.227  0.00  0.00    +0.000 A 
ATOM     10  C   UNL     1       2.779   5.880  19.417  0.00  0.00    +0.000 A 
ATOM     11  C   UNL     1       1.842   6.771  20.212  0.00  0.00    +0.000 C 
ATOM     12  C   UNL     1       1.881   8.249  19.816  0.00  0.00    +0.000 C 
ATOM     13  C   UNL     1       1.849   8.392  18.304  0.00  0.00    +0.000 C 
ATOM     14  C   UNL     1       3.103   7.764  17.715  0.00  0.00    +0.000 C 
ATOM     15  H   UNL     1       5.755   2.700  17.426  0.00  0.00    +0.000 HD
ATOM     16  H   UNL     1       6.090   6.513  14.948  0.00  0.00    +0.000 HD
ATOM     17  H   UNL     1       5.036   7.508  15.844  0.00  0.00    +0.000 HD
ENDROOT
BRANCH   1  19
ATOM     18  C   UNL     1       1.141   3.069  20.791  0.00  0.00    +0.000 C 
ATOM     19  C   UNL     1       2.349   3.970  21.058  0.00  0.00    +0.000 C 
ENDBRANCH   1  19
TORSDOF 1
ENDMDL
MODEL 3
REMARK VINA RESULT:      -7.1      2.361      4.511
REMARK  Name = 
REMARK  2 active torsions:
REMARK  status: ('A' for Active; 'I' for Inactive)
REMARK    1  A    between atoms: C_1  and  C_2
REMARK    2  A    between atoms: C_2  and  C_3
REMARK                            x       y       z     vdW  Elec       q    Type
REMARK                         _______ _______ _______ _____ _____    ______ ____
ROOT
ATOM      1  C   UNL     1       4.582   5.151  16.780  0.00  0.00    +0.000 A 
ATOM      2  N   UNL     1       4.763   3.808  16.780  0.00  0.00    +0.000 NA
ATOM      3  C   UNL     1       4.020   3.159  17.687  0.00  0.00    +0.000 A 
ATOM      4  N   UNL     1       3.986   1.808  17.861  0.00  0.00    +0.000 N 
ATOM      5  N   UNL     1       3.155   1.400  18.840  0.00  0.00    +0.000 NA
ATOM      6  C   UNL     1       2.653   2.540  19.310  0.00  0.00    +0.000 A 
ATOM      7  N   UNL     1       1.774   2.562  20.323  0.00  0.00    +0.000 N 
ATOM      8  C   UNL     1       3.148   3.686  18.618  0.00  0.00    +0.000 A 
ATOM      9  C   UNL     1       2.985   5.088  18.643  0.00  0.00    +0.000 A 
ATOM     10  C   UNL     1       3.691   5.827  17.654  0.00  0.00    +0.000 A 
ATOM     11  C   UNL     1       3.515   7.332  17.571  0.00  0.00    +0.000 C 
ATOM     12  C   UNL     1       2.333   7.879  18.375  0.00  0.00    +0.000 C 
ATOM     13  C   UNL     1       2.304   7.258  19.761  0.00  0.00    +0.000 C 
ATOM     14  C   UNL     1       2.071   5.761  19.633  0.00  0.00    +0.000 C 
ATOM     15  H   UNL     1       4.507   1.118  17.337  0.00  0.00    +0.000 HD
ATOM     16  H   UNL     1       1.379   1.672  20.607  0.00  0.00    +0.000 HD
ATOM     17  H   UNL     1       1.187   3.362  20.511  0.00  0.00    +0.000 HD
ENDROOT
BRANCH   1  19
ATOM     18  C   UNL     1       6.206   5.081  14.769  0.00  0.00    +0.000 C 
ATOM     19  C   UNL     1       5.400   5.926  15.757  0.00  0.00    +0.000 C 
ENDBRANCH   1  19
TORSDOF 1
ENDMDL
MODEL 4
REMARK VINA RESULT:      -7.1      2.708      4.652
REMARK  Name = 
REMARK  2 active torsions:
REMARK  status: ('A' for Active; 'I' for Inactive)
REMARK    1  A    between atoms: C_1  and  C_2
REMARK    2  A    between atoms: C_2  and  C_3
REMARK                            x       y       z     vdW  Elec       q    Type
REMARK                         _______ _______ _______ _____ _____    ______ ____
ROOT
ATOM      1  C   UNL     1       4.953   5.468  17.515  0.00  0.00    +0.000 A 
ATOM      2  N   UNL     1       5.375   4.237  17.894  0.00  0.00    +0.000 NA
ATOM      3  C   UNL     1       4.675   3.710  18.908  0.00  0.00    +0.000 A 
ATOM      4  N   UNL     1       4.871   2.472  19.446  0.00  0.00    +0.000 N 
ATOM      5  N   UNL     1       4.034   2.174  20.458  0.00  0.00    +0.000 NA
ATOM      6  C   UNL     1       3.287   3.271  20.572  0.00  0.00    +0.000 A 
ATOM      7  N   UNL     1       2.321   3.376  21.496  0.00  0.00    +0.000 N 
ATOM      8  C   UNL     1       3.632   4.273  19.615  0.00  0.00    +0.000 A 
ATOM      9  C   UNL     1       3.214   5.569  19.246  0.00  0.00    +0.000 A 
ATOM     10  C   UNL     1       3.869   6.152  18.127  0.00  0.00    +0.000 A 
ATOM     11  C   UNL     1       3.431   7.516  17.625  0.00  0.00    +0.000 C 
ATOM     12  C   UNL     1       2.094   8.001  18.190  0.00  0.00    +0.000 C 
ATOM     13  C   UNL     1       2.039   7.770  19.690  0.00  0.00    +0.000 C 
ATOM     14  C   UNL     1       2.097   6.276  19.968  0.00  0.00    +0.000 C 
ATOM     15  H   UNL     1       5.559   1.791  19.156  0.00  0.00    +0.000 HD
ATOM     16  H   UNL     1       2.069   2.530  21.995  0.00  0.00    +0.000 HD
ATOM     17  H   UNL     1       1.582   4.061  21.428  0.00  0.00    +0.000 HD
ENDROOT
BRANCH   1  19
ATOM     18  C   UNL     1       5.686   5.324  15.040  0.00  0.00    +0.000 C 
ATOM     19  C   UNL     1       5.714   6.099  16.359  0.00  0.00    +0.000 C 
ENDBRANCH   1  19
TORSDOF 1
ENDMDL
MODEL 5
REMARK VINA RESULT:      -7.0      2.439      3.939
REMARK  Name = 
REMARK  2 active torsions:
REMARK  status: ('A' for Active; 'I' for Inactive)
REMARK    1  A    between atoms: C_1  and  C_2
REMARK    2  A    between atoms: C_2  and  C_3
REMARK                            x       y       z     vdW  Elec       q    Type
REMARK                         _______ _______ _______ _____ _____    ______ ____
ROOT
ATOM      1  C   UNL     1       3.126   6.452  18.164  0.00  0.00    +0.000 A 
ATOM      2  N   UNL     1       2.332   5.817  19.060  0.00  0.00    +0.000 NA
ATOM      3  C   UNL     1       2.487   4.485  19.077  0.00  0.00    +0.000 A 
ATOM      4  N   UNL     1       1.842   3.624  19.912  0.00  0.00    +0.000 N 
ATOM      5  N   UNL     1       2.173   2.331  19.733  0.00  0.00    +0.000 NA
ATOM      6  C   UNL     1       3.056   2.376  18.737  0.00  0.00    +0.000 A 
ATOM      7  N   UNL     1       3.626   1.266  18.246  0.00  0.00    +0.000 N 
ATOM      8  C   UNL     1       3.308   3.707  18.286  0.00  0.00    +0.000 A 
ATOM      9  C   UNL     1       4.110   4.364  17.328  0.00  0.00    +0.000 A 
ATOM     10  C   UNL     1       4.044   5.784  17.312  0.00  0.00    +0.000 A 
ATOM     11  C   UNL     1       4.926   6.567  16.357  0.00  0.00    +0.000 C 
ATOM     12  C   UNL     1       6.047   5.749  15.711  0.00  0.00    +0.000 C 
ATOM     13  C   UNL     1       5.511   4.417  15.217  0.00  0.00    +0.000 C 
ATOM     14  C   UNL     1       5.024   3.601  16.405  0.00  0.00    +0.000 C 
ATOM     15  H   UNL     1       1.167   3.867  20.626  0.00  0.00    +0.000 HD
ATOM     16  H   UNL     1       3.488   0.409  18.769  0.00  0.00    +0.000 HD
ATOM     17  H   UNL     1       4.475   1.293  17.699  0.00  0.00    +0.000 HD
ENDROOT
BRANCH   1  19
ATOM     18  C   UNL     1       1.597   8.500  17.772  0.00  0.00    +0.000 C 
ATOM     19  C   UNL     1       2.989   7.966  18.119  0.00  0.00    +0.000 C 
ENDBRANCH   1  19
TORSDOF 1
ENDMDL
MODEL 6
REMARK VINA RESULT:      -7.0      1.978      3.765
REMARK  Name = 
REMARK  2 active torsions:
REMARK  status: ('A' for Active; 'I' for Inactive)
REMARK    1  A    between atoms: C_1  and  C_2
REMARK    2  A    between atoms: C_2  and  C_3
REMARK                            x       y       z     vdW  Elec       q    Type
REMARK                         _______ _______ _______ _____ _____    ______ ____
ROOT
ATOM      1  C   UNL     1       3.794   4.145  19.674  0.00  0.00    +0.000 A 
ATOM      2  N   UNL     1       4.956   3.556  19.299  0.00  0.00    +0.000 NA
ATOM      3  C   UNL     1       5.723   4.320  18.508  0.00  0.00    +0.000 A 
ATOM      4  N   UNL     1       6.953   3.979  18.031  0.00  0.00    +0.000 N 
ATOM      5  N   UNL     1       7.524   4.922  17.257  0.00  0.00    +0.000 NA
ATOM      6  C   UNL     1       6.612   5.894  17.236  0.00  0.00    +0.000 A 
ATOM      7  N   UNL     1       6.805   7.028  16.548  0.00  0.00    +0.000 N 
ATOM      8  C   UNL     1       5.458   5.582  18.017  0.00  0.00    +0.000 A 
ATOM      9  C   UNL     1       4.233   6.183  18.377  0.00  0.00    +0.000 A 
ATOM     10  C   UNL     1       3.408   5.451  19.275  0.00  0.00    +0.000 A 
ATOM     11  C   UNL     1       2.106   6.059  19.764  0.00  0.00    +0.000 C 
ATOM     12  C   UNL     1       1.957   7.556  19.482  0.00  0.00    +0.000 C 
ATOM     13  C   UNL     1       2.368   7.867  18.054  0.00  0.00    +0.000 C 
ATOM     14  C   UNL     1       3.844   7.549  17.876  0.00  0.00    +0.000 C 
ATOM     15  H   UNL     1       7.450   3.116  18.205  0.00  0.00    +0.000 HD
ATOM     16  H   UNL     1       7.735   7.191  16.180  0.00  0.00    +0.000 HD
ATOM     17  H   UNL     1       6.272   7.867  16.732  0.00  0.00    +0.000 HD
ENDROOT
BRANCH   1  19
ATOM     18  C   UNL     1       1.933   2.361  19.873  0.00  0.00    +0.000 C 
ATOM     19  C   UNL     1       2.897   3.315  20.581  0.00  0.00    +0.000 C 
ENDBRANCH   1  19
TORSDOF 1
ENDMDL
MODEL 7
REMARK VINA RESULT:      -6.9      1.463      1.476
REMARK  Name = 
REMARK  2 active torsions:
REMARK  status: ('A' for Active; 'I' for Inactive)
REMARK    1  A    between atoms: C_1  and  C_2
REMARK    2  A    between atoms: C_2  and  C_3
REMARK                            x       y       z     vdW  Elec       q    Type
REMARK                         _______ _______ _______ _____ _____    ______ ____
ROOT
ATOM      1  C   UNL     1       3.221   6.893  17.964  0.00  0.00    +0.000 A 
ATOM      2  N   UNL     1       4.246   7.533  17.351  0.00  0.00    +0.000 NA
ATOM      3  C   UNL     1       5.374   6.812  17.283  0.00  0.00    +0.000 A 
ATOM      4  N   UNL     1       6.532   7.208  16.682  0.00  0.00    +0.000 N 
ATOM      5  N   UNL     1       7.524   6.301  16.747  0.00  0.00    +0.000 NA
ATOM      6  C   UNL     1       6.976   5.295  17.427  0.00  0.00    +0.000 A 
ATOM      7  N   UNL     1       7.661   4.179  17.716  0.00  0.00    +0.000 N 
ATOM      8  C   UNL     1       5.617   5.548  17.783  0.00  0.00    +0.000 A 
ATOM      9  C   UNL     1       4.561   4.895  18.453  0.00  0.00    +0.000 A 
ATOM     10  C   UNL     1       3.314   5.579  18.492  0.00  0.00    +0.000 A 
ATOM     11  C   UNL     1       2.111   4.914  19.135  0.00  0.00    +0.000 C 
ATOM     12  C   UNL     1       2.281   3.416  19.405  0.00  0.00    +0.000 C 
ATOM     13  C   UNL     1       3.636   3.144  20.035  0.00  0.00    +0.000 C 
ATOM     14  C   UNL     1       4.731   3.522  19.050  0.00  0.00    +0.000 C 
ATOM     15  H   UNL     1       6.696   8.087  16.210  0.00  0.00    +0.000 HD
ATOM     16  H   UNL     1       8.558   4.059  17.257  0.00  0.00    +0.000 HD
ATOM     17  H   UNL     1       7.204   3.318  17.978  0.00  0.00    +0.000 HD
ENDROOT
BRANCH   1  19
ATOM     18  C   UNL     1       2.026   9.182  17.831  0.00  0.00    +0.000 C 
ATOM     19  C   UNL     1       1.917   7.672  18.053  0.00  0.00    +0.000 C 
ENDBRANCH   1  19
TORSDOF 1
ENDMDL
MODEL 8
REMARK VINA RESULT:      -6.9      2.683      4.194
REMARK  Name = 
REMARK  2 active torsions:
REMARK  status: ('A' for Active; 'I' for Inactive)
REMARK    1  A    between atoms: C_1  and  C_2
REMARK    2  A    between atoms: C_2  and  C_3
REMARK                            x       y       z     vdW  Elec       q    Type
REMARK                         _______ _______ _______ _____ _____    ______ ____
ROOT
ATOM      1  C   UNL     1       3.335   6.571  18.110  0.00  0.00    +0.000 A 
ATOM      2  N   UNL     1       2.417   5.851  18.800  0.00  0.00    +0.000 NA
ATOM      3  C   UNL     1       2.881   4.685  19.270  0.00  0.00    +0.000 A 
ATOM      4  N   UNL     1       2.174   3.800  20.028  0.00  0.00    +0.000 N 
ATOM      5  N   UNL     1       2.867   2.700  20.379  0.00  0.00    +0.000 NA
ATOM      6  C   UNL     1       4.056   2.892  19.810  0.00  0.00    +0.000 A 
ATOM      7  N   UNL     1       5.046   1.994  19.919  0.00  0.00    +0.000 N 
ATOM      8  C   UNL     1       4.135   4.132  19.107  0.00  0.00    +0.000 A 
ATOM      9  C   UNL     1       5.082   4.864  18.359  0.00  0.00    +0.000 A 
ATOM     10  C   UNL     1       4.671   6.144  17.895  0.00  0.00    +0.000 A 
ATOM     11  C   UNL     1       5.654   7.021  17.141  0.00  0.00    +0.000 C 
ATOM     12  C   UNL     1       7.112   6.562  17.227  0.00  0.00    +0.000 C 
ATOM     13  C   UNL     1       7.208   5.065  16.995  0.00  0.00    +0.000 C 
ATOM     14  C   UNL     1       6.470   4.337  18.108  0.00  0.00    +0.000 C 
ATOM     15  H   UNL     1       1.217   3.900  20.337  0.00  0.00    +0.000 HD
ATOM     16  H   UNL     1       4.913   1.242  20.587  0.00  0.00    +0.000 HD
ATOM     17  H   UNL     1       6.011   2.231  19.739  0.00  0.00    +0.000 HD
ENDROOT
BRANCH   1  19
ATOM     18  C   UNL     1       1.883   8.681  18.464  0.00  0.00    +0.000 C 
ATOM     19  C   UNL     1       2.852   7.907  17.567  0.00  0.00    +0.000 C 
ENDBRANCH   1  19
TORSDOF 1
ENDMDL
MODEL 9
REMARK VINA RESULT:      -6.8      1.315      3.614
REMARK  Name = 
REMARK  2 active torsions:
REMARK  status: ('A' for Active; 'I' for Inactive)
REMARK    1  A    between atoms: C_1  and  C_2
REMARK    2  A    between atoms: C_2  and  C_3
REMARK                            x       y       z     vdW  Elec       q    Type
REMARK                         _______ _______ _______ _____ _____    ______ ____
ROOT
ATOM      1  C   UNL     1       3.319   3.858  17.477  0.00  0.00    +0.000 A 
ATOM      2  N   UNL     1       4.438   3.279  16.976  0.00  0.00    +0.000 NA
ATOM      3  C   UNL     1       5.457   4.131  16.795  0.00  0.00    +0.000 A 
ATOM      4  N   UNL     1       6.699   3.795  16.345  0.00  0.00    +0.000 N 
ATOM      5  N   UNL     1       7.550   4.834  16.251  0.00  0.00    +0.000 NA
ATOM      6  C   UNL     1       6.812   5.871  16.647  0.00  0.00    +0.000 A 
ATOM      7  N   UNL     1       7.307   7.117  16.685  0.00  0.00    +0.000 N 
ATOM      8  C   UNL     1       5.486   5.493  17.016  0.00  0.00    +0.000 A 
ATOM      9  C   UNL     1       4.311   6.104  17.504  0.00  0.00    +0.000 A 
ATOM     10  C   UNL     1       3.218   5.239  17.787  0.00  0.00    +0.000 A 
ATOM     11  C   UNL     1       1.942   5.810  18.378  0.00  0.00    +0.000 C 
ATOM     12  C   UNL     1       2.072   7.239  18.913  0.00  0.00    +0.000 C 
ATOM     13  C   UNL     1       2.818   8.109  17.917  0.00  0.00    +0.000 C 
ATOM     14  C   UNL     1       4.237   7.586  17.759  0.00  0.00    +0.000 C 
ATOM     15  H   UNL     1       7.019   2.870  16.091  0.00  0.00    +0.000 HD
ATOM     16  H   UNL     1       8.308   7.218  16.561  0.00  0.00    +0.000 HD
ATOM     17  H   UNL     1       6.873   7.853  17.224  0.00  0.00    +0.000 HD
ENDROOT
BRANCH   1  19
ATOM     18  C   UNL     1       2.180   2.108  19.002  0.00  0.00    +0.000 C 
ATOM     19  C   UNL     1       2.141   2.924  17.708  0.00  0.00    +0.000 C 
ENDBRANCH   1  19
TORSDOF 1
ENDMDL
