MODEL 1
REMARK VINA RESULT:      -8.7      0.000      0.000
REMARK  Name = 
REMARK  2 active torsions:
REMARK  status: ('A' for Active; 'I' for Inactive)
REMARK    1  A    between atoms: C_2  and  C_17
REMARK    2  A    between atoms: N_3  and  C_4
REMARK                            x       y       z     vdW  Elec       q    Type
REMARK                         _______ _______ _______ _____ _____    ______ ____
ROOT
ATOM      1  C   UNL     1       2.174   7.660  18.458  0.00  0.00    +0.000 C 
ATOM      2  C   UNL     1       2.091   9.118  17.944  0.00  0.00    +0.000 C 
ATOM      3  C   UNL     1       0.769   9.799  18.335  0.00  0.00    +0.000 C 
ATOM      4  C   UNL     1       0.528   9.640  19.795  0.00  0.00    +0.000 A 
ATOM      5  C   UNL     1       1.070   8.595  20.512  0.00  0.00    +0.000 A 
ATOM      6  N   UNL     1       0.674   8.718  21.815  0.00  0.00    +0.000 N 
ATOM      7  C   UNL     1      -0.093   9.853  21.964  0.00  0.00    +0.000 A 
ATOM      8  C   UNL     1      -0.685  10.394  23.112  0.00  0.00    +0.000 A 
ATOM      9  C   UNL     1      -1.410  11.581  22.972  0.00  0.00    +0.000 A 
ATOM     10  C   UNL     1      -1.538  12.200  21.730  0.00  0.00    +0.000 A 
ATOM     11  C   UNL     1      -0.943  11.647  20.591  0.00  0.00    +0.000 A 
ATOM     12  C   UNL     1      -0.205  10.451  20.706  0.00  0.00    +0.000 A 
ATOM     13  C   UNL     1       1.984   7.537  19.996  0.00  0.00    +0.000 C 
ATOM     14  H   UNL     1       0.925   8.092  22.568  0.00  0.00    +0.000 HD
ENDROOT
BRANCH   1  17
ATOM     15  O   UNL     1       2.682   4.925  17.833  0.00  0.00    +0.000 OA
ATOM     16  C   UNL     1       3.600   5.734  17.780  0.00  0.00    +0.000 C 
ATOM     17  N   UNL     1       3.452   7.078  18.046  0.00  0.00    +0.000 N 
ATOM     18  H   UNL     1       4.249   7.695  17.982  0.00  0.00    +0.000 HD
BRANCH  16  19
ATOM     19  C   UNL     1       4.960   5.295  17.368  0.00  0.00    +0.000 A 
ATOM     20  C   UNL     1       6.013   5.446  18.283  0.00  0.00    +0.000 A 
ATOM     21  C   UNL     1       7.305   5.037  17.945  0.00  0.00    +0.000 A 
ATOM     22  C   UNL     1       7.550   4.487  16.688  0.00  0.00    +0.000 A 
ATOM     23  C   UNL     1       6.504   4.358  15.780  0.00  0.00    +0.000 A 
ATOM     24  F   UNL     1       6.748   3.844  14.566  0.00  0.00    +0.000 F 
ATOM     25  C   UNL     1       5.212   4.756  16.103  0.00  0.00    +0.000 A 
ENDBRANCH  16  19
ENDBRANCH   1  17
TORSDOF 2
ENDMDL
MODEL 2
REMARK VINA RESULT:      -8.6      0.918      1.358
REMARK  Name = 
REMARK  2 active torsions:
REMARK  status: ('A' for Active; 'I' for Inactive)
REMARK    1  A    between atoms: C_2  and  C_17
REMARK    2  A    between atoms: N_3  and  C_4
REMARK                            x       y       z     vdW  Elec       q    Type
REMARK                         _______ _______ _______ _____ _____    ______ ____
ROOT
ATOM      1  C   UNL     1       2.185   7.639  18.392  0.00  0.00    +0.000 C 
ATOM      2  C   UNL     1       2.096   9.099  17.884  0.00  0.00    +0.000 C 
ATOM      3  C   UNL     1       0.781   9.781  18.298  0.00  0.00    +0.000 C 
ATOM      4  C   UNL     1       0.564   9.618  19.761  0.00  0.00    +0.000 A 
ATOM      5  C   UNL     1       1.115   8.569  20.466  0.00  0.00    +0.000 A 
ATOM      6  N   UNL     1       0.741   8.689  21.775  0.00  0.00    +0.000 N 
ATOM      7  C   UNL     1      -0.022   9.825  21.940  0.00  0.00    +0.000 A 
ATOM      8  C   UNL     1      -0.594  10.363  23.100  0.00  0.00    +0.000 A 
ATOM      9  C   UNL     1      -1.319  11.551  22.975  0.00  0.00    +0.000 A 
ATOM     10  C   UNL     1      -1.467  12.175  21.737  0.00  0.00    +0.000 A 
ATOM     11  C   UNL     1      -0.891  11.624  20.587  0.00  0.00    +0.000 A 
ATOM     12  C   UNL     1      -0.153  10.427  20.687  0.00  0.00    +0.000 A 
ATOM     13  C   UNL     1       2.019   7.511  19.932  0.00  0.00    +0.000 C 
ATOM     14  H   UNL     1       1.003   8.060  22.523  0.00  0.00    +0.000 HD
ENDROOT
BRANCH   1  17
ATOM     15  O   UNL     1       2.662   4.919  17.684  0.00  0.00    +0.000 OA
ATOM     16  C   UNL     1       3.588   5.720  17.651  0.00  0.00    +0.000 C 
ATOM     17  N   UNL     1       3.455   7.056  17.957  0.00  0.00    +0.000 N 
ATOM     18  H   UNL     1       4.258   7.667  17.908  0.00  0.00    +0.000 HD
BRANCH  16  19
ATOM     19  C   UNL     1       4.942   5.279  17.220  0.00  0.00    +0.000 A 
ATOM     20  C   UNL     1       5.125   4.911  15.878  0.00  0.00    +0.000 A 
ATOM     21  C   UNL     1       6.381   4.502  15.424  0.00  0.00    +0.000 A 
ATOM     22  C   UNL     1       7.453   4.448  16.312  0.00  0.00    +0.000 A 
ATOM     23  C   UNL     1       7.259   4.797  17.644  0.00  0.00    +0.000 A 
ATOM     24  F   UNL     1       8.290   4.727  18.498  0.00  0.00    +0.000 F 
ATOM     25  C   UNL     1       6.016   5.210  18.111  0.00  0.00    +0.000 A 
ENDBRANCH  16  19
ENDBRANCH   1  17
TORSDOF 2
ENDMDL
MODEL 3
REMARK VINA RESULT:      -8.2      4.126      9.115
REMARK  Name = 
REMARK  2 active torsions:
REMARK  status: ('A' for Active; 'I' for Inactive)
REMARK    1  A    between atoms: C_2  and  C_17
REMARK    2  A    between atoms: N_3  and  C_4
REMARK                            x       y       z     vdW  Elec       q    Type
REMARK                         _______ _______ _______ _____ _____    ______ ____
ROOT
ATOM      1  C   UNL     1       1.173   9.494  19.824  0.00  0.00    +0.000 C 
ATOM      2  C   UNL     1       1.117   9.249  18.296  0.00  0.00    +0.000 C 
ATOM      3  C   UNL     1       2.383   8.551  17.771  0.00  0.00    +0.000 C 
ATOM      4  C   UNL     1       2.668   7.338  18.586  0.00  0.00    +0.000 A 
ATOM      5  C   UNL     1       2.237   7.219  19.889  0.00  0.00    +0.000 A 
ATOM      6  N   UNL     1       2.649   6.007  20.368  0.00  0.00    +0.000 N 
ATOM      7  C   UNL     1       3.317   5.317  19.380  0.00  0.00    +0.000 A 
ATOM      8  C   UNL     1       3.884   4.037  19.403  0.00  0.00    +0.000 A 
ATOM      9  C   UNL     1       4.500   3.578  18.234  0.00  0.00    +0.000 A 
ATOM     10  C   UNL     1       4.546   4.371  17.089  0.00  0.00    +0.000 A 
ATOM     11  C   UNL     1       3.976   5.649  17.082  0.00  0.00    +0.000 A 
ATOM     12  C   UNL     1       3.348   6.135  18.247  0.00  0.00    +0.000 A 
ATOM     13  C   UNL     1       1.407   8.198  20.648  0.00  0.00    +0.000 C 
ATOM     14  H   UNL     1       2.470   5.649  21.297  0.00  0.00    +0.000 HD
ENDROOT
BRANCH   1  17
ATOM     15  O   UNL     1       0.944  11.601  21.730  0.00  0.00    +0.000 OA
ATOM     16  C   UNL     1      -0.066  11.165  21.193  0.00  0.00    +0.000 C 
ATOM     17  N   UNL     1      -0.058  10.162  20.248  0.00  0.00    +0.000 N 
ATOM     18  H   UNL     1      -0.927   9.848  19.839  0.00  0.00    +0.000 HD
BRANCH  16  19
ATOM     19  C   UNL     1      -1.396  11.750  21.515  0.00  0.00    +0.000 A 
ATOM     20  C   UNL     1      -2.145  12.312  20.470  0.00  0.00    +0.000 A 
ATOM     21  C   UNL     1      -3.404  12.862  20.722  0.00  0.00    +0.000 A 
ATOM     22  C   UNL     1      -3.912  12.862  22.019  0.00  0.00    +0.000 A 
ATOM     23  C   UNL     1      -3.155  12.319  23.052  0.00  0.00    +0.000 A 
ATOM     24  F   UNL     1      -3.640  12.336  24.302  0.00  0.00    +0.000 F 
ATOM     25  C   UNL     1      -1.902  11.764  22.818  0.00  0.00    +0.000 A 
ENDBRANCH  16  19
ENDBRANCH   1  17
TORSDOF 2
ENDMDL
MODEL 4
REMARK VINA RESULT:      -8.2      6.449      8.061
REMARK  Name = 
REMARK  2 active torsions:
REMARK  status: ('A' for Active; 'I' for Inactive)
REMARK    1  A    between atoms: C_2  and  C_17
REMARK    2  A    between atoms: N_3  and  C_4
REMARK                            x       y       z     vdW  Elec       q    Type
REMARK                         _______ _______ _______ _____ _____    ______ ____
ROOT
ATOM      1  C   UNL     1       7.825   7.067  18.093  0.00  0.00    +0.000 C 
ATOM      2  C   UNL     1       6.505   7.660  17.544  0.00  0.00    +0.000 C 
ATOM      3  C   UNL     1       5.635   6.600  16.849  0.00  0.00    +0.000 C 
ATOM      4  C   UNL     1       5.463   5.420  17.740  0.00  0.00    +0.000 A 
ATOM      5  C   UNL     1       6.384   5.106  18.717  0.00  0.00    +0.000 A 
ATOM      6  N   UNL     1       5.955   3.980  19.363  0.00  0.00    +0.000 N 
ATOM      7  C   UNL     1       4.747   3.574  18.842  0.00  0.00    +0.000 A 
ATOM      8  C   UNL     1       3.926   2.500  19.207  0.00  0.00    +0.000 A 
ATOM      9  C   UNL     1       2.730   2.328  18.503  0.00  0.00    +0.000 A 
ATOM     10  C   UNL     1       2.373   3.196  17.473  0.00  0.00    +0.000 A 
ATOM     11  C   UNL     1       3.205   4.264  17.118  0.00  0.00    +0.000 A 
ATOM     12  C   UNL     1       4.415   4.460  17.814  0.00  0.00    +0.000 A 
ATOM     13  C   UNL     1       7.608   5.879  19.071  0.00  0.00    +0.000 C 
ATOM     14  H   UNL     1       6.433   3.524  20.130  0.00  0.00    +0.000 HD
ENDROOT
BRANCH   1  17
ATOM     15  O   UNL     1       7.859   9.825  17.373  0.00  0.00    +0.000 OA
ATOM     16  C   UNL     1       8.559   9.438  18.300  0.00  0.00    +0.000 C 
ATOM     17  N   UNL     1       8.599   8.131  18.735  0.00  0.00    +0.000 N 
ATOM     18  H   UNL     1       9.196   7.875  19.508  0.00  0.00    +0.000 HD
BRANCH  16  19
ATOM     19  C   UNL     1       9.398  10.405  19.058  0.00  0.00    +0.000 A 
ATOM     20  C   UNL     1      10.537  10.932  18.429  0.00  0.00    +0.000 A 
ATOM     21  C   UNL     1      11.348  11.852  19.096  0.00  0.00    +0.000 A 
ATOM     22  C   UNL     1      11.031  12.239  20.397  0.00  0.00    +0.000 A 
ATOM     23  C   UNL     1       9.911  11.698  21.019  0.00  0.00    +0.000 A 
ATOM     24  F   UNL     1       9.619  12.060  22.277  0.00  0.00    +0.000 F 
ATOM     25  C   UNL     1       9.091  10.784  20.367  0.00  0.00    +0.000 A 
ENDBRANCH  16  19
ENDBRANCH   1  17
TORSDOF 2
ENDMDL
MODEL 5
REMARK VINA RESULT:      -8.1      3.951      8.995
REMARK  Name = 
REMARK  2 active torsions:
REMARK  status: ('A' for Active; 'I' for Inactive)
REMARK    1  A    between atoms: C_2  and  C_17
REMARK    2  A    between atoms: N_3  and  C_4
REMARK                            x       y       z     vdW  Elec       q    Type
REMARK                         _______ _______ _______ _____ _____    ______ ____
ROOT
ATOM      1  C   UNL     1       1.197   9.389  19.933  0.00  0.00    +0.000 C 
ATOM      2  C   UNL     1       1.131   9.176  18.401  0.00  0.00    +0.000 C 
ATOM      3  C   UNL     1       2.387   8.475  17.856  0.00  0.00    +0.000 C 
ATOM      4  C   UNL     1       2.662   7.242  18.643  0.00  0.00    +0.000 A 
ATOM      5  C   UNL     1       2.234   7.101  19.946  0.00  0.00    +0.000 A 
ATOM      6  N   UNL     1       2.635   5.874  20.397  0.00  0.00    +0.000 N 
ATOM      7  C   UNL     1       3.290   5.198  19.391  0.00  0.00    +0.000 A 
ATOM      8  C   UNL     1       3.843   3.911  19.384  0.00  0.00    +0.000 A 
ATOM      9  C   UNL     1       4.447   3.470  18.203  0.00  0.00    +0.000 A 
ATOM     10  C   UNL     1       4.497   4.286  17.075  0.00  0.00    +0.000 A 
ATOM     11  C   UNL     1       3.943   5.571  17.097  0.00  0.00    +0.000 A 
ATOM     12  C   UNL     1       3.326   6.039  18.276  0.00  0.00    +0.000 A 
ATOM     13  C   UNL     1       1.420   8.073  20.729  0.00  0.00    +0.000 C 
ATOM     14  H   UNL     1       2.456   5.498  21.319  0.00  0.00    +0.000 HD
ENDROOT
BRANCH   1  17
ATOM     15  O   UNL     1       1.029  11.692  21.604  0.00  0.00    +0.000 OA
ATOM     16  C   UNL     1      -0.001  11.166  21.202  0.00  0.00    +0.000 C 
ATOM     17  N   UNL     1      -0.024  10.062  20.378  0.00  0.00    +0.000 N 
ATOM     18  H   UNL     1      -0.908   9.676  20.077  0.00  0.00    +0.000 HD
BRANCH  16  19
ATOM     19  C   UNL     1      -1.325  11.741  21.563  0.00  0.00    +0.000 A 
ATOM     20  C   UNL     1      -1.727  11.692  22.906  0.00  0.00    +0.000 A 
ATOM     21  C   UNL     1      -2.956  12.230  23.294  0.00  0.00    +0.000 A 
ATOM     22  C   UNL     1      -3.791  12.807  22.340  0.00  0.00    +0.000 A 
ATOM     23  C   UNL     1      -3.393  12.835  21.007  0.00  0.00    +0.000 A 
ATOM     24  F   UNL     1      -4.207  13.376  20.090  0.00  0.00    +0.000 F 
ATOM     25  C   UNL     1      -2.171  12.308  20.605  0.00  0.00    +0.000 A 
ENDBRANCH  16  19
ENDBRANCH   1  17
TORSDOF 2
ENDMDL
MODEL 6
REMARK VINA RESULT:      -8.1      6.319      7.795
REMARK  Name = 
REMARK  2 active torsions:
REMARK  status: ('A' for Active; 'I' for Inactive)
REMARK    1  A    between atoms: C_2  and  C_17
REMARK    2  A    between atoms: N_3  and  C_4
REMARK                            x       y       z     vdW  Elec       q    Type
REMARK                         _______ _______ _______ _____ _____    ______ ____
ROOT
ATOM      1  C   UNL     1       7.751   6.916  18.052  0.00  0.00    +0.000 C 
ATOM      2  C   UNL     1       6.467   7.506  17.421  0.00  0.00    +0.000 C 
ATOM      3  C   UNL     1       5.558   6.418  16.825  0.00  0.00    +0.000 C 
ATOM      4  C   UNL     1       5.321   5.347  17.831  0.00  0.00    +0.000 A 
ATOM      5  C   UNL     1       6.214   5.098  18.851  0.00  0.00    +0.000 A 
ATOM      6  N   UNL     1       5.726   4.066  19.604  0.00  0.00    +0.000 N 
ATOM      7  C   UNL     1       4.506   3.661  19.106  0.00  0.00    +0.000 A 
ATOM      8  C   UNL     1       3.633   2.668  19.567  0.00  0.00    +0.000 A 
ATOM      9  C   UNL     1       2.440   2.476  18.863  0.00  0.00    +0.000 A 
ATOM     10  C   UNL     1       2.136   3.246  17.743  0.00  0.00    +0.000 A 
ATOM     11  C   UNL     1       3.020   4.233  17.293  0.00  0.00    +0.000 A 
ATOM     12  C   UNL     1       4.229   4.448  17.986  0.00  0.00    +0.000 A 
ATOM     13  C   UNL     1       7.467   5.848  19.145  0.00  0.00    +0.000 C 
ATOM     14  H   UNL     1       6.171   3.672  20.422  0.00  0.00    +0.000 HD
ENDROOT
BRANCH   1  17
ATOM     15  O   UNL     1       7.520   9.689  17.430  0.00  0.00    +0.000 OA
ATOM     16  C   UNL     1       8.385   9.320  18.215  0.00  0.00    +0.000 C 
ATOM     17  N   UNL     1       8.565   8.007  18.593  0.00  0.00    +0.000 N 
ATOM     18  H   UNL     1       9.295   7.766  19.248  0.00  0.00    +0.000 HD
BRANCH  16  19
ATOM     19  C   UNL     1       9.286  10.314  18.857  0.00  0.00    +0.000 A 
ATOM     20  C   UNL     1       9.143  10.550  20.232  0.00  0.00    +0.000 A 
ATOM     21  C   UNL     1       9.975  11.466  20.881  0.00  0.00    +0.000 A 
ATOM     22  C   UNL     1      10.943  12.156  20.154  0.00  0.00    +0.000 A 
ATOM     23  C   UNL     1      11.066  11.930  18.787  0.00  0.00    +0.000 A 
ATOM     24  F   UNL     1      11.987  12.608  18.089  0.00  0.00    +0.000 F 
ATOM     25  C   UNL     1      10.249  11.018  18.128  0.00  0.00    +0.000 A 
ENDBRANCH  16  19
ENDBRANCH   1  17
TORSDOF 2
ENDMDL
MODEL 7
REMARK VINA RESULT:      -7.9      4.130      8.905
REMARK  Name = 
REMARK  2 active torsions:
REMARK  status: ('A' for Active; 'I' for Inactive)
REMARK    1  A    between atoms: C_2  and  C_17
REMARK    2  A    between atoms: N_3  and  C_4
REMARK                            x       y       z     vdW  Elec       q    Type
REMARK                         _______ _______ _______ _____ _____    ______ ____
ROOT
ATOM      1  C   UNL     1       1.770   8.295  20.149  0.00  0.00    +0.000 C 
ATOM      2  C   UNL     1       1.953   8.182  18.615  0.00  0.00    +0.000 C 
ATOM      3  C   UNL     1       3.011   7.135  18.230  0.00  0.00    +0.000 C 
ATOM      4  C   UNL     1       2.724   5.847  18.917  0.00  0.00    +0.000 A 
ATOM      5  C   UNL     1       2.020   5.795  20.101  0.00  0.00    +0.000 A 
ATOM      6  N   UNL     1       1.919   4.486  20.483  0.00  0.00    +0.000 N 
ATOM      7  C   UNL     1       2.520   3.678  19.543  0.00  0.00    +0.000 A 
ATOM      8  C   UNL     1       2.635   2.283  19.498  0.00  0.00    +0.000 A 
ATOM      9  C   UNL     1       3.298   1.721  18.403  0.00  0.00    +0.000 A 
ATOM     10  C   UNL     1       3.826   2.525  17.395  0.00  0.00    +0.000 A 
ATOM     11  C   UNL     1       3.706   3.918  17.455  0.00  0.00    +0.000 A 
ATOM     12  C   UNL     1       3.040   4.509  18.548  0.00  0.00    +0.000 A 
ATOM     13  C   UNL     1       1.407   6.944  20.827  0.00  0.00    +0.000 C 
ATOM     14  H   UNL     1       1.449   4.150  21.313  0.00  0.00    +0.000 HD
ENDROOT
BRANCH   1  17
ATOM     15  O   UNL     1       1.400   9.685  22.609  0.00  0.00    +0.000 OA
ATOM     16  C   UNL     1       0.648   9.915  21.671  0.00  0.00    +0.000 C 
ATOM     17  N   UNL     1       0.756   9.309  20.438  0.00  0.00    +0.000 N 
ATOM     18  H   UNL     1       0.105   9.544  19.702  0.00  0.00    +0.000 HD
BRANCH  16  19
ATOM     19  C   UNL     1      -0.431  10.930  21.809  0.00  0.00    +0.000 A 
ATOM     20  C   UNL     1      -0.604  11.860  20.773  0.00  0.00    +0.000 A 
ATOM     21  C   UNL     1      -1.611  12.824  20.851  0.00  0.00    +0.000 A 
ATOM     22  C   UNL     1      -2.440  12.869  21.971  0.00  0.00    +0.000 A 
ATOM     23  C   UNL     1      -2.250  11.954  23.002  0.00  0.00    +0.000 A 
ATOM     24  F   UNL     1      -3.039  12.011  24.084  0.00  0.00    +0.000 F 
ATOM     25  C   UNL     1      -1.255  10.986  22.936  0.00  0.00    +0.000 A 
ENDBRANCH  16  19
ENDBRANCH   1  17
TORSDOF 2
ENDMDL
MODEL 8
REMARK VINA RESULT:      -7.9      3.825      8.777
REMARK  Name = 
REMARK  2 active torsions:
REMARK  status: ('A' for Active; 'I' for Inactive)
REMARK    1  A    between atoms: C_2  and  C_17
REMARK    2  A    between atoms: N_3  and  C_4
REMARK                            x       y       z     vdW  Elec       q    Type
REMARK                         _______ _______ _______ _____ _____    ______ ____
ROOT
ATOM      1  C   UNL     1       1.723   8.339  20.105  0.00  0.00    +0.000 C 
ATOM      2  C   UNL     1       1.892   8.249  18.569  0.00  0.00    +0.000 C 
ATOM      3  C   UNL     1       2.985   7.248  18.160  0.00  0.00    +0.000 C 
ATOM      4  C   UNL     1       2.758   5.943  18.838  0.00  0.00    +0.000 A 
ATOM      5  C   UNL     1       2.070   5.852  20.029  0.00  0.00    +0.000 A 
ATOM      6  N   UNL     1       2.026   4.536  20.399  0.00  0.00    +0.000 N 
ATOM      7  C   UNL     1       2.647   3.762  19.444  0.00  0.00    +0.000 A 
ATOM      8  C   UNL     1       2.816   2.373  19.383  0.00  0.00    +0.000 A 
ATOM      9  C   UNL     1       3.487   1.848  18.275  0.00  0.00    +0.000 A 
ATOM     10  C   UNL     1       3.971   2.682  17.268  0.00  0.00    +0.000 A 
ATOM     11  C   UNL     1       3.797   4.069  17.344  0.00  0.00    +0.000 A 
ATOM     12  C   UNL     1       3.122   4.623  18.451  0.00  0.00    +0.000 A 
ATOM     13  C   UNL     1       1.422   6.969  20.774  0.00  0.00    +0.000 C 
ATOM     14  H   UNL     1       1.580   4.173  21.232  0.00  0.00    +0.000 HD
ENDROOT
BRANCH   1  17
ATOM     15  O   UNL     1       1.367   9.738  22.564  0.00  0.00    +0.000 OA
ATOM     16  C   UNL     1       0.576   9.923  21.647  0.00  0.00    +0.000 C 
ATOM     17  N   UNL     1       0.673   9.310  20.417  0.00  0.00    +0.000 N 
ATOM     18  H   UNL     1      -0.010   9.507  19.700  0.00  0.00    +0.000 HD
BRANCH  16  19
ATOM     19  C   UNL     1      -0.543  10.890  21.809  0.00  0.00    +0.000 A 
ATOM     20  C   UNL     1      -1.179  10.965  23.058  0.00  0.00    +0.000 A 
ATOM     21  C   UNL     1      -2.227  11.866  23.262  0.00  0.00    +0.000 A 
ATOM     22  C   UNL     1      -2.649  12.685  22.216  0.00  0.00    +0.000 A 
ATOM     23  C   UNL     1      -2.025  12.590  20.976  0.00  0.00    +0.000 A 
ATOM     24  F   UNL     1      -2.445  13.368  19.968  0.00  0.00    +0.000 F 
ATOM     25  C   UNL     1      -0.977  11.702  20.758  0.00  0.00    +0.000 A 
ENDBRANCH  16  19
ENDBRANCH   1  17
TORSDOF 2
ENDMDL
MODEL 9
REMARK VINA RESULT:      -7.8      6.376      7.869
REMARK  Name = 
REMARK  2 active torsions:
REMARK  status: ('A' for Active; 'I' for Inactive)
REMARK    1  A    between atoms: C_2  and  C_17
REMARK    2  A    between atoms: N_3  and  C_4
REMARK                            x       y       z     vdW  Elec       q    Type
REMARK                         _______ _______ _______ _____ _____    ______ ____
ROOT
ATOM      1  C   UNL     1       6.905   6.971  17.122  0.00  0.00    +0.000 C 
ATOM      2  C   UNL     1       5.499   7.133  16.494  0.00  0.00    +0.000 C 
ATOM      3  C   UNL     1       4.857   5.781  16.144  0.00  0.00    +0.000 C 
ATOM      4  C   UNL     1       4.911   4.873  17.322  0.00  0.00    +0.000 A 
ATOM      5  C   UNL     1       5.867   5.013  18.305  0.00  0.00    +0.000 A 
ATOM      6  N   UNL     1       5.661   4.042  19.245  0.00  0.00    +0.000 N 
ATOM      7  C   UNL     1       4.559   3.289  18.904  0.00  0.00    +0.000 A 
ATOM      8  C   UNL     1       3.959   2.217  19.576  0.00  0.00    +0.000 A 
ATOM      9  C   UNL     1       2.826   1.639  18.997  0.00  0.00    +0.000 A 
ATOM     10  C   UNL     1       2.315   2.115  17.791  0.00  0.00    +0.000 A 
ATOM     11  C   UNL     1       2.926   3.186  17.129  0.00  0.00    +0.000 A 
ATOM     12  C   UNL     1       4.069   3.788  17.694  0.00  0.00    +0.000 A 
ATOM     13  C   UNL     1       6.915   6.070  18.388  0.00  0.00    +0.000 C 
ATOM     14  H   UNL     1       6.211   3.907  20.083  0.00  0.00    +0.000 HD
ENDROOT
BRANCH   1  17
ATOM     15  O   UNL     1       8.817   7.609  19.137  0.00  0.00    +0.000 OA
ATOM     16  C   UNL     1       8.365   8.504  18.434  0.00  0.00    +0.000 C 
ATOM     17  N   UNL     1       7.452   8.295  17.423  0.00  0.00    +0.000 N 
ATOM     18  H   UNL     1       7.119   9.076  16.875  0.00  0.00    +0.000 HD
BRANCH  16  19
ATOM     19  C   UNL     1       8.831   9.905  18.615  0.00  0.00    +0.000 A 
ATOM     20  C   UNL     1       8.448  10.861  17.661  0.00  0.00    +0.000 A 
ATOM     21  C   UNL     1       8.851  12.191  17.795  0.00  0.00    +0.000 A 
ATOM     22  C   UNL     1       9.647  12.568  18.875  0.00  0.00    +0.000 A 
ATOM     23  C   UNL     1      10.038  11.610  19.806  0.00  0.00    +0.000 A 
ATOM     24  F   UNL     1      10.818  11.973  20.834  0.00  0.00    +0.000 F 
ATOM     25  C   UNL     1       9.641  10.283  19.689  0.00  0.00    +0.000 A 
ENDBRANCH  16  19
ENDBRANCH   1  17
TORSDOF 2
ENDMDL
