MODEL 1
REMARK VINA RESULT:      -5.9      0.000      0.000
REMARK  Name = 
REMARK  6 active torsions:
REMARK  status: ('A' for Active; 'I' for Inactive)
REMARK    1  A    between atoms: N_1  and  C_2
REMARK    2  A    between atoms: C_2  and  C_3
REMARK    3  A    between atoms: C_2  and  C_7
REMARK    4  A    between atoms: C_3  and  C_4
REMARK    5  A    between atoms: C_4  and  O_6
REMARK    6  A    between atoms: C_11  and  O_12
REMARK                            x       y       z     vdW  Elec       q    Type
REMARK                         _______ _______ _______ _____ _____    ______ ____
ROOT
ATOM      1  C   UNL     1       4.526   5.421  16.889  0.00  0.00    +0.000 C 
ENDROOT
BRANCH   1   2
ATOM      2  C   UNL     1       3.621   4.322  17.452  0.00  0.00    +0.000 A 
ATOM      3  C   UNL     1       2.256   4.536  17.729  0.00  0.00    +0.000 A 
ATOM      4  C   UNL     1       1.442   3.507  18.208  0.00  0.00    +0.000 A 
ATOM      5  C   UNL     1       1.965   2.236  18.417  0.00  0.00    +0.000 A 
ATOM      6  C   UNL     1       3.307   2.006  18.138  0.00  0.00    +0.000 A 
ATOM      7  C   UNL     1       4.128   3.025  17.657  0.00  0.00    +0.000 A 
BRANCH   6   8
ATOM      8  O   UNL     1       3.866   0.775  18.319  0.00  0.00    +0.000 OA
ATOM      9  H   UNL     1       3.786   0.274  17.490  0.00  0.00    +0.000 HD
ENDBRANCH   6   8
ENDBRANCH   1   2
BRANCH   1  10
ATOM     10  N   UNL     1       5.196   6.177  17.962  0.00  0.00    +0.000 NA
ATOM     11  H   UNL     1       5.779   5.524  18.496  0.00  0.00    +0.000 HD
ATOM     12  H   UNL     1       4.505   6.538  18.616  0.00  0.00    +0.000 HD
ENDBRANCH   1  10
BRANCH   1  13
ATOM     13  C   UNL     1       5.555   4.851  15.892  0.00  0.00    +0.000 C 
BRANCH  13  14
ATOM     14  C   UNL     1       6.980   5.204  16.246  0.00  0.00    +0.000 C 
ATOM     15  O   UNL     1       7.563   6.225  15.917  0.00  0.00    +0.000 OA
BRANCH  14  16
ATOM     16  O   UNL     1       7.573   4.256  17.012  0.00  0.00    +0.000 OA
ATOM     17  H   UNL     1       8.439   4.522  17.378  0.00  0.00    +0.000 HD
ENDBRANCH  14  16
ENDBRANCH  13  14
ENDBRANCH   1  13
TORSDOF 6
ENDMDL
MODEL 2
REMARK VINA RESULT:      -5.9      1.666      1.814
REMARK  Name = 
REMARK  6 active torsions:
REMARK  status: ('A' for Active; 'I' for Inactive)
REMARK    1  A    between atoms: N_1  and  C_2
REMARK    2  A    between atoms: C_2  and  C_3
REMARK    3  A    between atoms: C_2  and  C_7
REMARK    4  A    between atoms: C_3  and  C_4
REMARK    5  A    between atoms: C_4  and  O_6
REMARK    6  A    between atoms: C_11  and  O_12
REMARK                            x       y       z     vdW  Elec       q    Type
REMARK                         _______ _______ _______ _____ _____    ______ ____
ROOT
ATOM      1  C   UNL     1       5.616   5.162  16.704  0.00  0.00    +0.000 C 
ENDROOT
BRANCH   1   2
ATOM      2  C   UNL     1       4.248   4.750  17.253  0.00  0.00    +0.000 A 
ATOM      3  C   UNL     1       3.315   5.688  17.736  0.00  0.00    +0.000 A 
ATOM      4  C   UNL     1       2.057   5.291  18.197  0.00  0.00    +0.000 A 
ATOM      5  C   UNL     1       1.695   3.949  18.182  0.00  0.00    +0.000 A 
ATOM      6  C   UNL     1       2.601   3.013  17.698  0.00  0.00    +0.000 A 
ATOM      7  C   UNL     1       3.856   3.398  17.233  0.00  0.00    +0.000 A 
BRANCH   6   8
ATOM      8  O   UNL     1       2.290   1.684  17.656  0.00  0.00    +0.000 OA
ATOM      9  H   UNL     1       1.322   1.593  17.681  0.00  0.00    +0.000 HD
ENDBRANCH   6   8
ENDBRANCH   1   2
BRANCH   1  10
ATOM     10  N   UNL     1       6.655   4.168  17.028  0.00  0.00    +0.000 NA
ATOM     11  H   UNL     1       6.308   3.584  17.797  0.00  0.00    +0.000 HD
ATOM     12  H   UNL     1       7.486   4.637  17.383  0.00  0.00    +0.000 HD
ENDBRANCH   1  10
BRANCH   1  13
ATOM     13  C   UNL     1       5.562   5.426  15.185  0.00  0.00    +0.000 C 
BRANCH  13  14
ATOM     14  C   UNL     1       6.713   4.799  14.434  0.00  0.00    +0.000 C 
ATOM     15  O   UNL     1       7.799   5.320  14.236  0.00  0.00    +0.000 OA
BRANCH  14  16
ATOM     16  O   UNL     1       6.429   3.547  14.002  0.00  0.00    +0.000 OA
ATOM     17  H   UNL     1       6.718   2.839  14.608  0.00  0.00    +0.000 HD
ENDBRANCH  14  16
ENDBRANCH  13  14
ENDBRANCH   1  13
TORSDOF 6
ENDMDL
MODEL 3
REMARK VINA RESULT:      -5.7      2.670      5.052
REMARK  Name = 
REMARK  6 active torsions:
REMARK  status: ('A' for Active; 'I' for Inactive)
REMARK    1  A    between atoms: N_1  and  C_2
REMARK    2  A    between atoms: C_2  and  C_3
REMARK    3  A    between atoms: C_2  and  C_7
REMARK    4  A    between atoms: C_3  and  C_4
REMARK    5  A    between atoms: C_4  and  O_6
REMARK    6  A    between atoms: C_11  and  O_12
REMARK                            x       y       z     vdW  Elec       q    Type
REMARK                         _______ _______ _______ _____ _____    ______ ____
ROOT
ATOM      1  C   UNL     1       1.300   3.197  18.737  0.00  0.00    +0.000 C 
ENDROOT
BRANCH   1   2
ATOM      2  C   UNL     1       2.432   4.012  18.105  0.00  0.00    +0.000 A 
ATOM      3  C   UNL     1       2.481   5.418  18.179  0.00  0.00    +0.000 A 
ATOM      4  C   UNL     1       3.545   6.137  17.627  0.00  0.00    +0.000 A 
ATOM      5  C   UNL     1       4.589   5.473  16.993  0.00  0.00    +0.000 A 
ATOM      6  C   UNL     1       4.559   4.085  16.923  0.00  0.00    +0.000 A 
ATOM      7  C   UNL     1       3.505   3.358  17.473  0.00  0.00    +0.000 A 
BRANCH   6   8
ATOM      8  O   UNL     1       5.564   3.387  16.318  0.00  0.00    +0.000 OA
ATOM      9  H   UNL     1       6.333   3.378  16.911  0.00  0.00    +0.000 HD
ENDBRANCH   6   8
ENDBRANCH   1   2
BRANCH   1  10
ATOM     10  N   UNL     1       1.537   1.748  18.612  0.00  0.00    +0.000 NA
ATOM     11  H   UNL     1       1.677   1.366  19.553  0.00  0.00    +0.000 HD
ATOM     12  H   UNL     1       2.404   1.580  18.107  0.00  0.00    +0.000 HD
ENDBRANCH   1  10
BRANCH   1  13
ATOM     13  C   UNL     1       1.071   3.592  20.210  0.00  0.00    +0.000 C 
BRANCH  13  14
ATOM     14  C   UNL     1       1.966   2.844  21.169  0.00  0.00    +0.000 C 
ATOM     15  O   UNL     1       3.154   2.614  21.002  0.00  0.00    +0.000 OA
BRANCH  14  16
ATOM     16  O   UNL     1       1.311   2.452  22.289  0.00  0.00    +0.000 OA
ATOM     17  H   UNL     1       1.601   2.908  23.102  0.00  0.00    +0.000 HD
ENDBRANCH  14  16
ENDBRANCH  13  14
ENDBRANCH   1  13
TORSDOF 6
ENDMDL
MODEL 4
REMARK VINA RESULT:      -5.7      1.110      1.380
REMARK  Name = 
REMARK  6 active torsions:
REMARK  status: ('A' for Active; 'I' for Inactive)
REMARK    1  A    between atoms: N_1  and  C_2
REMARK    2  A    between atoms: C_2  and  C_3
REMARK    3  A    between atoms: C_2  and  C_7
REMARK    4  A    between atoms: C_3  and  C_4
REMARK    5  A    between atoms: C_4  and  O_6
REMARK    6  A    between atoms: C_11  and  O_12
REMARK                            x       y       z     vdW  Elec       q    Type
REMARK                         _______ _______ _______ _____ _____    ______ ____
ROOT
ATOM      1  C   UNL     1       4.720   5.235  16.503  0.00  0.00    +0.000 C 
ENDROOT
BRANCH   1   2
ATOM      2  C   UNL     1       4.011   4.376  17.553  0.00  0.00    +0.000 A 
ATOM      3  C   UNL     1       2.607   4.332  17.670  0.00  0.00    +0.000 A 
ATOM      4  C   UNL     1       1.981   3.511  18.612  0.00  0.00    +0.000 A 
ATOM      5  C   UNL     1       2.739   2.708  19.457  0.00  0.00    +0.000 A 
ATOM      6  C   UNL     1       4.124   2.732  19.346  0.00  0.00    +0.000 A 
ATOM      7  C   UNL     1       4.758   3.544  18.408  0.00  0.00    +0.000 A 
BRANCH   6   8
ATOM      8  O   UNL     1       4.910   1.957  20.148  0.00  0.00    +0.000 OA
ATOM      9  H   UNL     1       5.755   2.416  20.288  0.00  0.00    +0.000 HD
ENDBRANCH   6   8
ENDBRANCH   1   2
BRANCH   1  10
ATOM     10  N   UNL     1       5.436   6.366  17.119  0.00  0.00    +0.000 NA
ATOM     11  H   UNL     1       5.572   6.155  18.113  0.00  0.00    +0.000 HD
ATOM     12  H   UNL     1       4.858   7.203  17.086  0.00  0.00    +0.000 HD
ENDBRANCH   1  10
BRANCH   1  13
ATOM     13  C   UNL     1       5.672   4.391  15.630  0.00  0.00    +0.000 C 
BRANCH  13  14
ATOM     14  C   UNL     1       7.123   4.772  15.799  0.00  0.00    +0.000 C 
ATOM     15  O   UNL     1       7.853   4.410  16.709  0.00  0.00    +0.000 OA
BRANCH  14  16
ATOM     16  O   UNL     1       7.570   5.567  14.796  0.00  0.00    +0.000 OA
ATOM     17  H   UNL     1       8.536   5.538  14.663  0.00  0.00    +0.000 HD
ENDBRANCH  14  16
ENDBRANCH  13  14
ENDBRANCH   1  13
TORSDOF 6
ENDMDL
MODEL 5
REMARK VINA RESULT:      -5.7      1.498      1.807
REMARK  Name = 
REMARK  6 active torsions:
REMARK  status: ('A' for Active; 'I' for Inactive)
REMARK    1  A    between atoms: N_1  and  C_2
REMARK    2  A    between atoms: C_2  and  C_3
REMARK    3  A    between atoms: C_2  and  C_7
REMARK    4  A    between atoms: C_3  and  C_4
REMARK    5  A    between atoms: C_4  and  O_6
REMARK    6  A    between atoms: C_11  and  O_12
REMARK                            x       y       z     vdW  Elec       q    Type
REMARK                         _______ _______ _______ _____ _____    ______ ____
ROOT
ATOM      1  C   UNL     1       5.769   4.676  17.067  0.00  0.00    +0.000 C 
ENDROOT
BRANCH   1   2
ATOM      2  C   UNL     1       4.297   4.494  17.447  0.00  0.00    +0.000 A 
ATOM      3  C   UNL     1       3.462   5.581  17.772  0.00  0.00    +0.000 A 
ATOM      4  C   UNL     1       2.111   5.393  18.080  0.00  0.00    +0.000 A 
ATOM      5  C   UNL     1       1.558   4.118  18.063  0.00  0.00    +0.000 A 
ATOM      6  C   UNL     1       2.367   3.037  17.734  0.00  0.00    +0.000 A 
ATOM      7  C   UNL     1       3.714   3.213  17.423  0.00  0.00    +0.000 A 
BRANCH   6   8
ATOM      8  O   UNL     1       1.869   1.767  17.698  0.00  0.00    +0.000 OA
ATOM      9  H   UNL     1       1.972   1.421  16.795  0.00  0.00    +0.000 HD
ENDBRANCH   6   8
ENDBRANCH   1   2
BRANCH   1  10
ATOM     10  N   UNL     1       6.669   4.179  18.123  0.00  0.00    +0.000 NA
ATOM     11  H   UNL     1       6.379   4.599  19.013  0.00  0.00    +0.000 HD
ATOM     12  H   UNL     1       7.617   4.506  17.953  0.00  0.00    +0.000 HD
ENDBRANCH   1  10
BRANCH   1  13
ATOM     13  C   UNL     1       6.091   4.011  15.713  0.00  0.00    +0.000 C 
BRANCH  13  14
ATOM     14  C   UNL     1       6.970   4.864  14.829  0.00  0.00    +0.000 C 
ATOM     15  O   UNL     1       7.083   4.752  13.619  0.00  0.00    +0.000 OA
BRANCH  14  16
ATOM     16  O   UNL     1       7.632   5.820  15.525  0.00  0.00    +0.000 OA
ATOM     17  H   UNL     1       8.466   6.111  15.111  0.00  0.00    +0.000 HD
ENDBRANCH  14  16
ENDBRANCH  13  14
ENDBRANCH   1  13
TORSDOF 6
ENDMDL
MODEL 6
REMARK VINA RESULT:      -5.7      2.842      5.060
REMARK  Name = 
REMARK  6 active torsions:
REMARK  status: ('A' for Active; 'I' for Inactive)
REMARK    1  A    between atoms: N_1  and  C_2
REMARK    2  A    between atoms: C_2  and  C_3
REMARK    3  A    between atoms: C_2  and  C_7
REMARK    4  A    between atoms: C_3  and  C_4
REMARK    5  A    between atoms: C_4  and  O_6
REMARK    6  A    between atoms: C_11  and  O_12
REMARK                            x       y       z     vdW  Elec       q    Type
REMARK                         _______ _______ _______ _____ _____    ______ ____
ROOT
ATOM      1  C   UNL     1       1.620   3.146  18.793  0.00  0.00    +0.000 C 
ENDROOT
BRANCH   1   2
ATOM      2  C   UNL     1       2.772   4.075  18.401  0.00  0.00    +0.000 A 
ATOM      3  C   UNL     1       2.565   5.414  18.017  0.00  0.00    +0.000 A 
ATOM      4  C   UNL     1       3.636   6.253  17.698  0.00  0.00    +0.000 A 
ATOM      5  C   UNL     1       4.941   5.780  17.761  0.00  0.00    +0.000 A 
ATOM      6  C   UNL     1       5.163   4.464  18.149  0.00  0.00    +0.000 A 
ATOM      7  C   UNL     1       4.102   3.620  18.472  0.00  0.00    +0.000 A 
BRANCH   6   8
ATOM      8  O   UNL     1       6.426   3.955  18.233  0.00  0.00    +0.000 OA
ATOM      9  H   UNL     1       6.462   3.132  17.718  0.00  0.00    +0.000 HD
ENDBRANCH   6   8
ENDBRANCH   1   2
BRANCH   1  10
ATOM     10  N   UNL     1       2.064   1.746  18.910  0.00  0.00    +0.000 NA
ATOM     11  H   UNL     1       1.609   1.335  19.732  0.00  0.00    +0.000 HD
ATOM     12  H   UNL     1       3.064   1.713  19.095  0.00  0.00    +0.000 HD
ENDBRANCH   1  10
BRANCH   1  13
ATOM     13  C   UNL     1       0.932   3.616  20.092  0.00  0.00    +0.000 C 
BRANCH  13  14
ATOM     14  C   UNL     1       1.860   3.622  21.284  0.00  0.00    +0.000 C 
ATOM     15  O   UNL     1       2.148   2.651  21.965  0.00  0.00    +0.000 OA
BRANCH  14  16
ATOM     16  O   UNL     1       2.383   4.848  21.526  0.00  0.00    +0.000 OA
ATOM     17  H   UNL     1       1.865   5.585  21.150  0.00  0.00    +0.000 HD
ENDBRANCH  14  16
ENDBRANCH  13  14
ENDBRANCH   1  13
TORSDOF 6
ENDMDL
MODEL 7
REMARK VINA RESULT:      -5.6      2.650      5.189
REMARK  Name = 
REMARK  6 active torsions:
REMARK  status: ('A' for Active; 'I' for Inactive)
REMARK    1  A    between atoms: N_1  and  C_2
REMARK    2  A    between atoms: C_2  and  C_3
REMARK    3  A    between atoms: C_2  and  C_7
REMARK    4  A    between atoms: C_3  and  C_4
REMARK    5  A    between atoms: C_4  and  O_6
REMARK    6  A    between atoms: C_11  and  O_12
REMARK                            x       y       z     vdW  Elec       q    Type
REMARK                         _______ _______ _______ _____ _____    ______ ____
ROOT
ATOM      1  C   UNL     1       4.411   4.760  17.201  0.00  0.00    +0.000 C 
ENDROOT
BRANCH   1   2
ATOM      2  C   UNL     1       5.688   5.470  17.658  0.00  0.00    +0.000 A 
ATOM      3  C   UNL     1       6.268   6.524  16.925  0.00  0.00    +0.000 A 
ATOM      4  C   UNL     1       7.414   7.182  17.381  0.00  0.00    +0.000 A 
ATOM      5  C   UNL     1       8.006   6.809  18.583  0.00  0.00    +0.000 A 
ATOM      6  C   UNL     1       7.438   5.778  19.322  0.00  0.00    +0.000 A 
ATOM      7  C   UNL     1       6.294   5.118  18.878  0.00  0.00    +0.000 A 
BRANCH   6   8
ATOM      8  O   UNL     1       7.978   5.381  20.511  0.00  0.00    +0.000 OA
ATOM      9  H   UNL     1       7.968   4.410  20.545  0.00  0.00    +0.000 HD
ENDBRANCH   6   8
ENDBRANCH   1   2
BRANCH   1  10
ATOM     10  N   UNL     1       4.518   3.298  17.349  0.00  0.00    +0.000 NA
ATOM     11  H   UNL     1       4.827   3.096  18.305  0.00  0.00    +0.000 HD
ATOM     12  H   UNL     1       5.245   2.939  16.735  0.00  0.00    +0.000 HD
ENDBRANCH   1  10
BRANCH   1  13
ATOM     13  C   UNL     1       3.169   5.299  17.940  0.00  0.00    +0.000 C 
BRANCH  13  14
ATOM     14  C   UNL     1       2.106   4.248  18.156  0.00  0.00    +0.000 C 
ATOM     15  O   UNL     1       1.277   3.895  17.331  0.00  0.00    +0.000 OA
BRANCH  14  16
ATOM     16  O   UNL     1       2.171   3.691  19.389  0.00  0.00    +0.000 OA
ATOM     17  H   UNL     1       1.617   4.135  20.058  0.00  0.00    +0.000 HD
ENDBRANCH  14  16
ENDBRANCH  13  14
ENDBRANCH   1  13
TORSDOF 6
ENDMDL
MODEL 8
REMARK VINA RESULT:      -5.6      1.691      1.944
REMARK  Name = 
REMARK  6 active torsions:
REMARK  status: ('A' for Active; 'I' for Inactive)
REMARK    1  A    between atoms: N_1  and  C_2
REMARK    2  A    between atoms: C_2  and  C_3
REMARK    3  A    between atoms: C_2  and  C_7
REMARK    4  A    between atoms: C_3  and  C_4
REMARK    5  A    between atoms: C_4  and  O_6
REMARK    6  A    between atoms: C_11  and  O_12
REMARK                            x       y       z     vdW  Elec       q    Type
REMARK                         _______ _______ _______ _____ _____    ______ ____
ROOT
ATOM      1  C   UNL     1       5.306   5.198  18.587  0.00  0.00    +0.000 C 
ENDROOT
BRANCH   1   2
ATOM      2  C   UNL     1       3.988   4.605  19.094  0.00  0.00    +0.000 A 
ATOM      3  C   UNL     1       3.123   5.312  19.951  0.00  0.00    +0.000 A 
ATOM      4  C   UNL     1       1.908   4.764  20.371  0.00  0.00    +0.000 A 
ATOM      5  C   UNL     1       1.522   3.500  19.940  0.00  0.00    +0.000 A 
ATOM      6  C   UNL     1       2.360   2.795  19.085  0.00  0.00    +0.000 A 
ATOM      7  C   UNL     1       3.572   3.333  18.658  0.00  0.00    +0.000 A 
BRANCH   6   8
ATOM      8  O   UNL     1       2.022   1.553  18.629  0.00  0.00    +0.000 OA
ATOM      9  H   UNL     1       2.391   1.442  17.737  0.00  0.00    +0.000 HD
ENDBRANCH   6   8
ENDBRANCH   1   2
BRANCH   1  10
ATOM     10  N   UNL     1       6.373   5.097  19.598  0.00  0.00    +0.000 NA
ATOM     11  H   UNL     1       5.985   5.388  20.501  0.00  0.00    +0.000 HD
ATOM     12  H   UNL     1       7.117   5.757  19.385  0.00  0.00    +0.000 HD
ENDBRANCH   1  10
BRANCH   1  13
ATOM     13  C   UNL     1       5.744   4.550  17.257  0.00  0.00    +0.000 C 
BRANCH  13  14
ATOM     14  C   UNL     1       7.191   4.817  16.918  0.00  0.00    +0.000 C 
ATOM     15  O   UNL     1       8.148   4.188  17.340  0.00  0.00    +0.000 OA
BRANCH  14  16
ATOM     16  O   UNL     1       7.337   5.847  16.049  0.00  0.00    +0.000 OA
ATOM     17  H   UNL     1       6.571   6.449  16.009  0.00  0.00    +0.000 HD
ENDBRANCH  14  16
ENDBRANCH  13  14
ENDBRANCH   1  13
TORSDOF 6
ENDMDL
MODEL 9
REMARK VINA RESULT:      -5.6      1.033      1.429
REMARK  Name = 
REMARK  6 active torsions:
REMARK  status: ('A' for Active; 'I' for Inactive)
REMARK    1  A    between atoms: N_1  and  C_2
REMARK    2  A    between atoms: C_2  and  C_3
REMARK    3  A    between atoms: C_2  and  C_7
REMARK    4  A    between atoms: C_3  and  C_4
REMARK    5  A    between atoms: C_4  and  O_6
REMARK    6  A    between atoms: C_11  and  O_12
REMARK                            x       y       z     vdW  Elec       q    Type
REMARK                         _______ _______ _______ _____ _____    ______ ____
ROOT
ATOM      1  C   UNL     1       4.818   5.459  16.471  0.00  0.00    +0.000 C 
ENDROOT
BRANCH   1   2
ATOM      2  C   UNL     1       3.734   4.856  17.368  0.00  0.00    +0.000 A 
ATOM      3  C   UNL     1       2.975   5.637  18.262  0.00  0.00    +0.000 A 
ATOM      4  C   UNL     1       1.965   5.070  19.045  0.00  0.00    +0.000 A 
ATOM      5  C   UNL     1       1.681   3.713  18.950  0.00  0.00    +0.000 A 
ATOM      6  C   UNL     1       2.413   2.932  18.064  0.00  0.00    +0.000 A 
ATOM      7  C   UNL     1       3.421   3.488  17.277  0.00  0.00    +0.000 A 
BRANCH   6   8
ATOM      8  O   UNL     1       2.168   1.596  17.929  0.00  0.00    +0.000 OA
ATOM      9  H   UNL     1       1.730   1.281  18.738  0.00  0.00    +0.000 HD
ENDBRANCH   6   8
ENDBRANCH   1   2
BRANCH   1  10
ATOM     10  N   UNL     1       5.605   6.482  17.180  0.00  0.00    +0.000 NA
ATOM     11  H   UNL     1       5.190   6.618  18.108  0.00  0.00    +0.000 HD
ATOM     12  H   UNL     1       5.525   7.376  16.702  0.00  0.00    +0.000 HD
ENDBRANCH   1  10
BRANCH   1  13
ATOM     13  C   UNL     1       5.736   4.368  15.882  0.00  0.00    +0.000 C 
BRANCH  13  14
ATOM     14  C   UNL     1       7.204   4.709  15.987  0.00  0.00    +0.000 C 
ATOM     15  O   UNL     1       7.950   4.368  16.892  0.00  0.00    +0.000 OA
BRANCH  14  16
ATOM     16  O   UNL     1       7.642   5.440  14.934  0.00  0.00    +0.000 OA
ATOM     17  H   UNL     1       8.589   5.674  14.976  0.00  0.00    +0.000 HD
ENDBRANCH  14  16
ENDBRANCH  13  14
ENDBRANCH   1  13
TORSDOF 6
ENDMDL
