MODEL 1
REMARK VINA RESULT:      -7.7      0.000      0.000
REMARK  Name = 
REMARK  7 active torsions:
REMARK  status: ('A' for Active; 'I' for Inactive)
REMARK    1  A    between atoms: C_1  and  C_2
REMARK    2  A    between atoms: C_2  and  C_3
REMARK    3  A    between atoms: C_3  and  N_4
REMARK    4  A    between atoms: C_11  and  C_12
REMARK    5  A    between atoms: N_14  and  C_15
REMARK    6  A    between atoms: C_18  and  O_19
REMARK    7  A    between atoms: O_19  and  C_20
REMARK                            x       y       z     vdW  Elec       q    Type
REMARK                         _______ _______ _______ _____ _____    ______ ____
ROOT
ATOM      1  N   UNL     1       3.062   4.552  18.781  0.00  0.00    +0.000 NA
ATOM      2  C   UNL     1       2.253   3.817  19.788  0.00  0.00    +0.000 C 
ATOM      3  C   UNL     1       2.136   4.565  21.121  0.00  0.00    +0.000 C 
ATOM      4  O   UNL     1       1.533   5.846  20.929  0.00  0.00    +0.000 OA
ATOM      5  C   UNL     1       2.357   6.640  20.062  0.00  0.00    +0.000 C 
ATOM      6  C   UNL     1       1.742   8.019  19.902  0.00  0.00    +0.000 A 
ATOM      7  C   UNL     1       1.000   8.591  20.948  0.00  0.00    +0.000 A 
ATOM      8  C   UNL     1       0.411   9.850  20.795  0.00  0.00    +0.000 A 
ATOM      9  C   UNL     1       0.556  10.547  19.593  0.00  0.00    +0.000 A 
ATOM     10  C   UNL     1       1.315  10.003  18.559  0.00  0.00    +0.000 A 
ATOM     11  C   UNL     1       1.925   8.750  18.709  0.00  0.00    +0.000 A 
ATOM     12  C   UNL     1       2.696   8.184  17.541  0.00  0.00    +0.000 C 
ATOM     13  C   UNL     1       3.434   6.880  17.846  0.00  0.00    +0.000 C 
ATOM     14  C   UNL     1       2.529   5.946  18.672  0.00  0.00    +0.000 C 
ENDROOT
BRANCH   8  15
ATOM     15  C   UNL     1      -0.417  10.455  21.867  0.00  0.00    +0.000 C 
ATOM     16  O   UNL     1      -0.715   9.751  22.825  0.00  0.00    +0.000 OA
ATOM     17  N   UNL     1      -0.831  11.756  21.633  0.00  0.00    +0.000 N 
ATOM     18  H   UNL     1      -0.682  12.129  20.704  0.00  0.00    +0.000 HD
BRANCH  17  19
ATOM     19  C   UNL     1      -1.642  12.526  22.494  0.00  0.00    +0.000 A 
ATOM     20  C   UNL     1      -3.018  12.341  22.600  0.00  0.00    +0.000 A 
ATOM     21  C   UNL     1      -3.789  13.204  23.382  0.00  0.00    +0.000 A 
ATOM     22  C   UNL     1      -3.193  14.245  24.090  0.00  0.00    +0.000 A 
ATOM     23  C   UNL     1      -1.808  14.398  24.040  0.00  0.00    +0.000 A 
ATOM     24  C   UNL     1      -1.034  13.535  23.249  0.00  0.00    +0.000 A 
BRANCH  22  25
ATOM     25  O   UNL     1      -4.074  15.073  24.724  0.00  0.00    +0.000 OA
ATOM     26  C   UNL     1      -5.120  15.622  23.938  0.00  0.00    +0.000 C 
ENDBRANCH  22  25
ENDBRANCH  17  19
ENDBRANCH   8  15
BRANCH   1  27
ATOM     27  C   UNL     1       2.977   3.867  17.469  0.00  0.00    +0.000 C 
BRANCH  27  29
ATOM     28  C   UNL     1       5.016   4.246  15.989  0.00  0.00    +0.000 C 
ATOM     29  C   UNL     1       4.290   3.291  16.923  0.00  0.00    +0.000 C 
ENDBRANCH  27  29
ENDBRANCH   1  27
TORSDOF 5
ENDMDL
MODEL 2
REMARK VINA RESULT:      -7.5      3.338      9.869
REMARK  Name = 
REMARK  7 active torsions:
REMARK  status: ('A' for Active; 'I' for Inactive)
REMARK    1  A    between atoms: C_1  and  C_2
REMARK    2  A    between atoms: C_2  and  C_3
REMARK    3  A    between atoms: C_3  and  N_4
REMARK    4  A    between atoms: C_11  and  C_12
REMARK    5  A    between atoms: N_14  and  C_15
REMARK    6  A    between atoms: C_18  and  O_19
REMARK    7  A    between atoms: O_19  and  C_20
REMARK                            x       y       z     vdW  Elec       q    Type
REMARK                         _______ _______ _______ _____ _____    ______ ____
ROOT
ATOM      1  N   UNL     1      -3.836  11.847  17.508  0.00  0.00    +0.000 NA
ATOM      2  C   UNL     1      -3.990  10.773  16.492  0.00  0.00    +0.000 C 
ATOM      3  C   UNL     1      -2.648  10.279  15.937  0.00  0.00    +0.000 C 
ATOM      4  O   UNL     1      -1.826   9.769  16.989  0.00  0.00    +0.000 OA
ATOM      5  C   UNL     1      -1.542  10.817  17.929  0.00  0.00    +0.000 C 
ATOM      6  C   UNL     1      -0.624  10.286  19.017  0.00  0.00    +0.000 A 
ATOM      7  C   UNL     1       0.308   9.277  18.729  0.00  0.00    +0.000 A 
ATOM      8  C   UNL     1       1.137   8.769  19.733  0.00  0.00    +0.000 A 
ATOM      9  C   UNL     1       1.039   9.264  21.036  0.00  0.00    +0.000 A 
ATOM     10  C   UNL     1       0.139  10.287  21.327  0.00  0.00    +0.000 A 
ATOM     11  C   UNL     1      -0.684  10.816  20.323  0.00  0.00    +0.000 A 
ATOM     12  C   UNL     1      -1.676  11.888  20.701  0.00  0.00    +0.000 C 
ATOM     13  C   UNL     1      -2.430  12.495  19.517  0.00  0.00    +0.000 C 
ATOM     14  C   UNL     1      -2.863  11.380  18.545  0.00  0.00    +0.000 C 
ENDROOT
BRANCH   8  15
ATOM     15  C   UNL     1       2.097   7.670  19.465  0.00  0.00    +0.000 C 
ATOM     16  O   UNL     1       2.463   6.987  20.415  0.00  0.00    +0.000 OA
ATOM     17  N   UNL     1       2.538   7.574  18.155  0.00  0.00    +0.000 N 
ATOM     18  H   UNL     1       2.309   8.339  17.533  0.00  0.00    +0.000 HD
BRANCH  17  19
ATOM     19  C   UNL     1       3.465   6.627  17.670  0.00  0.00    +0.000 A 
ATOM     20  C   UNL     1       4.679   6.988  17.091  0.00  0.00    +0.000 A 
ATOM     21  C   UNL     1       5.508   6.017  16.525  0.00  0.00    +0.000 A 
ATOM     22  C   UNL     1       5.149   4.672  16.553  0.00  0.00    +0.000 A 
ATOM     23  C   UNL     1       3.966   4.295  17.186  0.00  0.00    +0.000 A 
ATOM     24  C   UNL     1       3.129   5.272  17.750  0.00  0.00    +0.000 A 
BRANCH  22  25
ATOM     25  O   UNL     1       5.997   3.848  15.871  0.00  0.00    +0.000 OA
ATOM     26  C   UNL     1       6.391   4.263  14.572  0.00  0.00    +0.000 C 
ENDBRANCH  22  25
ENDBRANCH  17  19
ENDBRANCH   8  15
BRANCH   1  27
ATOM     27  C   UNL     1      -5.148  12.141  18.132  0.00  0.00    +0.000 C 
BRANCH  27  29
ATOM     28  C   UNL     1      -6.925  11.001  19.558  0.00  0.00    +0.000 C 
ATOM     29  C   UNL     1      -6.106  10.952  18.279  0.00  0.00    +0.000 C 
ENDBRANCH  27  29
ENDBRANCH   1  27
TORSDOF 5
ENDMDL
MODEL 3
REMARK VINA RESULT:      -7.4      2.446     10.328
REMARK  Name = 
REMARK  7 active torsions:
REMARK  status: ('A' for Active; 'I' for Inactive)
REMARK    1  A    between atoms: C_1  and  C_2
REMARK    2  A    between atoms: C_2  and  C_3
REMARK    3  A    between atoms: C_3  and  N_4
REMARK    4  A    between atoms: C_11  and  C_12
REMARK    5  A    between atoms: N_14  and  C_15
REMARK    6  A    between atoms: C_18  and  O_19
REMARK    7  A    between atoms: O_19  and  C_20
REMARK                            x       y       z     vdW  Elec       q    Type
REMARK                         _______ _______ _______ _____ _____    ______ ____
ROOT
ATOM      1  N   UNL     1      -2.343  12.856  21.398  0.00  0.00    +0.000 NA
ATOM      2  C   UNL     1      -2.608  13.135  19.962  0.00  0.00    +0.000 C 
ATOM      3  C   UNL     1      -1.342  13.075  19.098  0.00  0.00    +0.000 C 
ATOM      4  O   UNL     1      -0.734  11.785  19.186  0.00  0.00    +0.000 OA
ATOM      5  C   UNL     1      -0.341  11.529  20.542  0.00  0.00    +0.000 C 
ATOM      6  C   UNL     1       0.353  10.181  20.624  0.00  0.00    +0.000 A 
ATOM      7  C   UNL     1       1.095   9.697  19.533  0.00  0.00    +0.000 A 
ATOM      8  C   UNL     1       1.714   8.446  19.596  0.00  0.00    +0.000 A 
ATOM      9  C   UNL     1       1.595   7.664  20.747  0.00  0.00    +0.000 A 
ATOM     10  C   UNL     1       0.887   8.146  21.846  0.00  0.00    +0.000 A 
ATOM     11  C   UNL     1       0.278   9.408  21.801  0.00  0.00    +0.000 A 
ATOM     12  C   UNL     1      -0.518   9.862  23.000  0.00  0.00    +0.000 C 
ATOM     13  C   UNL     1      -1.029  11.300  22.909  0.00  0.00    +0.000 C 
ATOM     14  C   UNL     1      -1.578  11.573  21.496  0.00  0.00    +0.000 C 
ENDROOT
BRANCH   8  15
ATOM     15  C   UNL     1       2.463   7.892  18.440  0.00  0.00    +0.000 C 
ATOM     16  O   UNL     1       2.347   8.459  17.360  0.00  0.00    +0.000 OA
ATOM     17  N   UNL     1       3.173   6.730  18.696  0.00  0.00    +0.000 N 
ATOM     18  H   UNL     1       3.000   6.267  19.580  0.00  0.00    +0.000 HD
BRANCH  17  19
ATOM     19  C   UNL     1       3.937   6.012  17.752  0.00  0.00    +0.000 A 
ATOM     20  C   UNL     1       4.980   6.587  17.032  0.00  0.00    +0.000 A 
ATOM     21  C   UNL     1       5.630   5.864  16.028  0.00  0.00    +0.000 A 
ATOM     22  C   UNL     1       5.264   4.549  15.751  0.00  0.00    +0.000 A 
ATOM     23  C   UNL     1       4.263   3.944  16.511  0.00  0.00    +0.000 A 
ATOM     24  C   UNL     1       3.606   4.674  17.514  0.00  0.00    +0.000 A 
BRANCH  22  25
ATOM     25  O   UNL     1       5.906   3.999  14.678  0.00  0.00    +0.000 OA
ATOM     26  C   UNL     1       6.911   4.787  14.058  0.00  0.00    +0.000 C 
ENDBRANCH  22  25
ENDBRANCH  17  19
ENDBRANCH   8  15
BRANCH   1  27
ATOM     27  C   UNL     1      -3.625  12.746  22.134  0.00  0.00    +0.000 C 
BRANCH  27  29
ATOM     28  C   UNL     1      -5.693  14.234  22.108  0.00  0.00    +0.000 C 
ATOM     29  C   UNL     1      -4.880  13.183  21.369  0.00  0.00    +0.000 C 
ENDBRANCH  27  29
ENDBRANCH   1  27
TORSDOF 5
ENDMDL
MODEL 4
REMARK VINA RESULT:      -7.3      3.398      9.974
REMARK  Name = 
REMARK  7 active torsions:
REMARK  status: ('A' for Active; 'I' for Inactive)
REMARK    1  A    between atoms: C_1  and  C_2
REMARK    2  A    between atoms: C_2  and  C_3
REMARK    3  A    between atoms: C_3  and  N_4
REMARK    4  A    between atoms: C_11  and  C_12
REMARK    5  A    between atoms: N_14  and  C_15
REMARK    6  A    between atoms: C_18  and  O_19
REMARK    7  A    between atoms: O_19  and  C_20
REMARK                            x       y       z     vdW  Elec       q    Type
REMARK                         _______ _______ _______ _____ _____    ______ ____
ROOT
ATOM      1  N   UNL     1      -4.977  12.394  18.767  0.00  0.00    +0.000 NA
ATOM      2  C   UNL     1      -5.279  11.518  17.605  0.00  0.00    +0.000 C 
ATOM      3  C   UNL     1      -4.093  11.372  16.644  0.00  0.00    +0.000 C 
ATOM      4  O   UNL     1      -2.961  10.822  17.321  0.00  0.00    +0.000 OA
ATOM      5  C   UNL     1      -2.553  11.709  18.374  0.00  0.00    +0.000 C 
ATOM      6  C   UNL     1      -1.318  11.148  19.058  0.00  0.00    +0.000 A 
ATOM      7  C   UNL     1      -0.391  10.383  18.333  0.00  0.00    +0.000 A 
ATOM      8  C   UNL     1       0.734   9.846  18.965  0.00  0.00    +0.000 A 
ATOM      9  C   UNL     1       0.940  10.065  20.329  0.00  0.00    +0.000 A 
ATOM     10  C   UNL     1       0.044  10.848  21.053  0.00  0.00    +0.000 A 
ATOM     11  C   UNL     1      -1.078  11.407  20.424  0.00  0.00    +0.000 A 
ATOM     12  C   UNL     1      -2.045  12.206  21.264  0.00  0.00    +0.000 C 
ATOM     13  C   UNL     1      -3.159  12.885  20.466  0.00  0.00    +0.000 C 
ATOM     14  C   UNL     1      -3.711  11.915  19.404  0.00  0.00    +0.000 C 
ENDROOT
BRANCH   8  15
ATOM     15  C   UNL     1       1.704   8.994  18.232  0.00  0.00    +0.000 C 
ATOM     16  O   UNL     1       2.244   9.468  17.240  0.00  0.00    +0.000 OA
ATOM     17  N   UNL     1       1.845   7.705  18.718  0.00  0.00    +0.000 N 
ATOM     18  H   UNL     1       1.176   7.395  19.412  0.00  0.00    +0.000 HD
BRANCH  17  19
ATOM     19  C   UNL     1       2.686   6.711  18.173  0.00  0.00    +0.000 A 
ATOM     20  C   UNL     1       2.287   5.387  18.018  0.00  0.00    +0.000 A 
ATOM     21  C   UNL     1       3.197   4.421  17.579  0.00  0.00    +0.000 A 
ATOM     22  C   UNL     1       4.507   4.771  17.264  0.00  0.00    +0.000 A 
ATOM     23  C   UNL     1       4.897   6.106  17.355  0.00  0.00    +0.000 A 
ATOM     24  C   UNL     1       3.985   7.076  17.803  0.00  0.00    +0.000 A 
BRANCH  22  25
ATOM     25  O   UNL     1       5.314   3.714  16.952  0.00  0.00    +0.000 OA
ATOM     26  C   UNL     1       5.946   3.741  15.682  0.00  0.00    +0.000 C 
ENDBRANCH  22  25
ENDBRANCH  17  19
ENDBRANCH   8  15
BRANCH   1  27
ATOM     27  C   UNL     1      -6.093  12.340  19.742  0.00  0.00    +0.000 C 
BRANCH  27  29
ATOM     28  C   UNL     1      -7.194  10.088  20.197  0.00  0.00    +0.000 C 
ATOM     29  C   UNL     1      -7.240  11.381  19.399  0.00  0.00    +0.000 C 
ENDBRANCH  27  29
ENDBRANCH   1  27
TORSDOF 5
ENDMDL
MODEL 5
REMARK VINA RESULT:      -7.3      1.471      1.987
REMARK  Name = 
REMARK  7 active torsions:
REMARK  status: ('A' for Active; 'I' for Inactive)
REMARK    1  A    between atoms: C_1  and  C_2
REMARK    2  A    between atoms: C_2  and  C_3
REMARK    3  A    between atoms: C_3  and  N_4
REMARK    4  A    between atoms: C_11  and  C_12
REMARK    5  A    between atoms: N_14  and  C_15
REMARK    6  A    between atoms: C_18  and  O_19
REMARK    7  A    between atoms: O_19  and  C_20
REMARK                            x       y       z     vdW  Elec       q    Type
REMARK                         _______ _______ _______ _____ _____    ______ ____
ROOT
ATOM      1  N   UNL     1       3.828   3.429  19.775  0.00  0.00    +0.000 NA
ATOM      2  C   UNL     1       2.732   3.030  20.697  0.00  0.00    +0.000 C 
ATOM      3  C   UNL     1       2.338   4.144  21.674  0.00  0.00    +0.000 C 
ATOM      4  O   UNL     1       1.908   5.308  20.964  0.00  0.00    +0.000 OA
ATOM      5  C   UNL     1       2.987   5.806  20.158  0.00  0.00    +0.000 C 
ATOM      6  C   UNL     1       2.544   7.072  19.446  0.00  0.00    +0.000 A 
ATOM      7  C   UNL     1       1.607   7.932  20.042  0.00  0.00    +0.000 A 
ATOM      8  C   UNL     1       1.180   9.085  19.379  0.00  0.00    +0.000 A 
ATOM      9  C   UNL     1       1.682   9.388  18.111  0.00  0.00    +0.000 A 
ATOM     10  C   UNL     1       2.634   8.560  17.522  0.00  0.00    +0.000 A 
ATOM     11  C   UNL     1       3.084   7.411  18.187  0.00  0.00    +0.000 A 
ATOM     12  C   UNL     1       4.080   6.521  17.484  0.00  0.00    +0.000 C 
ATOM     13  C   UNL     1       4.610   5.369  18.340  0.00  0.00    +0.000 C 
ATOM     14  C   UNL     1       3.453   4.726  19.128  0.00  0.00    +0.000 C 
ENDROOT
BRANCH   8  15
ATOM     15  C   UNL     1       0.155   9.984  19.967  0.00  0.00    +0.000 C 
ATOM     16  O   UNL     1      -0.838  10.235  19.295  0.00  0.00    +0.000 OA
ATOM     17  N   UNL     1       0.470  10.507  21.211  0.00  0.00    +0.000 N 
ATOM     18  H   UNL     1       1.417  10.375  21.542  0.00  0.00    +0.000 HD
BRANCH  17  19
ATOM     19  C   UNL     1      -0.334  11.399  21.952  0.00  0.00    +0.000 A 
ATOM     20  C   UNL     1      -1.258  10.970  22.901  0.00  0.00    +0.000 A 
ATOM     21  C   UNL     1      -2.108  11.887  23.525  0.00  0.00    +0.000 A 
ATOM     22  C   UNL     1      -2.029  13.245  23.228  0.00  0.00    +0.000 A 
ATOM     23  C   UNL     1      -1.063  13.690  22.325  0.00  0.00    +0.000 A 
ATOM     24  C   UNL     1      -0.213  12.768  21.694  0.00  0.00    +0.000 A 
BRANCH  22  25
ATOM     25  O   UNL     1      -2.987  14.010  23.827  0.00  0.00    +0.000 OA
ATOM     26  C   UNL     1      -4.180  13.352  24.225  0.00  0.00    +0.000 C 
ENDBRANCH  22  25
ENDBRANCH  17  19
ENDBRANCH   8  15
BRANCH   1  27
ATOM     27  C   UNL     1       4.026   2.382  18.745  0.00  0.00    +0.000 C 
BRANCH  27  29
ATOM     28  C   UNL     1       2.319   2.979  16.951  0.00  0.00    +0.000 C 
ATOM     29  C   UNL     1       2.773   1.950  17.974  0.00  0.00    +0.000 C 
ENDBRANCH  27  29
ENDBRANCH   1  27
TORSDOF 5
ENDMDL
MODEL 6
REMARK VINA RESULT:      -7.3      1.030      1.266
REMARK  Name = 
REMARK  7 active torsions:
REMARK  status: ('A' for Active; 'I' for Inactive)
REMARK    1  A    between atoms: C_1  and  C_2
REMARK    2  A    between atoms: C_2  and  C_3
REMARK    3  A    between atoms: C_3  and  N_4
REMARK    4  A    between atoms: C_11  and  C_12
REMARK    5  A    between atoms: N_14  and  C_15
REMARK    6  A    between atoms: C_18  and  O_19
REMARK    7  A    between atoms: O_19  and  C_20
REMARK                            x       y       z     vdW  Elec       q    Type
REMARK                         _______ _______ _______ _____ _____    ______ ____
ROOT
ATOM      1  N   UNL     1       3.476   4.348  18.711  0.00  0.00    +0.000 NA
ATOM      2  C   UNL     1       2.575   3.597  19.625  0.00  0.00    +0.000 C 
ATOM      3  C   UNL     1       2.289   4.348  20.931  0.00  0.00    +0.000 C 
ATOM      4  O   UNL     1       1.681   5.612  20.662  0.00  0.00    +0.000 OA
ATOM      5  C   UNL     1       2.579   6.423  19.889  0.00  0.00    +0.000 C 
ATOM      6  C   UNL     1       1.952   7.786  19.650  0.00  0.00    +0.000 A 
ATOM      7  C   UNL     1       1.082   8.344  20.601  0.00  0.00    +0.000 A 
ATOM      8  C   UNL     1       0.485   9.587  20.373  0.00  0.00    +0.000 A 
ATOM      9  C   UNL     1       0.749  10.282  19.190  0.00  0.00    +0.000 A 
ATOM     10  C   UNL     1       1.634   9.753  18.254  0.00  0.00    +0.000 A 
ATOM     11  C   UNL     1       2.253   8.516  18.481  0.00  0.00    +0.000 A 
ATOM     12  C   UNL     1       3.165   7.964  17.413  0.00  0.00    +0.000 C 
ATOM     13  C   UNL     1       3.895   6.680  17.809  0.00  0.00    +0.000 C 
ATOM     14  C   UNL     1       2.925   5.728  18.533  0.00  0.00    +0.000 C 
ENDROOT
BRANCH   8  15
ATOM     15  C   UNL     1      -0.475  10.176  21.339  0.00  0.00    +0.000 C 
ATOM     16  O   UNL     1      -0.668   9.576  22.390  0.00  0.00    +0.000 OA
ATOM     17  N   UNL     1      -1.115  11.328  20.912  0.00  0.00    +0.000 N 
ATOM     18  H   UNL     1      -1.008  11.583  19.938  0.00  0.00    +0.000 HD
BRANCH  17  19
ATOM     19  C   UNL     1      -2.081  12.049  21.645  0.00  0.00    +0.000 A 
ATOM     20  C   UNL     1      -2.164  12.001  23.034  0.00  0.00    +0.000 A 
ATOM     21  C   UNL     1      -3.209  12.644  23.702  0.00  0.00    +0.000 A 
ATOM     22  C   UNL     1      -4.169  13.364  22.995  0.00  0.00    +0.000 A 
ATOM     23  C   UNL     1      -4.057  13.470  21.609  0.00  0.00    +0.000 A 
ATOM     24  C   UNL     1      -3.010  12.819  20.937  0.00  0.00    +0.000 A 
BRANCH  22  25
ATOM     25  O   UNL     1      -5.189  13.849  23.761  0.00  0.00    +0.000 OA
ATOM     26  C   UNL     1      -6.257  12.959  24.046  0.00  0.00    +0.000 C 
ENDBRANCH  22  25
ENDBRANCH  17  19
ENDBRANCH   8  15
BRANCH   1  27
ATOM     27  C   UNL     1       3.557   3.655  17.403  0.00  0.00    +0.000 C 
BRANCH  27  29
ATOM     28  C   UNL     1       5.135   4.374  15.536  0.00  0.00    +0.000 C 
ATOM     29  C   UNL     1       4.959   3.535  16.792  0.00  0.00    +0.000 C 
ENDBRANCH  27  29
ENDBRANCH   1  27
TORSDOF 5
ENDMDL
MODEL 7
REMARK VINA RESULT:      -7.2      2.707      9.931
REMARK  Name = 
REMARK  7 active torsions:
REMARK  status: ('A' for Active; 'I' for Inactive)
REMARK    1  A    between atoms: C_1  and  C_2
REMARK    2  A    between atoms: C_2  and  C_3
REMARK    3  A    between atoms: C_3  and  N_4
REMARK    4  A    between atoms: C_11  and  C_12
REMARK    5  A    between atoms: N_14  and  C_15
REMARK    6  A    between atoms: C_18  and  O_19
REMARK    7  A    between atoms: O_19  and  C_20
REMARK                            x       y       z     vdW  Elec       q    Type
REMARK                         _______ _______ _______ _____ _____    ______ ____
ROOT
ATOM      1  N   UNL     1      -3.017  12.550  19.550  0.00  0.00    +0.000 NA
ATOM      2  C   UNL     1      -3.413  11.823  18.316  0.00  0.00    +0.000 C 
ATOM      3  C   UNL     1      -2.213  11.287  17.527  0.00  0.00    +0.000 C 
ATOM      4  O   UNL     1      -1.441  10.392  18.330  0.00  0.00    +0.000 OA
ATOM      5  C   UNL     1      -0.926  11.093  19.472  0.00  0.00    +0.000 C 
ATOM      6  C   UNL     1      -0.062  10.154  20.296  0.00  0.00    +0.000 A 
ATOM      7  C   UNL     1       0.658   9.122  19.673  0.00  0.00    +0.000 A 
ATOM      8  C   UNL     1       1.434   8.241  20.431  0.00  0.00    +0.000 A 
ATOM      9  C   UNL     1       1.495   8.381  21.819  0.00  0.00    +0.000 A 
ATOM     10  C   UNL     1       0.810   9.420  22.445  0.00  0.00    +0.000 A 
ATOM     11  C   UNL     1       0.043  10.320  21.692  0.00  0.00    +0.000 A 
ATOM     12  C   UNL     1      -0.719  11.398  22.424  0.00  0.00    +0.000 C 
ATOM     13  C   UNL     1      -1.414  12.409  21.511  0.00  0.00    +0.000 C 
ATOM     14  C   UNL     1      -2.090  11.676  20.336  0.00  0.00    +0.000 C 
ENDROOT
BRANCH   8  15
ATOM     15  C   UNL     1       2.166   7.113  19.802  0.00  0.00    +0.000 C 
ATOM     16  O   UNL     1       2.286   6.079  20.447  0.00  0.00    +0.000 OA
ATOM     17  N   UNL     1       2.705   7.380  18.553  0.00  0.00    +0.000 N 
ATOM     18  H   UNL     1       2.703   8.344  18.244  0.00  0.00    +0.000 HD
BRANCH  17  19
ATOM     19  C   UNL     1       3.458   6.475  17.776  0.00  0.00    +0.000 A 
ATOM     20  C   UNL     1       3.168   5.114  17.710  0.00  0.00    +0.000 A 
ATOM     21  C   UNL     1       4.013   4.245  17.016  0.00  0.00    +0.000 A 
ATOM     22  C   UNL     1       5.142   4.725  16.358  0.00  0.00    +0.000 A 
ATOM     23  C   UNL     1       5.405   6.095  16.366  0.00  0.00    +0.000 A 
ATOM     24  C   UNL     1       4.559   6.968  17.068  0.00  0.00    +0.000 A 
BRANCH  22  25
ATOM     25  O   UNL     1       5.933   3.755  15.813  0.00  0.00    +0.000 OA
ATOM     26  C   UNL     1       6.251   3.883  14.435  0.00  0.00    +0.000 C 
ENDBRANCH  22  25
ENDBRANCH  17  19
ENDBRANCH   8  15
BRANCH   1  27
ATOM     27  C   UNL     1      -4.220  12.874  20.353  0.00  0.00    +0.000 C 
BRANCH  27  29
ATOM     28  C   UNL     1      -6.496  11.748  20.564  0.00  0.00    +0.000 C 
ATOM     29  C   UNL     1      -5.571  12.579  19.689  0.00  0.00    +0.000 C 
ENDBRANCH  27  29
ENDBRANCH   1  27
TORSDOF 5
ENDMDL
MODEL 8
REMARK VINA RESULT:      -7.2      3.448     10.195
REMARK  Name = 
REMARK  7 active torsions:
REMARK  status: ('A' for Active; 'I' for Inactive)
REMARK    1  A    between atoms: C_1  and  C_2
REMARK    2  A    between atoms: C_2  and  C_3
REMARK    3  A    between atoms: C_3  and  N_4
REMARK    4  A    between atoms: C_11  and  C_12
REMARK    5  A    between atoms: N_14  and  C_15
REMARK    6  A    between atoms: C_18  and  O_19
REMARK    7  A    between atoms: O_19  and  C_20
REMARK                            x       y       z     vdW  Elec       q    Type
REMARK                         _______ _______ _______ _____ _____    ______ ____
ROOT
ATOM      1  N   UNL     1      -4.924  12.324  18.642  0.00  0.00    +0.000 NA
ATOM      2  C   UNL     1      -5.179  11.493  17.435  0.00  0.00    +0.000 C 
ATOM      3  C   UNL     1      -3.961  11.394  16.510  0.00  0.00    +0.000 C 
ATOM      4  O   UNL     1      -2.848  10.825  17.201  0.00  0.00    +0.000 OA
ATOM      5  C   UNL     1      -2.482  11.672  18.302  0.00  0.00    +0.000 C 
ATOM      6  C   UNL     1      -1.266  11.093  19.004  0.00  0.00    +0.000 A 
ATOM      7  C   UNL     1      -0.308  10.364  18.280  0.00  0.00    +0.000 A 
ATOM      8  C   UNL     1       0.800   9.810  18.927  0.00  0.00    +0.000 A 
ATOM      9  C   UNL     1       0.959   9.975  20.305  0.00  0.00    +0.000 A 
ATOM     10  C   UNL     1       0.032  10.721  21.029  0.00  0.00    +0.000 A 
ATOM     11  C   UNL     1      -1.073  11.298  20.386  0.00  0.00    +0.000 A 
ATOM     12  C   UNL     1      -2.074  12.055  21.225  0.00  0.00    +0.000 C 
ATOM     13  C   UNL     1      -3.167  12.758  20.419  0.00  0.00    +0.000 C 
ATOM     14  C   UNL     1      -3.675  11.828  19.301  0.00  0.00    +0.000 C 
ENDROOT
BRANCH   8  15
ATOM     15  C   UNL     1       1.800   8.996  18.193  0.00  0.00    +0.000 C 
ATOM     16  O   UNL     1       2.296   9.477  17.181  0.00  0.00    +0.000 OA
ATOM     17  N   UNL     1       2.019   7.726  18.702  0.00  0.00    +0.000 N 
ATOM     18  H   UNL     1       1.381   7.396  19.415  0.00  0.00    +0.000 HD
BRANCH  17  19
ATOM     19  C   UNL     1       2.903   6.768  18.161  0.00  0.00    +0.000 A 
ATOM     20  C   UNL     1       4.151   7.101  17.641  0.00  0.00    +0.000 A 
ATOM     21  C   UNL     1       4.938   6.130  17.016  0.00  0.00    +0.000 A 
ATOM     22  C   UNL     1       4.500   4.811  16.925  0.00  0.00    +0.000 A 
ATOM     23  C   UNL     1       3.280   4.456  17.499  0.00  0.00    +0.000 A 
ATOM     24  C   UNL     1       2.487   5.432  18.122  0.00  0.00    +0.000 A 
BRANCH  22  25
ATOM     25  O   UNL     1       5.317   3.995  16.197  0.00  0.00    +0.000 OA
ATOM     26  C   UNL     1       6.569   4.530  15.797  0.00  0.00    +0.000 C 
ENDBRANCH  22  25
ENDBRANCH  17  19
ENDBRANCH   8  15
BRANCH   1  27
ATOM     27  C   UNL     1      -6.071  12.222  19.575  0.00  0.00    +0.000 C 
BRANCH  27  29
ATOM     28  C   UNL     1      -7.916  13.864  18.953  0.00  0.00    +0.000 C 
ATOM     29  C   UNL     1      -6.782  13.539  19.912  0.00  0.00    +0.000 C 
ENDBRANCH  27  29
ENDBRANCH   1  27
TORSDOF 5
ENDMDL
MODEL 9
REMARK VINA RESULT:      -7.2      2.904      9.946
REMARK  Name = 
REMARK  7 active torsions:
REMARK  status: ('A' for Active; 'I' for Inactive)
REMARK    1  A    between atoms: C_1  and  C_2
REMARK    2  A    between atoms: C_2  and  C_3
REMARK    3  A    between atoms: C_3  and  N_4
REMARK    4  A    between atoms: C_11  and  C_12
REMARK    5  A    between atoms: N_14  and  C_15
REMARK    6  A    between atoms: C_18  and  O_19
REMARK    7  A    between atoms: O_19  and  C_20
REMARK                            x       y       z     vdW  Elec       q    Type
REMARK                         _______ _______ _______ _____ _____    ______ ____
ROOT
ATOM      1  N   UNL     1      -3.036  12.224  19.042  0.00  0.00    +0.000 NA
ATOM      2  C   UNL     1      -3.387  11.409  17.849  0.00  0.00    +0.000 C 
ATOM      3  C   UNL     1      -2.157  10.865  17.114  0.00  0.00    +0.000 C 
ATOM      4  O   UNL     1      -1.372  10.047  17.984  0.00  0.00    +0.000 OA
ATOM      5  C   UNL     1      -0.900  10.834  19.088  0.00  0.00    +0.000 C 
ATOM      6  C   UNL     1      -0.022   9.976  19.984  0.00  0.00    +0.000 A 
ATOM      7  C   UNL     1       0.741   8.931  19.438  0.00  0.00    +0.000 A 
ATOM      8  C   UNL     1       1.531   8.124  20.263  0.00  0.00    +0.000 A 
ATOM      9  C   UNL     1       1.561   8.352  21.640  0.00  0.00    +0.000 A 
ATOM     10  C   UNL     1       0.833   9.405  22.189  0.00  0.00    +0.000 A 
ATOM     11  C   UNL     1       0.052  10.231  21.369  0.00  0.00    +0.000 A 
ATOM     12  C   UNL     1      -0.757  11.327  22.019  0.00  0.00    +0.000 C 
ATOM     13  C   UNL     1      -1.467  12.256  21.034  0.00  0.00    +0.000 C 
ATOM     14  C   UNL     1      -2.097  11.431  19.896  0.00  0.00    +0.000 C 
ENDROOT
BRANCH   8  15
ATOM     15  C   UNL     1       2.309   6.984  19.717  0.00  0.00    +0.000 C 
ATOM     16  O   UNL     1       2.391   5.970  20.400  0.00  0.00    +0.000 OA
ATOM     17  N   UNL     1       2.928   7.218  18.500  0.00  0.00    +0.000 N 
ATOM     18  H   UNL     1       2.942   8.173  18.163  0.00  0.00    +0.000 HD
BRANCH  17  19
ATOM     19  C   UNL     1       3.737   6.297  17.802  0.00  0.00    +0.000 A 
ATOM     20  C   UNL     1       4.935   6.656  17.190  0.00  0.00    +0.000 A 
ATOM     21  C   UNL     1       5.639   5.730  16.416  0.00  0.00    +0.000 A 
ATOM     22  C   UNL     1       5.170   4.427  16.265  0.00  0.00    +0.000 A 
ATOM     23  C   UNL     1       4.005   4.041  16.926  0.00  0.00    +0.000 A 
ATOM     24  C   UNL     1       3.294   4.974  17.699  0.00  0.00    +0.000 A 
BRANCH  22  25
ATOM     25  O   UNL     1       5.897   3.663  15.399  0.00  0.00    +0.000 OA
ATOM     26  C   UNL     1       6.046   4.157  14.076  0.00  0.00    +0.000 C 
ENDBRANCH  22  25
ENDBRANCH  17  19
ENDBRANCH   8  15
BRANCH   1  27
ATOM     27  C   UNL     1      -4.264  12.557  19.803  0.00  0.00    +0.000 C 
BRANCH  27  29
ATOM     28  C   UNL     1      -6.520  11.379  19.911  0.00  0.00    +0.000 C 
ATOM     29  C   UNL     1      -5.594  12.266  19.096  0.00  0.00    +0.000 C 
ENDBRANCH  27  29
ENDBRANCH   1  27
TORSDOF 5
ENDMDL
