MODEL 1
REMARK VINA RESULT:      -8.1      0.000      0.000
REMARK  Name = 
REMARK  8 active torsions:
REMARK  status: ('A' for Active; 'I' for Inactive)
REMARK    1  A    between atoms: C_1  and  O_2
REMARK    2  A    between atoms: O_2  and  C_3
REMARK    3  A    between atoms: C_3  and  C_5
REMARK    4  A    between atoms: C_10  and  C_12
REMARK    5  A    between atoms: C_16  and  S_17
REMARK    6  A    between atoms: S_17  and  N_20
REMARK    7  A    between atoms: N_20  and  C_21
REMARK    8  A    between atoms: N_20  and  C_22
REMARK                            x       y       z     vdW  Elec       q    Type
REMARK                         _______ _______ _______ _____ _____    ______ ____
ROOT
ATOM      1  C   UNL     1       1.106   9.034  20.431  0.00  0.00    +0.000 A 
ATOM      2  C   UNL     1       0.339   8.271  21.327  0.00  0.00    +0.000 A 
ATOM      3  C   UNL     1      -0.475   8.888  22.281  0.00  0.00    +0.000 A 
ATOM      4  C   UNL     1      -0.560  10.280  22.333  0.00  0.00    +0.000 A 
ATOM      5  C   UNL     1       0.204  11.047  21.447  0.00  0.00    +0.000 A 
ATOM      6  C   UNL     1       1.080  10.430  20.536  0.00  0.00    +0.000 A 
ENDROOT
BRANCH   1  12
ATOM      7  C   UNL     1       5.363   5.055  17.564  0.00  0.00    +0.000 A 
ATOM      8  C   UNL     1       4.981   4.588  18.820  0.00  0.00    +0.000 A 
ATOM      9  C   UNL     1       3.996   5.273  19.546  0.00  0.00    +0.000 A 
ATOM     10  C   UNL     1       3.413   6.407  18.994  0.00  0.00    +0.000 A 
ATOM     11  N   UNL     1       2.472   7.115  19.758  0.00  0.00    +0.000 N 
ATOM     12  C   UNL     1       1.859   8.295  19.365  0.00  0.00    +0.000 C 
ATOM     13  O   UNL     1       1.931   8.821  18.261  0.00  0.00    +0.000 OA
ATOM     14  N   UNL     1       3.772   6.860  17.778  0.00  0.00    +0.000 NA
ATOM     15  C   UNL     1       4.729   6.185  17.090  0.00  0.00    +0.000 A 
ATOM     16  H   UNL     1       2.323   6.769  20.695  0.00  0.00    +0.000 HD
BRANCH   7  17
ATOM     17  C   UNL     1       6.404   4.427  16.718  0.00  0.00    +0.000 C 
ATOM     18  O   UNL     1       7.600   4.614  16.869  0.00  0.00    +0.000 OA
BRANCH  17  20
ATOM     19  C   UNL     1       6.170   3.960  14.439  0.00  0.00    +0.000 C 
ATOM     20  O   UNL     1       5.833   3.624  15.787  0.00  0.00    +0.000 OA
ENDBRANCH  17  20
ENDBRANCH   7  17
ENDBRANCH   1  12
BRANCH   5  21
ATOM     21  S   UNL     1       0.116  12.835  21.501  0.00  0.00    +0.000 S 
ATOM     22  O   UNL     1      -0.858  13.165  22.519  0.00  0.00    +0.000 OA
ATOM     23  O   UNL     1       1.484  13.306  21.602  0.00  0.00    +0.000 OA
BRANCH  21  24
ATOM     24  N   UNL     1      -0.491  13.319  19.983  0.00  0.00    +0.000 N 
ATOM     25  C   UNL     1      -0.128  14.643  19.458  0.00  0.00    +0.000 C 
BRANCH  24  26
ATOM     26  C   UNL     1      -1.722  12.746  19.531  0.00  0.00    +0.000 A 
ATOM     27  C   UNL     1      -2.931  13.043  20.167  0.00  0.00    +0.000 A 
ATOM     28  C   UNL     1      -4.112  12.435  19.740  0.00  0.00    +0.000 A 
ATOM     29  C   UNL     1      -4.086  11.541  18.669  0.00  0.00    +0.000 A 
ATOM     30 CL   UNL     1      -5.536  10.764  18.171  0.00  0.00    +0.000 Cl
ATOM     31  C   UNL     1      -2.888  11.266  18.011  0.00  0.00    +0.000 A 
ATOM     32  C   UNL     1      -1.703  11.865  18.447  0.00  0.00    +0.000 A 
ENDBRANCH  24  26
ENDBRANCH  21  24
ENDBRANCH   5  21
TORSDOF 6
ENDMDL
MODEL 2
REMARK VINA RESULT:      -8.0      1.110      1.507
REMARK  Name = 
REMARK  8 active torsions:
REMARK  status: ('A' for Active; 'I' for Inactive)
REMARK    1  A    between atoms: C_1  and  O_2
REMARK    2  A    between atoms: O_2  and  C_3
REMARK    3  A    between atoms: C_3  and  C_5
REMARK    4  A    between atoms: C_10  and  C_12
REMARK    5  A    between atoms: C_16  and  S_17
REMARK    6  A    between atoms: S_17  and  N_20
REMARK    7  A    between atoms: N_20  and  C_21
REMARK    8  A    between atoms: N_20  and  C_22
REMARK                            x       y       z     vdW  Elec       q    Type
REMARK                         _______ _______ _______ _____ _____    ______ ____
ROOT
ATOM      1  C   UNL     1       1.533   8.661  19.762  0.00  0.00    +0.000 A 
ATOM      2  C   UNL     1       1.242   7.733  20.776  0.00  0.00    +0.000 A 
ATOM      3  C   UNL     1       0.459   8.092  21.876  0.00  0.00    +0.000 A 
ATOM      4  C   UNL     1      -0.074   9.379  21.965  0.00  0.00    +0.000 A 
ATOM      5  C   UNL     1       0.215  10.311  20.962  0.00  0.00    +0.000 A 
ATOM      6  C   UNL     1       1.063   9.973  19.892  0.00  0.00    +0.000 A 
ENDROOT
BRANCH   1  12
ATOM      7  C   UNL     1       5.646   5.239  16.083  0.00  0.00    +0.000 A 
ATOM      8  C   UNL     1       5.189   4.500  17.173  0.00  0.00    +0.000 A 
ATOM      9  C   UNL     1       4.220   5.049  18.026  0.00  0.00    +0.000 A 
ATOM     10  C   UNL     1       3.729   6.322  17.763  0.00  0.00    +0.000 A 
ATOM     11  N   UNL     1       2.804   6.880  18.660  0.00  0.00    +0.000 N 
ATOM     12  C   UNL     1       2.280   8.160  18.563  0.00  0.00    +0.000 C 
ATOM     13  O   UNL     1       2.426   8.939  17.628  0.00  0.00    +0.000 OA
ATOM     14  N   UNL     1       4.161   7.038  16.709  0.00  0.00    +0.000 NA
ATOM     15  C   UNL     1       5.101   6.491  15.894  0.00  0.00    +0.000 A 
ATOM     16  H   UNL     1       2.598   6.324  19.477  0.00  0.00    +0.000 HD
BRANCH   7  17
ATOM     17  C   UNL     1       6.679   4.770  15.130  0.00  0.00    +0.000 C 
ATOM     18  O   UNL     1       7.737   5.347  14.944  0.00  0.00    +0.000 OA
BRANCH  17  20
ATOM     19  C   UNL     1       6.174   3.722  13.102  0.00  0.00    +0.000 C 
ATOM     20  O   UNL     1       6.277   3.627  14.525  0.00  0.00    +0.000 OA
ENDBRANCH  17  20
ENDBRANCH   7  17
ENDBRANCH   1  12
BRANCH   5  21
ATOM     21  S   UNL     1      -0.453  11.970  21.059  0.00  0.00    +0.000 S 
ATOM     22  O   UNL     1      -1.576  11.905  21.969  0.00  0.00    +0.000 OA
ATOM     23  O   UNL     1       0.672  12.845  21.329  0.00  0.00    +0.000 OA
BRANCH  21  24
ATOM     24  N   UNL     1      -1.033  12.333  19.497  0.00  0.00    +0.000 N 
ATOM     25  C   UNL     1      -0.423  13.441  18.749  0.00  0.00    +0.000 C 
BRANCH  24  26
ATOM     26  C   UNL     1      -2.384  11.988  19.179  0.00  0.00    +0.000 A 
ATOM     27  C   UNL     1      -2.672  11.029  18.204  0.00  0.00    +0.000 A 
ATOM     28  C   UNL     1      -3.999  10.743  17.876  0.00  0.00    +0.000 A 
ATOM     29  C   UNL     1      -5.035  11.406  18.532  0.00  0.00    +0.000 A 
ATOM     30 CL   UNL     1      -6.666  11.080  18.098  0.00  0.00    +0.000 Cl
ATOM     31  C   UNL     1      -4.754  12.341  19.528  0.00  0.00    +0.000 A 
ATOM     32  C   UNL     1      -3.426  12.636  19.848  0.00  0.00    +0.000 A 
ENDBRANCH  24  26
ENDBRANCH  21  24
ENDBRANCH   5  21
TORSDOF 6
ENDMDL
MODEL 3
REMARK VINA RESULT:      -7.9      6.604      9.712
REMARK  Name = 
REMARK  8 active torsions:
REMARK  status: ('A' for Active; 'I' for Inactive)
REMARK    1  A    between atoms: C_1  and  O_2
REMARK    2  A    between atoms: O_2  and  C_3
REMARK    3  A    between atoms: C_3  and  C_5
REMARK    4  A    between atoms: C_10  and  C_12
REMARK    5  A    between atoms: C_16  and  S_17
REMARK    6  A    between atoms: S_17  and  N_20
REMARK    7  A    between atoms: N_20  and  C_21
REMARK    8  A    between atoms: N_20  and  C_22
REMARK                            x       y       z     vdW  Elec       q    Type
REMARK                         _______ _______ _______ _____ _____    ______ ____
ROOT
ATOM      1  C   UNL     1       7.813   8.131  18.213  0.00  0.00    +0.000 A 
ATOM      2  C   UNL     1       8.469   7.228  19.066  0.00  0.00    +0.000 A 
ATOM      3  C   UNL     1       8.070   5.892  19.141  0.00  0.00    +0.000 A 
ATOM      4  C   UNL     1       7.027   5.426  18.338  0.00  0.00    +0.000 A 
ATOM      5  C   UNL     1       6.365   6.320  17.489  0.00  0.00    +0.000 A 
ATOM      6  C   UNL     1       6.717   7.682  17.467  0.00  0.00    +0.000 A 
ENDROOT
BRANCH   1  12
ATOM      7  C   UNL     1      10.518  13.798  19.869  0.00  0.00    +0.000 A 
ATOM      8  C   UNL     1      10.957  12.756  20.684  0.00  0.00    +0.000 A 
ATOM      9  C   UNL     1      10.548  11.442  20.413  0.00  0.00    +0.000 A 
ATOM     10  C   UNL     1       9.712  11.203  19.328  0.00  0.00    +0.000 A 
ATOM     11  N   UNL     1       9.264   9.892  19.106  0.00  0.00    +0.000 N 
ATOM     12  C   UNL     1       8.379   9.516  18.107  0.00  0.00    +0.000 C 
ATOM     13  O   UNL     1       7.966  10.223  17.195  0.00  0.00    +0.000 OA
ATOM     14  N   UNL     1       9.290  12.204  18.533  0.00  0.00    +0.000 NA
ATOM     15  C   UNL     1       9.695  13.471  18.812  0.00  0.00    +0.000 A 
ATOM     16  H   UNL     1       9.546   9.212  19.797  0.00  0.00    +0.000 HD
BRANCH   7  17
ATOM     17  C   UNL     1      10.867  15.223  20.072  0.00  0.00    +0.000 C 
ATOM     18  O   UNL     1      11.157  15.699  21.156  0.00  0.00    +0.000 OA
BRANCH  17  20
ATOM     19  C   UNL     1      12.111  16.255  18.382  0.00  0.00    +0.000 C 
ATOM     20  O   UNL     1      10.827  15.890  18.893  0.00  0.00    +0.000 OA
ENDBRANCH  17  20
ENDBRANCH   7  17
ENDBRANCH   1  12
BRANCH   5  21
ATOM     21  S   UNL     1       5.020   5.747  16.455  0.00  0.00    +0.000 S 
ATOM     22  O   UNL     1       5.128   6.472  15.207  0.00  0.00    +0.000 OA
ATOM     23  O   UNL     1       5.080   4.297  16.478  0.00  0.00    +0.000 OA
BRANCH  21  24
ATOM     24  N   UNL     1       3.586   6.223  17.245  0.00  0.00    +0.000 N 
ATOM     25  C   UNL     1       3.292   7.655  17.389  0.00  0.00    +0.000 C 
BRANCH  24  26
ATOM     26  C   UNL     1       3.017   5.333  18.209  0.00  0.00    +0.000 A 
ATOM     27  C   UNL     1       2.018   4.424  17.849  0.00  0.00    +0.000 A 
ATOM     28  C   UNL     1       1.442   3.599  18.816  0.00  0.00    +0.000 A 
ATOM     29  C   UNL     1       1.876   3.673  20.139  0.00  0.00    +0.000 A 
ATOM     30 CL   UNL     1       1.138   2.683  21.336  0.00  0.00    +0.000 Cl
ATOM     31  C   UNL     1       2.895   4.554  20.499  0.00  0.00    +0.000 A 
ATOM     32  C   UNL     1       3.462   5.390  19.532  0.00  0.00    +0.000 A 
ENDBRANCH  24  26
ENDBRANCH  21  24
ENDBRANCH   5  21
TORSDOF 6
ENDMDL
MODEL 4
REMARK VINA RESULT:      -7.9      2.743      3.572
REMARK  Name = 
REMARK  8 active torsions:
REMARK  status: ('A' for Active; 'I' for Inactive)
REMARK    1  A    between atoms: C_1  and  O_2
REMARK    2  A    between atoms: O_2  and  C_3
REMARK    3  A    between atoms: C_3  and  C_5
REMARK    4  A    between atoms: C_10  and  C_12
REMARK    5  A    between atoms: C_16  and  S_17
REMARK    6  A    between atoms: S_17  and  N_20
REMARK    7  A    between atoms: N_20  and  C_21
REMARK    8  A    between atoms: N_20  and  C_22
REMARK                            x       y       z     vdW  Elec       q    Type
REMARK                         _______ _______ _______ _____ _____    ______ ____
ROOT
ATOM      1  C   UNL     1       1.250   9.156  19.480  0.00  0.00    +0.000 A 
ATOM      2  C   UNL     1       1.104   8.599  20.762  0.00  0.00    +0.000 A 
ATOM      3  C   UNL     1       0.272   9.195  21.713  0.00  0.00    +0.000 A 
ATOM      4  C   UNL     1      -0.454  10.342  21.387  0.00  0.00    +0.000 A 
ATOM      5  C   UNL     1      -0.311  10.905  20.115  0.00  0.00    +0.000 A 
ATOM      6  C   UNL     1       0.582  10.349  19.181  0.00  0.00    +0.000 A 
ENDROOT
BRANCH   1  12
ATOM      7  C   UNL     1       5.590   5.013  16.996  0.00  0.00    +0.000 A 
ATOM      8  C   UNL     1       5.073   4.557  18.207  0.00  0.00    +0.000 A 
ATOM      9  C   UNL     1       4.052   5.280  18.842  0.00  0.00    +0.000 A 
ATOM     10  C   UNL     1       3.572   6.440  18.246  0.00  0.00    +0.000 A 
ATOM     11  N   UNL     1       2.593   7.184  18.924  0.00  0.00    +0.000 N 
ATOM     12  C   UNL     1       2.070   8.390  18.485  0.00  0.00    +0.000 C 
ATOM     13  O   UNL     1       2.267   8.917  17.396  0.00  0.00    +0.000 OA
ATOM     14  N   UNL     1       4.063   6.882  17.074  0.00  0.00    +0.000 NA
ATOM     15  C   UNL     1       5.052   6.170  16.473  0.00  0.00    +0.000 A 
ATOM     16  H   UNL     1       2.342   6.841  19.840  0.00  0.00    +0.000 HD
BRANCH   7  17
ATOM     17  C   UNL     1       6.680   4.345  16.247  0.00  0.00    +0.000 C 
ATOM     18  O   UNL     1       7.864   4.523  16.476  0.00  0.00    +0.000 OA
BRANCH  17  20
ATOM     19  C   UNL     1       6.314   3.994  13.965  0.00  0.00    +0.000 C 
ATOM     20  O   UNL     1       6.165   3.519  15.305  0.00  0.00    +0.000 OA
ENDBRANCH  17  20
ENDBRANCH   7  17
ENDBRANCH   1  12
BRANCH   5  21
ATOM     21  S   UNL     1      -1.229  12.379  19.677  0.00  0.00    +0.000 S 
ATOM     22  O   UNL     1      -1.031  12.576  18.257  0.00  0.00    +0.000 OA
ATOM     23  O   UNL     1      -2.562  12.204  20.222  0.00  0.00    +0.000 OA
BRANCH  21  24
ATOM     24  N   UNL     1      -0.485  13.661  20.518  0.00  0.00    +0.000 N 
ATOM     25  C   UNL     1      -1.302  14.503  21.404  0.00  0.00    +0.000 C 
BRANCH  24  26
ATOM     26  C   UNL     1       0.695  14.245  19.958  0.00  0.00    +0.000 A 
ATOM     27  C   UNL     1       0.628  15.416  19.198  0.00  0.00    +0.000 A 
ATOM     28  C   UNL     1       1.785  15.941  18.621  0.00  0.00    +0.000 A 
ATOM     29  C   UNL     1       3.010  15.303  18.816  0.00  0.00    +0.000 A 
ATOM     30 CL   UNL     1       4.427  15.930  18.071  0.00  0.00    +0.000 Cl
ATOM     31  C   UNL     1       3.088  14.152  19.599  0.00  0.00    +0.000 A 
ATOM     32  C   UNL     1       1.927  13.619  20.167  0.00  0.00    +0.000 A 
ENDBRANCH  24  26
ENDBRANCH  21  24
ENDBRANCH   5  21
TORSDOF 6
ENDMDL
MODEL 5
REMARK VINA RESULT:      -7.9      2.716      3.558
REMARK  Name = 
REMARK  8 active torsions:
REMARK  status: ('A' for Active; 'I' for Inactive)
REMARK    1  A    between atoms: C_1  and  O_2
REMARK    2  A    between atoms: O_2  and  C_3
REMARK    3  A    between atoms: C_3  and  C_5
REMARK    4  A    between atoms: C_10  and  C_12
REMARK    5  A    between atoms: C_16  and  S_17
REMARK    6  A    between atoms: S_17  and  N_20
REMARK    7  A    between atoms: N_20  and  C_21
REMARK    8  A    between atoms: N_20  and  C_22
REMARK                            x       y       z     vdW  Elec       q    Type
REMARK                         _______ _______ _______ _____ _____    ______ ____
ROOT
ATOM      1  C   UNL     1       1.160   9.241  19.265  0.00  0.00    +0.000 A 
ATOM      2  C   UNL     1       1.023   8.723  20.564  0.00  0.00    +0.000 A 
ATOM      3  C   UNL     1       0.119   9.285  21.469  0.00  0.00    +0.000 A 
ATOM      4  C   UNL     1      -0.688  10.355  21.080  0.00  0.00    +0.000 A 
ATOM      5  C   UNL     1      -0.554  10.880  19.789  0.00  0.00    +0.000 A 
ATOM      6  C   UNL     1       0.407  10.363  18.902  0.00  0.00    +0.000 A 
ENDROOT
BRANCH   1  12
ATOM      7  C   UNL     1       5.895   5.382  17.060  0.00  0.00    +0.000 A 
ATOM      8  C   UNL     1       5.385   4.933  18.277  0.00  0.00    +0.000 A 
ATOM      9  C   UNL     1       4.292   5.593  18.857  0.00  0.00    +0.000 A 
ATOM     10  C   UNL     1       3.732   6.683  18.202  0.00  0.00    +0.000 A 
ATOM     11  N   UNL     1       2.677   7.368  18.825  0.00  0.00    +0.000 N 
ATOM     12  C   UNL     1       2.067   8.507  18.323  0.00  0.00    +0.000 C 
ATOM     13  O   UNL     1       2.249   9.005  17.218  0.00  0.00    +0.000 OA
ATOM     14  N   UNL     1       4.215   7.117  17.023  0.00  0.00    +0.000 NA
ATOM     15  C   UNL     1       5.276   6.467  16.477  0.00  0.00    +0.000 A 
ATOM     16  H   UNL     1       2.431   7.043  19.748  0.00  0.00    +0.000 HD
BRANCH   7  17
ATOM     17  C   UNL     1       7.056   4.778  16.366  0.00  0.00    +0.000 C 
ATOM     18  O   UNL     1       7.965   4.207  16.943  0.00  0.00    +0.000 OA
BRANCH  17  20
ATOM     19  C   UNL     1       6.274   3.874  14.356  0.00  0.00    +0.000 C 
ATOM     20  O   UNL     1       6.942   4.946  15.026  0.00  0.00    +0.000 OA
ENDBRANCH  17  20
ENDBRANCH   7  17
ENDBRANCH   1  12
BRANCH   5  21
ATOM     21  S   UNL     1      -1.575  12.256  19.270  0.00  0.00    +0.000 S 
ATOM     22  O   UNL     1      -1.333  12.431  17.854  0.00  0.00    +0.000 OA
ATOM     23  O   UNL     1      -2.910  11.982  19.766  0.00  0.00    +0.000 OA
BRANCH  21  24
ATOM     24  N   UNL     1      -0.980  13.621  20.101  0.00  0.00    +0.000 N 
ATOM     25  C   UNL     1      -1.878  14.354  21.005  0.00  0.00    +0.000 C 
BRANCH  24  26
ATOM     26  C   UNL     1       0.107  14.347  19.521  0.00  0.00    +0.000 A 
ATOM     27  C   UNL     1       1.406  13.830  19.535  0.00  0.00    +0.000 A 
ATOM     28  C   UNL     1       2.460  14.578  19.006  0.00  0.00    +0.000 A 
ATOM     29  C   UNL     1       2.212  15.833  18.452  0.00  0.00    +0.000 A 
ATOM     30 CL   UNL     1       3.518  16.767  17.837  0.00  0.00    +0.000 Cl
ATOM     31  C   UNL     1       0.914  16.339  18.406  0.00  0.00    +0.000 A 
ATOM     32  C   UNL     1      -0.140  15.596  18.948  0.00  0.00    +0.000 A 
ENDBRANCH  24  26
ENDBRANCH  21  24
ENDBRANCH   5  21
TORSDOF 6
ENDMDL
MODEL 6
REMARK VINA RESULT:      -7.8      2.343      2.878
REMARK  Name = 
REMARK  8 active torsions:
REMARK  status: ('A' for Active; 'I' for Inactive)
REMARK    1  A    between atoms: C_1  and  O_2
REMARK    2  A    between atoms: O_2  and  C_3
REMARK    3  A    between atoms: C_3  and  C_5
REMARK    4  A    between atoms: C_10  and  C_12
REMARK    5  A    between atoms: C_16  and  S_17
REMARK    6  A    between atoms: S_17  and  N_20
REMARK    7  A    between atoms: N_20  and  C_21
REMARK    8  A    between atoms: N_20  and  C_22
REMARK                            x       y       z     vdW  Elec       q    Type
REMARK                         _______ _______ _______ _____ _____    ______ ____
ROOT
ATOM      1  C   UNL     1       1.279   9.221  19.475  0.00  0.00    +0.000 A 
ATOM      2  C   UNL     1       1.011   8.608  20.710  0.00  0.00    +0.000 A 
ATOM      3  C   UNL     1       0.181   9.223  21.651  0.00  0.00    +0.000 A 
ATOM      4  C   UNL     1      -0.422  10.448  21.359  0.00  0.00    +0.000 A 
ATOM      5  C   UNL     1      -0.156  11.066  20.133  0.00  0.00    +0.000 A 
ATOM      6  C   UNL     1       0.737  10.485  19.215  0.00  0.00    +0.000 A 
ENDROOT
BRANCH   1  12
ATOM      7  C   UNL     1       5.577   5.035  16.988  0.00  0.00    +0.000 A 
ATOM      8  C   UNL     1       5.073   4.596  18.211  0.00  0.00    +0.000 A 
ATOM      9  C   UNL     1       4.062   5.329  18.849  0.00  0.00    +0.000 A 
ATOM     10  C   UNL     1       3.578   6.483  18.246  0.00  0.00    +0.000 A 
ATOM     11  N   UNL     1       2.610   7.238  18.926  0.00  0.00    +0.000 N 
ATOM     12  C   UNL     1       2.084   8.440  18.479  0.00  0.00    +0.000 C 
ATOM     13  O   UNL     1       2.270   8.954  17.382  0.00  0.00    +0.000 OA
ATOM     14  N   UNL     1       4.056   6.910  17.062  0.00  0.00    +0.000 NA
ATOM     15  C   UNL     1       5.036   6.188  16.458  0.00  0.00    +0.000 A 
ATOM     16  H   UNL     1       2.369   6.907  19.849  0.00  0.00    +0.000 HD
BRANCH   7  17
ATOM     17  C   UNL     1       6.655   4.355  16.234  0.00  0.00    +0.000 C 
ATOM     18  O   UNL     1       7.842   4.496  16.477  0.00  0.00    +0.000 OA
BRANCH  17  20
ATOM     19  C   UNL     1       6.382   4.017  13.937  0.00  0.00    +0.000 C 
ATOM     20  O   UNL     1       6.128   3.564  15.268  0.00  0.00    +0.000 OA
ENDBRANCH  17  20
ENDBRANCH   7  17
ENDBRANCH   1  12
BRANCH   5  21
ATOM     21  S   UNL     1      -0.913  12.640  19.738  0.00  0.00    +0.000 S 
ATOM     22  O   UNL     1      -0.224  13.635  20.532  0.00  0.00    +0.000 OA
ATOM     23  O   UNL     1      -0.933  12.730  18.290  0.00  0.00    +0.000 OA
BRANCH  21  24
ATOM     24  N   UNL     1      -2.528  12.532  20.276  0.00  0.00    +0.000 N 
ATOM     25  C   UNL     1      -3.568  12.105  19.330  0.00  0.00    +0.000 C 
BRANCH  24  26
ATOM     26  C   UNL     1      -2.933  13.354  21.374  0.00  0.00    +0.000 A 
ATOM     27  C   UNL     1      -3.432  14.642  21.163  0.00  0.00    +0.000 A 
ATOM     28  C   UNL     1      -3.775  15.445  22.252  0.00  0.00    +0.000 A 
ATOM     29  C   UNL     1      -3.633  14.954  23.549  0.00  0.00    +0.000 A 
ATOM     30 CL   UNL     1      -4.021  15.960  24.889  0.00  0.00    +0.000 Cl
ATOM     31  C   UNL     1      -3.166  13.658  23.765  0.00  0.00    +0.000 A 
ATOM     32  C   UNL     1      -2.810  12.859  22.675  0.00  0.00    +0.000 A 
ENDBRANCH  24  26
ENDBRANCH  21  24
ENDBRANCH   5  21
TORSDOF 6
ENDMDL
MODEL 7
REMARK VINA RESULT:      -7.7      1.348      1.733
REMARK  Name = 
REMARK  8 active torsions:
REMARK  status: ('A' for Active; 'I' for Inactive)
REMARK    1  A    between atoms: C_1  and  O_2
REMARK    2  A    between atoms: O_2  and  C_3
REMARK    3  A    between atoms: C_3  and  C_5
REMARK    4  A    between atoms: C_10  and  C_12
REMARK    5  A    between atoms: C_16  and  S_17
REMARK    6  A    between atoms: S_17  and  N_20
REMARK    7  A    between atoms: N_20  and  C_21
REMARK    8  A    between atoms: N_20  and  C_22
REMARK                            x       y       z     vdW  Elec       q    Type
REMARK                         _______ _______ _______ _____ _____    ______ ____
ROOT
ATOM      1  C   UNL     1       0.616   9.653  21.066  0.00  0.00    +0.000 A 
ATOM      2  C   UNL     1      -0.141   8.980  22.040  0.00  0.00    +0.000 A 
ATOM      3  C   UNL     1      -0.885   9.689  22.986  0.00  0.00    +0.000 A 
ATOM      4  C   UNL     1      -0.912  11.084  22.954  0.00  0.00    +0.000 A 
ATOM      5  C   UNL     1      -0.158  11.761  21.990  0.00  0.00    +0.000 A 
ATOM      6  C   UNL     1       0.651  11.052  21.083  0.00  0.00    +0.000 A 
ENDROOT
BRANCH   1  12
ATOM      7  C   UNL     1       4.309   5.081  18.302  0.00  0.00    +0.000 A 
ATOM      8  C   UNL     1       3.798   4.663  19.530  0.00  0.00    +0.000 A 
ATOM      9  C   UNL     1       2.902   5.487  20.226  0.00  0.00    +0.000 A 
ATOM     10  C   UNL     1       2.536   6.709  19.674  0.00  0.00    +0.000 A 
ATOM     11  N   UNL     1       1.686   7.548  20.412  0.00  0.00    +0.000 N 
ATOM     12  C   UNL     1       1.291   8.818  20.019  0.00  0.00    +0.000 C 
ATOM     13  O   UNL     1       1.499   9.342  18.931  0.00  0.00    +0.000 OA
ATOM     14  N   UNL     1       3.022   7.116  18.487  0.00  0.00    +0.000 NA
ATOM     15  C   UNL     1       3.889   6.306  17.827  0.00  0.00    +0.000 A 
ATOM     16  H   UNL     1       1.439   7.217  21.333  0.00  0.00    +0.000 HD
BRANCH   7  17
ATOM     17  C   UNL     1       5.275   4.306  17.490  0.00  0.00    +0.000 C 
ATOM     18  O   UNL     1       5.056   3.940  16.348  0.00  0.00    +0.000 OA
BRANCH  17  20
ATOM     19  C   UNL     1       7.476   4.988  17.887  0.00  0.00    +0.000 C 
ATOM     20  O   UNL     1       6.412   4.085  18.195  0.00  0.00    +0.000 OA
ENDBRANCH  17  20
ENDBRANCH   7  17
ENDBRANCH   1  12
BRANCH   5  21
ATOM     21  S   UNL     1      -0.172  13.551  21.934  0.00  0.00    +0.000 S 
ATOM     22  O   UNL     1      -0.500  13.999  23.270  0.00  0.00    +0.000 OA
ATOM     23  O   UNL     1       1.074  13.947  21.304  0.00  0.00    +0.000 OA
BRANCH  21  24
ATOM     24  N   UNL     1      -1.446  13.977  20.884  0.00  0.00    +0.000 N 
ATOM     25  C   UNL     1      -2.559  14.784  21.402  0.00  0.00    +0.000 C 
BRANCH  24  26
ATOM     26  C   UNL     1      -1.713  13.128  19.764  0.00  0.00    +0.000 A 
ATOM     27  C   UNL     1      -2.843  12.305  19.737  0.00  0.00    +0.000 A 
ATOM     28  C   UNL     1      -3.058  11.449  18.656  0.00  0.00    +0.000 A 
ATOM     29  C   UNL     1      -2.151  11.426  17.597  0.00  0.00    +0.000 A 
ATOM     30 CL   UNL     1      -2.398  10.343  16.285  0.00  0.00    +0.000 Cl
ATOM     31  C   UNL     1      -1.039  12.267  17.603  0.00  0.00    +0.000 A 
ATOM     32  C   UNL     1      -0.817  13.116  18.692  0.00  0.00    +0.000 A 
ENDBRANCH  24  26
ENDBRANCH  21  24
ENDBRANCH   5  21
TORSDOF 6
ENDMDL
MODEL 8
REMARK VINA RESULT:      -7.7      1.918      2.218
REMARK  Name = 
REMARK  8 active torsions:
REMARK  status: ('A' for Active; 'I' for Inactive)
REMARK    1  A    between atoms: C_1  and  O_2
REMARK    2  A    between atoms: O_2  and  C_3
REMARK    3  A    between atoms: C_3  and  C_5
REMARK    4  A    between atoms: C_10  and  C_12
REMARK    5  A    between atoms: C_16  and  S_17
REMARK    6  A    between atoms: S_17  and  N_20
REMARK    7  A    between atoms: N_20  and  C_21
REMARK    8  A    between atoms: N_20  and  C_22
REMARK                            x       y       z     vdW  Elec       q    Type
REMARK                         _______ _______ _______ _____ _____    ______ ____
ROOT
ATOM      1  C   UNL     1       0.619   9.677  21.293  0.00  0.00    +0.000 A 
ATOM      2  C   UNL     1      -0.284   9.296  22.300  0.00  0.00    +0.000 A 
ATOM      3  C   UNL     1      -0.983  10.254  23.037  0.00  0.00    +0.000 A 
ATOM      4  C   UNL     1      -0.816  11.612  22.757  0.00  0.00    +0.000 A 
ATOM      5  C   UNL     1       0.084  12.000  21.759  0.00  0.00    +0.000 A 
ATOM      6  C   UNL     1       0.844  11.039  21.066  0.00  0.00    +0.000 A 
ENDROOT
BRANCH   1  12
ATOM      7  C   UNL     1       3.407   4.035  19.691  0.00  0.00    +0.000 A 
ATOM      8  C   UNL     1       2.564   3.902  20.792  0.00  0.00    +0.000 A 
ATOM      9  C   UNL     1       1.804   5.000  21.222  0.00  0.00    +0.000 A 
ATOM     10  C   UNL     1       1.905   6.204  20.535  0.00  0.00    +0.000 A 
ATOM     11  N   UNL     1       1.185   7.309  21.014  0.00  0.00    +0.000 N 
ATOM     12  C   UNL     1       1.238   8.584  20.473  0.00  0.00    +0.000 C 
ATOM     13  O   UNL     1       1.798   8.912  19.433  0.00  0.00    +0.000 OA
ATOM     14  N   UNL     1       2.713   6.337  19.467  0.00  0.00    +0.000 NA
ATOM     15  C   UNL     1       3.442   5.263  19.066  0.00  0.00    +0.000 A 
ATOM     16  H   UNL     1       0.675   7.158  21.872  0.00  0.00    +0.000 HD
BRANCH   7  17
ATOM     17  C   UNL     1       4.269   2.952  19.162  0.00  0.00    +0.000 C 
ATOM     18  O   UNL     1       5.101   2.363  19.832  0.00  0.00    +0.000 OA
BRANCH  17  20
ATOM     19  C   UNL     1       2.732   2.069  17.638  0.00  0.00    +0.000 C 
ATOM     20  O   UNL     1       3.985   2.720  17.857  0.00  0.00    +0.000 OA
ENDBRANCH  17  20
ENDBRANCH   7  17
ENDBRANCH   1  12
BRANCH   5  21
ATOM     21  S   UNL     1       0.319  13.735  21.387  0.00  0.00    +0.000 S 
ATOM     22  O   UNL     1       0.273  14.434  22.653  0.00  0.00    +0.000 OA
ATOM     23  O   UNL     1       1.494  13.813  20.539  0.00  0.00    +0.000 OA
BRANCH  21  24
ATOM     24  N   UNL     1      -1.029  14.201  20.453  0.00  0.00    +0.000 N 
ATOM     25  C   UNL     1      -1.870  15.313  20.918  0.00  0.00    +0.000 C 
BRANCH  24  26
ATOM     26  C   UNL     1      -1.640  13.220  19.609  0.00  0.00    +0.000 A 
ATOM     27  C   UNL     1      -2.891  12.681  19.922  0.00  0.00    +0.000 A 
ATOM     28  C   UNL     1      -3.446  11.690  19.111  0.00  0.00    +0.000 A 
ATOM     29  C   UNL     1      -2.757  11.250  17.981  0.00  0.00    +0.000 A 
ATOM     30 CL   UNL     1      -3.426  10.002  17.006  0.00  0.00    +0.000 Cl
ATOM     31  C   UNL     1      -1.524  11.807  17.646  0.00  0.00    +0.000 A 
ATOM     32  C   UNL     1      -0.961  12.791  18.466  0.00  0.00    +0.000 A 
ENDBRANCH  24  26
ENDBRANCH  21  24
ENDBRANCH   5  21
TORSDOF 6
ENDMDL
MODEL 9
REMARK VINA RESULT:      -7.7      2.567      3.079
REMARK  Name = 
REMARK  8 active torsions:
REMARK  status: ('A' for Active; 'I' for Inactive)
REMARK    1  A    between atoms: C_1  and  O_2
REMARK    2  A    between atoms: O_2  and  C_3
REMARK    3  A    between atoms: C_3  and  C_5
REMARK    4  A    between atoms: C_10  and  C_12
REMARK    5  A    between atoms: C_16  and  S_17
REMARK    6  A    between atoms: S_17  and  N_20
REMARK    7  A    between atoms: N_20  and  C_21
REMARK    8  A    between atoms: N_20  and  C_22
REMARK                            x       y       z     vdW  Elec       q    Type
REMARK                         _______ _______ _______ _____ _____    ______ ____
ROOT
ATOM      1  C   UNL     1       1.293   9.122  19.527  0.00  0.00    +0.000 A 
ATOM      2  C   UNL     1       1.145   8.538  20.797  0.00  0.00    +0.000 A 
ATOM      3  C   UNL     1       0.317   9.118  21.761  0.00  0.00    +0.000 A 
ATOM      4  C   UNL     1      -0.404  10.275  21.461  0.00  0.00    +0.000 A 
ATOM      5  C   UNL     1      -0.259  10.865  20.201  0.00  0.00    +0.000 A 
ATOM      6  C   UNL     1       0.631  10.324  19.254  0.00  0.00    +0.000 A 
ENDROOT
BRANCH   1  12
ATOM      7  C   UNL     1       5.586   4.986  16.950  0.00  0.00    +0.000 A 
ATOM      8  C   UNL     1       5.052   4.502  18.143  0.00  0.00    +0.000 A 
ATOM      9  C   UNL     1       4.038   5.222  18.792  0.00  0.00    +0.000 A 
ATOM     10  C   UNL     1       3.581   6.407  18.229  0.00  0.00    +0.000 A 
ATOM     11  N   UNL     1       2.609   7.146  18.922  0.00  0.00    +0.000 N 
ATOM     12  C   UNL     1       2.108   8.373  18.515  0.00  0.00    +0.000 C 
ATOM     13  O   UNL     1       2.323   8.930  17.445  0.00  0.00    +0.000 OA
ATOM     14  N   UNL     1       4.088   6.877  17.074  0.00  0.00    +0.000 NA
ATOM     15  C   UNL     1       5.071   6.167  16.459  0.00  0.00    +0.000 A 
ATOM     16  H   UNL     1       2.345   6.779  19.825  0.00  0.00    +0.000 HD
BRANCH   7  17
ATOM     17  C   UNL     1       6.671   4.323  16.190  0.00  0.00    +0.000 C 
ATOM     18  O   UNL     1       7.857   4.492  16.419  0.00  0.00    +0.000 OA
BRANCH  17  20
ATOM     19  C   UNL     1       6.352   3.978  13.899  0.00  0.00    +0.000 C 
ATOM     20  O   UNL     1       6.150   3.514  15.236  0.00  0.00    +0.000 OA
ENDBRANCH  17  20
ENDBRANCH   7  17
ENDBRANCH   1  12
BRANCH   5  21
ATOM     21  S   UNL     1      -1.169  12.352  19.795  0.00  0.00    +0.000 S 
ATOM     22  O   UNL     1      -0.987  12.568  18.376  0.00  0.00    +0.000 OA
ATOM     23  O   UNL     1      -2.496  12.181  20.355  0.00  0.00    +0.000 OA
BRANCH  21  24
ATOM     24  N   UNL     1      -0.404  13.616  20.645  0.00  0.00    +0.000 N 
ATOM     25  C   UNL     1       1.065  13.668  20.679  0.00  0.00    +0.000 C 
BRANCH  24  26
ATOM     26  C   UNL     1      -1.109  14.228  21.729  0.00  0.00    +0.000 A 
ATOM     27  C   UNL     1      -1.024  13.714  23.026  0.00  0.00    +0.000 A 
ATOM     28  C   UNL     1      -1.759  14.297  24.058  0.00  0.00    +0.000 A 
ATOM     29  C   UNL     1      -2.568  15.403  23.797  0.00  0.00    +0.000 A 
ATOM     30 CL   UNL     1      -3.502  16.095  25.063  0.00  0.00    +0.000 Cl
ATOM     31  C   UNL     1      -2.632  15.940  22.512  0.00  0.00    +0.000 A 
ATOM     32  C   UNL     1      -1.906  15.347  21.475  0.00  0.00    +0.000 A 
ENDBRANCH  24  26
ENDBRANCH  21  24
ENDBRANCH   5  21
TORSDOF 6
ENDMDL
