MODEL 1
REMARK VINA RESULT:      -8.6      0.000      0.000
REMARK  Name = 
REMARK  11 active torsions:
REMARK  status: ('A' for Active; 'I' for Inactive)
REMARK    1  A    between atoms: C_1  and  C_2
REMARK    2  A    between atoms: C_2  and  C_3
REMARK    3  A    between atoms: C_2  and  C_29
REMARK    4  A    between atoms: C_3  and  N_4
REMARK    5  A    between atoms: C_8  and  C_9
REMARK    6  A    between atoms: N_11  and  C_12
REMARK    7  A    between atoms: C_12  and  C_13
REMARK    8  A    between atoms: C_13  and  C_14
REMARK    9  A    between atoms: C_14  and  N_15
REMARK   10  A    between atoms: C_21  and  N_22
REMARK   11  A    between atoms: N_22  and  C_23
REMARK                            x       y       z     vdW  Elec       q    Type
REMARK                         _______ _______ _______ _____ _____    ______ ____
ROOT
ATOM      1  N   UNL     1       4.613   2.848  18.653  0.00  0.00    +0.000 N 
ATOM      2  C   UNL     1       5.295   4.001  18.289  0.00  0.00    +0.000 A 
ATOM      3  N   UNL     1       5.757   4.804  19.249  0.00  0.00    +0.000 NA
ATOM      4  C   UNL     1       6.495   5.851  18.857  0.00  0.00    +0.000 A 
ATOM      5  C   UNL     1       6.818   6.116  17.544  0.00  0.00    +0.000 A 
ATOM      6  C   UNL     1       6.234   5.279  16.592  0.00  0.00    +0.000 A 
ATOM      7  N   UNL     1       5.477   4.222  16.974  0.00  0.00    +0.000 NA
ATOM      8  H   UNL     1       4.070   2.556  17.847  0.00  0.00    +0.000 HD
ENDROOT
BRANCH   5   9
ATOM      9  C   UNL     1       7.681   7.299  17.335  0.00  0.00    +0.000 C 
ATOM     10  O   UNL     1       8.206   7.473  16.237  0.00  0.00    +0.000 OA
ATOM     11  N   UNL     1       7.797   8.215  18.354  0.00  0.00    +0.000 N 
ATOM     12  H   UNL     1       7.205   8.134  19.166  0.00  0.00    +0.000 HD
BRANCH  11  13
ATOM     13  C   UNL     1       8.546   9.444  18.182  0.00  0.00    +0.000 C 
BRANCH  13  14
ATOM     14  C   UNL     1       9.091   9.963  19.506  0.00  0.00    +0.000 C 
BRANCH  14  15
ATOM     15  C   UNL     1      10.213  10.976  19.285  0.00  0.00    +0.000 C 
BRANCH  15  16
ATOM     16  N   UNL     1       9.715  12.308  19.009  0.00  0.00    +0.000 N 
ATOM     17  C   UNL     1       9.017  13.095  19.990  0.00  0.00    +0.000 C 
ATOM     18  C   UNL     1       8.477  14.245  19.164  0.00  0.00    +0.000 C 
ATOM     19  C   UNL     1       9.541  14.457  18.096  0.00  0.00    +0.000 C 
ATOM     20  C   UNL     1      10.149  13.084  17.941  0.00  0.00    +0.000 C 
ATOM     21  O   UNL     1      10.925  12.749  17.065  0.00  0.00    +0.000 OA
ENDBRANCH  15  16
ENDBRANCH  14  15
ENDBRANCH  13  14
ENDBRANCH  11  13
ENDBRANCH   5   9
BRANCH   6  22
ATOM     22  N   UNL     1       6.406   5.514  15.222  0.00  0.00    +0.000 N 
ATOM     23  H   UNL     1       6.919   6.370  15.056  0.00  0.00    +0.000 HD
BRANCH  22  24
ATOM     24  C   UNL     1       6.885   4.445  14.340  0.00  0.00    +0.000 C 
ATOM     25  C   UNL     1       5.659   3.793  13.690  0.00  0.00    +0.000 C 
ATOM     26  C   UNL     1       6.082   3.364  12.298  0.00  0.00    +0.000 C 
ATOM     27  C   UNL     1       7.194   4.314  11.893  0.00  0.00    +0.000 C 
ATOM     28  C   UNL     1       7.726   4.963  13.171  0.00  0.00    +0.000 C 
ENDBRANCH  22  24
ENDBRANCH   6  22
BRANCH   1  29
ATOM     29  C   UNL     1       3.865   2.964  19.902  0.00  0.00    +0.000 C 
BRANCH  29  31
ATOM     30  C   UNL     1       1.771   2.648  18.485  0.00  0.00    +0.000 C 
ATOM     31  C   UNL     1       2.400   3.394  19.672  0.00  0.00    +0.000 C 
BRANCH  31  32
ATOM     32  C   UNL     1       2.256   4.907  19.597  0.00  0.00    +0.000 A 
ATOM     33  C   UNL     1       2.419   5.558  18.364  0.00  0.00    +0.000 A 
ATOM     34  C   UNL     1       2.279   6.943  18.268  0.00  0.00    +0.000 A 
ATOM     35  C   UNL     1       1.972   7.695  19.400  0.00  0.00    +0.000 A 
ATOM     36  C   UNL     1       1.795   7.062  20.626  0.00  0.00    +0.000 A 
ATOM     37  C   UNL     1       1.930   5.678  20.723  0.00  0.00    +0.000 A 
ENDBRANCH  31  32
ENDBRANCH  29  31
ENDBRANCH   1  29
TORSDOF 10
ENDMDL
MODEL 2
REMARK VINA RESULT:      -8.5      1.000      1.680
REMARK  Name = 
REMARK  11 active torsions:
REMARK  status: ('A' for Active; 'I' for Inactive)
REMARK    1  A    between atoms: C_1  and  C_2
REMARK    2  A    between atoms: C_2  and  C_3
REMARK    3  A    between atoms: C_2  and  C_29
REMARK    4  A    between atoms: C_3  and  N_4
REMARK    5  A    between atoms: C_8  and  C_9
REMARK    6  A    between atoms: N_11  and  C_12
REMARK    7  A    between atoms: C_12  and  C_13
REMARK    8  A    between atoms: C_13  and  C_14
REMARK    9  A    between atoms: C_14  and  N_15
REMARK   10  A    between atoms: C_21  and  N_22
REMARK   11  A    between atoms: N_22  and  C_23
REMARK                            x       y       z     vdW  Elec       q    Type
REMARK                         _______ _______ _______ _____ _____    ______ ____
ROOT
ATOM      1  N   UNL     1       4.924   2.848  19.274  0.00  0.00    +0.000 N 
ATOM      2  C   UNL     1       5.562   3.971  18.768  0.00  0.00    +0.000 A 
ATOM      3  N   UNL     1       5.570   5.088  19.499  0.00  0.00    +0.000 NA
ATOM      4  C   UNL     1       6.282   6.118  19.020  0.00  0.00    +0.000 A 
ATOM      5  C   UNL     1       7.014   6.070  17.853  0.00  0.00    +0.000 A 
ATOM      6  C   UNL     1       6.892   4.898  17.105  0.00  0.00    +0.000 A 
ATOM      7  N   UNL     1       6.168   3.853  17.573  0.00  0.00    +0.000 NA
ATOM      8  H   UNL     1       4.731   2.236  18.488  0.00  0.00    +0.000 HD
ENDROOT
BRANCH   5   9
ATOM      9  C   UNL     1       7.763   7.303  17.530  0.00  0.00    +0.000 C 
ATOM     10  O   UNL     1       7.971   7.589  16.353  0.00  0.00    +0.000 OA
ATOM     11  N   UNL     1       8.128   8.139  18.561  0.00  0.00    +0.000 N 
ATOM     12  H   UNL     1       7.777   7.965  19.490  0.00  0.00    +0.000 HD
BRANCH  11  13
ATOM     13  C   UNL     1       8.776   9.410  18.308  0.00  0.00    +0.000 C 
BRANCH  13  14
ATOM     14  C   UNL     1       9.426   9.972  19.565  0.00  0.00    +0.000 C 
BRANCH  14  15
ATOM     15  C   UNL     1       9.348  11.498  19.595  0.00  0.00    +0.000 C 
BRANCH  15  16
ATOM     16  N   UNL     1      10.321  12.123  18.722  0.00  0.00    +0.000 N 
ATOM     17  C   UNL     1       9.945  12.967  17.619  0.00  0.00    +0.000 C 
ATOM     18  C   UNL     1      11.254  13.137  16.875  0.00  0.00    +0.000 C 
ATOM     19  C   UNL     1      12.303  13.121  17.978  0.00  0.00    +0.000 C 
ATOM     20  C   UNL     1      11.663  12.271  19.049  0.00  0.00    +0.000 C 
ATOM     21  O   UNL     1      12.222  11.847  20.044  0.00  0.00    +0.000 OA
ENDBRANCH  15  16
ENDBRANCH  14  15
ENDBRANCH  13  14
ENDBRANCH  11  13
ENDBRANCH   5   9
BRANCH   6  22
ATOM     22  N   UNL     1       7.506   4.774  15.852  0.00  0.00    +0.000 N 
ATOM     23  H   UNL     1       8.046   3.920  15.790  0.00  0.00    +0.000 HD
BRANCH  22  24
ATOM     24  C   UNL     1       6.736   4.990  14.623  0.00  0.00    +0.000 C 
ATOM     25  C   UNL     1       7.736   5.170  13.473  0.00  0.00    +0.000 C 
ATOM     26  C   UNL     1       7.088   4.575  12.239  0.00  0.00    +0.000 C 
ATOM     27  C   UNL     1       6.141   3.501  12.744  0.00  0.00    +0.000 C 
ATOM     28  C   UNL     1       5.888   3.779  14.226  0.00  0.00    +0.000 C 
ENDBRANCH  22  24
ENDBRANCH   6  22
BRANCH   1  29
ATOM     29  C   UNL     1       3.778   3.144  20.130  0.00  0.00    +0.000 C 
BRANCH  29  31
ATOM     30  C   UNL     1       2.453   2.754  17.989  0.00  0.00    +0.000 C 
ATOM     31  C   UNL     1       2.519   3.521  19.318  0.00  0.00    +0.000 C 
BRANCH  31  32
ATOM     32  C   UNL     1       2.366   5.027  19.172  0.00  0.00    +0.000 A 
ATOM     33  C   UNL     1       2.138   5.814  20.312  0.00  0.00    +0.000 A 
ATOM     34  C   UNL     1       2.008   7.200  20.204  0.00  0.00    +0.000 A 
ATOM     35  C   UNL     1       2.106   7.816  18.958  0.00  0.00    +0.000 A 
ATOM     36  C   UNL     1       2.344   7.050  17.822  0.00  0.00    +0.000 A 
ATOM     37  C   UNL     1       2.479   5.667  17.928  0.00  0.00    +0.000 A 
ENDBRANCH  31  32
ENDBRANCH  29  31
ENDBRANCH   1  29
TORSDOF 10
ENDMDL
MODEL 3
REMARK VINA RESULT:      -8.5      4.094      8.165
REMARK  Name = 
REMARK  11 active torsions:
REMARK  status: ('A' for Active; 'I' for Inactive)
REMARK    1  A    between atoms: C_1  and  C_2
REMARK    2  A    between atoms: C_2  and  C_3
REMARK    3  A    between atoms: C_2  and  C_29
REMARK    4  A    between atoms: C_3  and  N_4
REMARK    5  A    between atoms: C_8  and  C_9
REMARK    6  A    between atoms: N_11  and  C_12
REMARK    7  A    between atoms: C_12  and  C_13
REMARK    8  A    between atoms: C_13  and  C_14
REMARK    9  A    between atoms: C_14  and  N_15
REMARK   10  A    between atoms: C_21  and  N_22
REMARK   11  A    between atoms: N_22  and  C_23
REMARK                            x       y       z     vdW  Elec       q    Type
REMARK                         _______ _______ _______ _____ _____    ______ ____
ROOT
ATOM      1  N   UNL     1       4.190   5.284  16.623  0.00  0.00    +0.000 N 
ATOM      2  C   UNL     1       3.610   6.033  17.637  0.00  0.00    +0.000 A 
ATOM      3  N   UNL     1       3.253   7.293  17.379  0.00  0.00    +0.000 NA
ATOM      4  C   UNL     1       2.606   7.948  18.354  0.00  0.00    +0.000 A 
ATOM      5  C   UNL     1       2.273   7.387  19.568  0.00  0.00    +0.000 A 
ATOM      6  C   UNL     1       2.750   6.095  19.793  0.00  0.00    +0.000 A 
ATOM      7  N   UNL     1       3.414   5.425  18.820  0.00  0.00    +0.000 NA
ATOM      8  H   UNL     1       4.681   4.514  17.066  0.00  0.00    +0.000 HD
ENDROOT
BRANCH   5   9
ATOM      9  C   UNL     1       1.520   8.271  20.483  0.00  0.00    +0.000 C 
ATOM     10  O   UNL     1       1.139   7.830  21.566  0.00  0.00    +0.000 OA
ATOM     11  N   UNL     1       1.347   9.589  20.128  0.00  0.00    +0.000 N 
ATOM     12  H   UNL     1       1.833   9.956  19.326  0.00  0.00    +0.000 HD
BRANCH  11  13
ATOM     13  C   UNL     1       0.706  10.533  21.022  0.00  0.00    +0.000 C 
BRANCH  13  14
ATOM     14  C   UNL     1      -0.789  10.639  20.754  0.00  0.00    +0.000 C 
BRANCH  14  15
ATOM     15  C   UNL     1      -1.080  11.593  19.597  0.00  0.00    +0.000 C 
BRANCH  15  16
ATOM     16  N   UNL     1      -1.924  10.997  18.581  0.00  0.00    +0.000 N 
ATOM     17  C   UNL     1      -3.222  11.519  18.245  0.00  0.00    +0.000 C 
ATOM     18  C   UNL     1      -3.797  10.426  17.367  0.00  0.00    +0.000 C 
ATOM     19  C   UNL     1      -2.583   9.866  16.640  0.00  0.00    +0.000 C 
ATOM     20  C   UNL     1      -1.454  10.120  17.611  0.00  0.00    +0.000 C 
ATOM     21  O   UNL     1      -0.325   9.676  17.514  0.00  0.00    +0.000 OA
ENDBRANCH  15  16
ENDBRANCH  14  15
ENDBRANCH  13  14
ENDBRANCH  11  13
ENDBRANCH   5   9
BRANCH   6  22
ATOM     22  N   UNL     1       2.563   5.462  21.028  0.00  0.00    +0.000 N 
ATOM     23  H   UNL     1       2.135   6.086  21.701  0.00  0.00    +0.000 HD
BRANCH  22  24
ATOM     24  C   UNL     1       1.951   4.131  21.096  0.00  0.00    +0.000 C 
ATOM     25  C   UNL     1       0.770   4.112  20.118  0.00  0.00    +0.000 C 
ATOM     26  C   UNL     1       0.688   2.703  19.563  0.00  0.00    +0.000 C 
ATOM     27  C   UNL     1       2.100   2.150  19.627  0.00  0.00    +0.000 C 
ATOM     28  C   UNL     1       2.884   3.017  20.614  0.00  0.00    +0.000 C 
ENDBRANCH  22  24
ENDBRANCH   6  22
BRANCH   1  29
ATOM     29  C   UNL     1       4.980   6.067  15.676  0.00  0.00    +0.000 C 
BRANCH  29  31
ATOM     30  C   UNL     1       6.671   4.204  15.269  0.00  0.00    +0.000 C 
ATOM     31  C   UNL     1       6.473   5.669  15.686  0.00  0.00    +0.000 C 
BRANCH  31  32
ATOM     32  C   UNL     1       7.150   6.035  16.997  0.00  0.00    +0.000 A 
ATOM     33  C   UNL     1       7.403   5.035  17.949  0.00  0.00    +0.000 A 
ATOM     34  C   UNL     1       8.035   5.344  19.154  0.00  0.00    +0.000 A 
ATOM     35  C   UNL     1       8.425   6.655  19.423  0.00  0.00    +0.000 A 
ATOM     36  C   UNL     1       8.192   7.654  18.484  0.00  0.00    +0.000 A 
ATOM     37  C   UNL     1       7.564   7.346  17.278  0.00  0.00    +0.000 A 
ENDBRANCH  31  32
ENDBRANCH  29  31
ENDBRANCH   1  29
TORSDOF 10
ENDMDL
MODEL 4
REMARK VINA RESULT:      -8.3      4.363      8.050
REMARK  Name = 
REMARK  11 active torsions:
REMARK  status: ('A' for Active; 'I' for Inactive)
REMARK    1  A    between atoms: C_1  and  C_2
REMARK    2  A    between atoms: C_2  and  C_3
REMARK    3  A    between atoms: C_2  and  C_29
REMARK    4  A    between atoms: C_3  and  N_4
REMARK    5  A    between atoms: C_8  and  C_9
REMARK    6  A    between atoms: N_11  and  C_12
REMARK    7  A    between atoms: C_12  and  C_13
REMARK    8  A    between atoms: C_13  and  C_14
REMARK    9  A    between atoms: C_14  and  N_15
REMARK   10  A    between atoms: C_21  and  N_22
REMARK   11  A    between atoms: N_22  and  C_23
REMARK                            x       y       z     vdW  Elec       q    Type
REMARK                         _______ _______ _______ _____ _____    ______ ____
ROOT
ATOM      1  N   UNL     1       0.916   9.902  19.478  0.00  0.00    +0.000 N 
ATOM      2  C   UNL     1       1.625   8.753  19.162  0.00  0.00    +0.000 A 
ATOM      3  N   UNL     1       2.163   8.645  17.946  0.00  0.00    +0.000 NA
ATOM      4  C   UNL     1       2.924   7.565  17.716  0.00  0.00    +0.000 A 
ATOM      5  C   UNL     1       3.196   6.600  18.662  0.00  0.00    +0.000 A 
ATOM      6  C   UNL     1       2.535   6.741  19.882  0.00  0.00    +0.000 A 
ATOM      7  N   UNL     1       1.755   7.822  20.125  0.00  0.00    +0.000 NA
ATOM      8  H   UNL     1       0.325   9.679  20.272  0.00  0.00    +0.000 HD
ENDROOT
BRANCH   5   9
ATOM      9  C   UNL     1       4.095   5.515  18.212  0.00  0.00    +0.000 C 
ATOM     10  O   UNL     1       3.620   4.552  17.615  0.00  0.00    +0.000 OA
ATOM     11  N   UNL     1       5.450   5.664  18.401  0.00  0.00    +0.000 N 
ATOM     12  H   UNL     1       5.813   6.547  18.724  0.00  0.00    +0.000 HD
BRANCH  11  13
ATOM     13  C   UNL     1       6.394   4.687  17.898  0.00  0.00    +0.000 C 
BRANCH  13  14
ATOM     14  C   UNL     1       6.125   4.342  16.439  0.00  0.00    +0.000 C 
BRANCH  14  15
ATOM     15  C   UNL     1       7.024   5.149  15.504  0.00  0.00    +0.000 C 
BRANCH  15  16
ATOM     16  N   UNL     1       6.960   4.685  14.132  0.00  0.00    +0.000 N 
ATOM     17  C   UNL     1       5.828   3.968  13.607  0.00  0.00    +0.000 C 
ATOM     18  C   UNL     1       6.344   3.477  12.270  0.00  0.00    +0.000 C 
ATOM     19  C   UNL     1       7.290   4.580  11.817  0.00  0.00    +0.000 C 
ATOM     20  C   UNL     1       7.778   5.169  13.119  0.00  0.00    +0.000 C 
ATOM     21  O   UNL     1       8.689   5.967  13.237  0.00  0.00    +0.000 OA
ENDBRANCH  15  16
ENDBRANCH  14  15
ENDBRANCH  13  14
ENDBRANCH  11  13
ENDBRANCH   5   9
BRANCH   6  22
ATOM     22  N   UNL     1       2.652   5.767  20.883  0.00  0.00    +0.000 N 
ATOM     23  H   UNL     1       2.891   6.183  21.774  0.00  0.00    +0.000 HD
BRANCH  22  24
ATOM     24  C   UNL     1       1.613   4.746  21.051  0.00  0.00    +0.000 C 
ATOM     25  C   UNL     1       1.093   4.378  19.656  0.00  0.00    +0.000 C 
ATOM     26  C   UNL     1       0.729   2.907  19.703  0.00  0.00    +0.000 C 
ATOM     27  C   UNL     1       1.623   2.293  20.765  0.00  0.00    +0.000 C 
ATOM     28  C   UNL     1       2.148   3.436  21.634  0.00  0.00    +0.000 C 
ENDBRANCH  22  24
ENDBRANCH   6  22
BRANCH   1  29
ATOM     29  C   UNL     1       0.232  10.516  18.342  0.00  0.00    +0.000 C 
BRANCH  29  31
ATOM     30  C   UNL     1      -0.853  11.722  20.307  0.00  0.00    +0.000 C 
ATOM     31  C   UNL     1      -0.753  11.623  18.778  0.00  0.00    +0.000 C 
BRANCH  31  32
ATOM     32  C   UNL     1      -2.098  11.496  18.077  0.00  0.00    +0.000 A 
ATOM     33  C   UNL     1      -2.144  11.073  16.739  0.00  0.00    +0.000 A 
ATOM     34  C   UNL     1      -3.367  10.936  16.080  0.00  0.00    +0.000 A 
ATOM     35  C   UNL     1      -4.557  11.217  16.748  0.00  0.00    +0.000 A 
ATOM     36  C   UNL     1      -4.527  11.624  18.078  0.00  0.00    +0.000 A 
ATOM     37  C   UNL     1      -3.307  11.758  18.739  0.00  0.00    +0.000 A 
ENDBRANCH  31  32
ENDBRANCH  29  31
ENDBRANCH   1  29
TORSDOF 10
ENDMDL
MODEL 5
REMARK VINA RESULT:      -8.3      1.013      1.173
REMARK  Name = 
REMARK  11 active torsions:
REMARK  status: ('A' for Active; 'I' for Inactive)
REMARK    1  A    between atoms: C_1  and  C_2
REMARK    2  A    between atoms: C_2  and  C_3
REMARK    3  A    between atoms: C_2  and  C_29
REMARK    4  A    between atoms: C_3  and  N_4
REMARK    5  A    between atoms: C_8  and  C_9
REMARK    6  A    between atoms: N_11  and  C_12
REMARK    7  A    between atoms: C_12  and  C_13
REMARK    8  A    between atoms: C_13  and  C_14
REMARK    9  A    between atoms: C_14  and  N_15
REMARK   10  A    between atoms: C_21  and  N_22
REMARK   11  A    between atoms: N_22  and  C_23
REMARK                            x       y       z     vdW  Elec       q    Type
REMARK                         _______ _______ _______ _____ _____    ______ ____
ROOT
ATOM      1  N   UNL     1       3.976   2.572  18.720  0.00  0.00    +0.000 N 
ATOM      2  C   UNL     1       4.735   3.645  18.275  0.00  0.00    +0.000 A 
ATOM      3  N   UNL     1       5.373   4.398  19.173  0.00  0.00    +0.000 NA
ATOM      4  C   UNL     1       6.173   5.360  18.695  0.00  0.00    +0.000 A 
ATOM      5  C   UNL     1       6.389   5.585  17.353  0.00  0.00    +0.000 A 
ATOM      6  C   UNL     1       5.627   4.812  16.476  0.00  0.00    +0.000 A 
ATOM      7  N   UNL     1       4.806   3.842  16.945  0.00  0.00    +0.000 NA
ATOM      8  H   UNL     1       3.327   2.337  17.976  0.00  0.00    +0.000 HD
ENDROOT
BRANCH   5   9
ATOM      9  C   UNL     1       7.345   6.670  17.043  0.00  0.00    +0.000 C 
ATOM     10  O   UNL     1       7.977   6.630  15.989  0.00  0.00    +0.000 OA
ATOM     11  N   UNL     1       7.431   7.737  17.907  0.00  0.00    +0.000 N 
ATOM     12  H   UNL     1       6.765   7.823  18.659  0.00  0.00    +0.000 HD
BRANCH  11  13
ATOM     13  C   UNL     1       8.274   8.879  17.615  0.00  0.00    +0.000 C 
BRANCH  13  14
ATOM     14  C   UNL     1       8.274   9.888  18.755  0.00  0.00    +0.000 C 
BRANCH  14  15
ATOM     15  C   UNL     1       9.695  10.305  19.129  0.00  0.00    +0.000 C 
BRANCH  15  16
ATOM     16  N   UNL     1       9.918  11.727  18.971  0.00  0.00    +0.000 N 
ATOM     17  C   UNL     1       9.526  12.449  17.790  0.00  0.00    +0.000 C 
ATOM     18  C   UNL     1      10.203  13.790  17.985  0.00  0.00    +0.000 C 
ATOM     19  C   UNL     1      10.179  13.995  19.493  0.00  0.00    +0.000 C 
ATOM     20  C   UNL     1      10.192  12.584  20.031  0.00  0.00    +0.000 C 
ATOM     21  O   UNL     1      10.355  12.273  21.196  0.00  0.00    +0.000 OA
ENDBRANCH  15  16
ENDBRANCH  14  15
ENDBRANCH  13  14
ENDBRANCH  11  13
ENDBRANCH   5   9
BRANCH   6  22
ATOM     22  N   UNL     1       5.684   5.023  15.092  0.00  0.00    +0.000 N 
ATOM     23  H   UNL     1       5.975   5.968  14.875  0.00  0.00    +0.000 HD
BRANCH  22  24
ATOM     24  C   UNL     1       6.366   4.060  14.222  0.00  0.00    +0.000 C 
ATOM     25  C   UNL     1       5.313   3.451  13.287  0.00  0.00    +0.000 C 
ATOM     26  C   UNL     1       6.010   3.176  11.969  0.00  0.00    +0.000 C 
ATOM     27  C   UNL     1       7.139   4.185  11.879  0.00  0.00    +0.000 C 
ATOM     28  C   UNL     1       7.392   4.713  13.292  0.00  0.00    +0.000 C 
ENDBRANCH  22  24
ENDBRANCH   6  22
BRANCH   1  29
ATOM     29  C   UNL     1       3.374   2.770  20.036  0.00  0.00    +0.000 C 
BRANCH  29  31
ATOM     30  C   UNL     1       1.088   2.616  18.921  0.00  0.00    +0.000 C 
ATOM     31  C   UNL     1       1.951   3.365  19.948  0.00  0.00    +0.000 C 
BRANCH  31  32
ATOM     32  C   UNL     1       1.976   4.873  19.752  0.00  0.00    +0.000 A 
ATOM     33  C   UNL     1       2.144   5.401  18.462  0.00  0.00    +0.000 A 
ATOM     34  C   UNL     1       2.158   6.781  18.255  0.00  0.00    +0.000 A 
ATOM     35  C   UNL     1       2.001   7.651  19.333  0.00  0.00    +0.000 A 
ATOM     36  C   UNL     1       1.821   7.142  20.615  0.00  0.00    +0.000 A 
ATOM     37  C   UNL     1       1.804   5.764  20.822  0.00  0.00    +0.000 A 
ENDBRANCH  31  32
ENDBRANCH  29  31
ENDBRANCH   1  29
TORSDOF 10
ENDMDL
MODEL 6
REMARK VINA RESULT:      -8.1      4.813      8.928
REMARK  Name = 
REMARK  11 active torsions:
REMARK  status: ('A' for Active; 'I' for Inactive)
REMARK    1  A    between atoms: C_1  and  C_2
REMARK    2  A    between atoms: C_2  and  C_3
REMARK    3  A    between atoms: C_2  and  C_29
REMARK    4  A    between atoms: C_3  and  N_4
REMARK    5  A    between atoms: C_8  and  C_9
REMARK    6  A    between atoms: N_11  and  C_12
REMARK    7  A    between atoms: C_12  and  C_13
REMARK    8  A    between atoms: C_13  and  C_14
REMARK    9  A    between atoms: C_14  and  N_15
REMARK   10  A    between atoms: C_21  and  N_22
REMARK   11  A    between atoms: N_22  and  C_23
REMARK                            x       y       z     vdW  Elec       q    Type
REMARK                         _______ _______ _______ _____ _____    ______ ____
ROOT
ATOM      1  N   UNL     1       4.158   4.926  16.966  0.00  0.00    +0.000 N 
ATOM      2  C   UNL     1       3.563   5.855  17.808  0.00  0.00    +0.000 A 
ATOM      3  N   UNL     1       3.441   7.116  17.388  0.00  0.00    +0.000 NA
ATOM      4  C   UNL     1       2.772   7.957  18.189  0.00  0.00    +0.000 A 
ATOM      5  C   UNL     1       2.190   7.584  19.381  0.00  0.00    +0.000 A 
ATOM      6  C   UNL     1       2.428   6.271  19.791  0.00  0.00    +0.000 A 
ATOM      7  N   UNL     1       3.111   5.413  18.996  0.00  0.00    +0.000 NA
ATOM      8  H   UNL     1       4.458   4.149  17.546  0.00  0.00    +0.000 HD
ENDROOT
BRANCH   5   9
ATOM      9  C   UNL     1       1.460   8.658  20.088  0.00  0.00    +0.000 C 
ATOM     10  O   UNL     1       1.295   8.574  21.303  0.00  0.00    +0.000 OA
ATOM     11  N   UNL     1       1.065   9.764  19.371  0.00  0.00    +0.000 N 
ATOM     12  H   UNL     1       1.382   9.881  18.421  0.00  0.00    +0.000 HD
BRANCH  11  13
ATOM     13  C   UNL     1       0.433  10.897  20.018  0.00  0.00    +0.000 C 
BRANCH  13  14
ATOM     14  C   UNL     1      -0.776  11.392  19.237  0.00  0.00    +0.000 C 
BRANCH  14  15
ATOM     15  C   UNL     1      -1.620  10.228  18.723  0.00  0.00    +0.000 C 
BRANCH  15  16
ATOM     16  N   UNL     1      -2.458  10.599  17.600  0.00  0.00    +0.000 N 
ATOM     17  C   UNL     1      -2.318  10.006  16.297  0.00  0.00    +0.000 C 
ATOM     18  C   UNL     1      -3.192  10.895  15.436  0.00  0.00    +0.000 C 
ATOM     19  C   UNL     1      -4.318  11.312  16.372  0.00  0.00    +0.000 C 
ATOM     20  C   UNL     1      -3.667  11.270  17.733  0.00  0.00    +0.000 C 
ATOM     21  O   UNL     1      -4.153  11.699  18.763  0.00  0.00    +0.000 OA
ENDBRANCH  15  16
ENDBRANCH  14  15
ENDBRANCH  13  14
ENDBRANCH  11  13
ENDBRANCH   5   9
BRANCH   6  22
ATOM     22  N   UNL     1       1.975   5.809  21.033  0.00  0.00    +0.000 N 
ATOM     23  H   UNL     1       1.434   6.517  21.514  0.00  0.00    +0.000 HD
BRANCH  22  24
ATOM     24  C   UNL     1       1.329   4.498  21.148  0.00  0.00    +0.000 C 
ATOM     25  C   UNL     1       0.807   4.114  19.757  0.00  0.00    +0.000 C 
ATOM     26  C   UNL     1       0.926   2.606  19.651  0.00  0.00    +0.000 C 
ATOM     27  C   UNL     1       2.072   2.215  20.566  0.00  0.00    +0.000 C 
ATOM     28  C   UNL     1       2.303   3.380  21.529  0.00  0.00    +0.000 C 
ENDBRANCH  22  24
ENDBRANCH   6  22
BRANCH   1  29
ATOM     29  C   UNL     1       5.183   5.484  16.087  0.00  0.00    +0.000 C 
BRANCH  29  31
ATOM     30  C   UNL     1       7.520   4.683  16.715  0.00  0.00    +0.000 C 
ATOM     31  C   UNL     1       6.313   4.474  15.788  0.00  0.00    +0.000 C 
BRANCH  31  32
ATOM     32  C   UNL     1       6.668   4.440  14.309  0.00  0.00    +0.000 A 
ATOM     33  C   UNL     1       6.033   3.515  13.465  0.00  0.00    +0.000 A 
ATOM     34  C   UNL     1       6.333   3.474  12.103  0.00  0.00    +0.000 A 
ATOM     35  C   UNL     1       7.268   4.357  11.566  0.00  0.00    +0.000 A 
ATOM     36  C   UNL     1       7.896   5.287  12.387  0.00  0.00    +0.000 A 
ATOM     37  C   UNL     1       7.594   5.332  13.748  0.00  0.00    +0.000 A 
ENDBRANCH  31  32
ENDBRANCH  29  31
ENDBRANCH   1  29
TORSDOF 10
ENDMDL
MODEL 7
REMARK VINA RESULT:      -8.1      0.898      1.275
REMARK  Name = 
REMARK  11 active torsions:
REMARK  status: ('A' for Active; 'I' for Inactive)
REMARK    1  A    between atoms: C_1  and  C_2
REMARK    2  A    between atoms: C_2  and  C_3
REMARK    3  A    between atoms: C_2  and  C_29
REMARK    4  A    between atoms: C_3  and  N_4
REMARK    5  A    between atoms: C_8  and  C_9
REMARK    6  A    between atoms: N_11  and  C_12
REMARK    7  A    between atoms: C_12  and  C_13
REMARK    8  A    between atoms: C_13  and  C_14
REMARK    9  A    between atoms: C_14  and  N_15
REMARK   10  A    between atoms: C_21  and  N_22
REMARK   11  A    between atoms: N_22  and  C_23
REMARK                            x       y       z     vdW  Elec       q    Type
REMARK                         _______ _______ _______ _____ _____    ______ ____
ROOT
ATOM      1  N   UNL     1       4.486   2.943  19.257  0.00  0.00    +0.000 N 
ATOM      2  C   UNL     1       5.209   4.005  18.733  0.00  0.00    +0.000 A 
ATOM      3  N   UNL     1       5.262   5.147  19.422  0.00  0.00    +0.000 NA
ATOM      4  C   UNL     1       6.052   6.111  18.930  0.00  0.00    +0.000 A 
ATOM      5  C   UNL     1       6.818   5.974  17.793  0.00  0.00    +0.000 A 
ATOM      6  C   UNL     1       6.649   4.783  17.086  0.00  0.00    +0.000 A 
ATOM      7  N   UNL     1       5.846   3.803  17.565  0.00  0.00    +0.000 NA
ATOM      8  H   UNL     1       4.282   2.313  18.488  0.00  0.00    +0.000 HD
ENDROOT
BRANCH   5   9
ATOM      9  C   UNL     1       7.653   7.146  17.451  0.00  0.00    +0.000 C 
ATOM     10  O   UNL     1       8.249   7.166  16.376  0.00  0.00    +0.000 OA
ATOM     11  N   UNL     1       7.664   8.217  18.314  0.00  0.00    +0.000 N 
ATOM     12  H   UNL     1       7.019   8.240  19.088  0.00  0.00    +0.000 HD
BRANCH  11  13
ATOM     13  C   UNL     1       8.381   9.436  17.994  0.00  0.00    +0.000 C 
BRANCH  13  14
ATOM     14  C   UNL     1       9.410   9.782  19.062  0.00  0.00    +0.000 C 
BRANCH  14  15
ATOM     15  C   UNL     1       9.117  11.141  19.696  0.00  0.00    +0.000 C 
BRANCH  15  16
ATOM     16  N   UNL     1      10.140  12.124  19.405  0.00  0.00    +0.000 N 
ATOM     17  C   UNL     1      11.399  12.165  20.101  0.00  0.00    +0.000 C 
ATOM     18  C   UNL     1      11.979  13.490  19.651  0.00  0.00    +0.000 C 
ATOM     19  C   UNL     1      11.474  13.642  18.223  0.00  0.00    +0.000 C 
ATOM     20  C   UNL     1      10.175  12.874  18.235  0.00  0.00    +0.000 C 
ATOM     21  O   UNL     1       9.344  12.875  17.346  0.00  0.00    +0.000 OA
ENDBRANCH  15  16
ENDBRANCH  14  15
ENDBRANCH  13  14
ENDBRANCH  11  13
ENDBRANCH   5   9
BRANCH   6  22
ATOM     22  N   UNL     1       7.295   4.573  15.861  0.00  0.00    +0.000 N 
ATOM     23  H   UNL     1       7.711   3.651  15.817  0.00  0.00    +0.000 HD
BRANCH  22  24
ATOM     24  C   UNL     1       6.620   4.895  14.600  0.00  0.00    +0.000 C 
ATOM     25  C   UNL     1       7.703   5.139  13.541  0.00  0.00    +0.000 C 
ATOM     26  C   UNL     1       7.138   4.650  12.222  0.00  0.00    +0.000 C 
ATOM     27  C   UNL     1       6.141   3.562  12.576  0.00  0.00    +0.000 C 
ATOM     28  C   UNL     1       5.784   3.734  14.053  0.00  0.00    +0.000 C 
ENDBRANCH  22  24
ENDBRANCH   6  22
BRANCH   1  29
ATOM     29  C   UNL     1       3.333   3.341  20.061  0.00  0.00    +0.000 C 
BRANCH  29  31
ATOM     30  C   UNL     1       2.230   3.330  17.764  0.00  0.00    +0.000 C 
ATOM     31  C   UNL     1       2.172   3.881  19.196  0.00  0.00    +0.000 C 
BRANCH  31  32
ATOM     32  C   UNL     1       2.063   5.396  19.272  0.00  0.00    +0.000 A 
ATOM     33  C   UNL     1       2.273   6.164  18.115  0.00  0.00    +0.000 A 
ATOM     34  C   UNL     1       2.165   7.555  18.157  0.00  0.00    +0.000 A 
ATOM     35  C   UNL     1       1.845   8.196  19.352  0.00  0.00    +0.000 A 
ATOM     36  C   UNL     1       1.623   7.447  20.503  0.00  0.00    +0.000 A 
ATOM     37  C   UNL     1       1.726   6.058  20.462  0.00  0.00    +0.000 A 
ENDBRANCH  31  32
ENDBRANCH  29  31
ENDBRANCH   1  29
TORSDOF 10
ENDMDL
MODEL 8
REMARK VINA RESULT:      -8.1      1.148      1.634
REMARK  Name = 
REMARK  11 active torsions:
REMARK  status: ('A' for Active; 'I' for Inactive)
REMARK    1  A    between atoms: C_1  and  C_2
REMARK    2  A    between atoms: C_2  and  C_3
REMARK    3  A    between atoms: C_2  and  C_29
REMARK    4  A    between atoms: C_3  and  N_4
REMARK    5  A    between atoms: C_8  and  C_9
REMARK    6  A    between atoms: N_11  and  C_12
REMARK    7  A    between atoms: C_12  and  C_13
REMARK    8  A    between atoms: C_13  and  C_14
REMARK    9  A    between atoms: C_14  and  N_15
REMARK   10  A    between atoms: C_21  and  N_22
REMARK   11  A    between atoms: N_22  and  C_23
REMARK                            x       y       z     vdW  Elec       q    Type
REMARK                         _______ _______ _______ _____ _____    ______ ____
ROOT
ATOM      1  N   UNL     1       4.071   2.778  18.758  0.00  0.00    +0.000 N 
ATOM      2  C   UNL     1       4.795   3.885  18.339  0.00  0.00    +0.000 A 
ATOM      3  N   UNL     1       5.351   4.674  19.260  0.00  0.00    +0.000 NA
ATOM      4  C   UNL     1       6.125   5.673  18.811  0.00  0.00    +0.000 A 
ATOM      5  C   UNL     1       6.392   5.899  17.478  0.00  0.00    +0.000 A 
ATOM      6  C   UNL     1       5.713   5.082  16.574  0.00  0.00    +0.000 A 
ATOM      7  N   UNL     1       4.920   4.075  17.013  0.00  0.00    +0.000 NA
ATOM      8  H   UNL     1       3.470   2.505  17.987  0.00  0.00    +0.000 HD
ENDROOT
BRANCH   5   9
ATOM      9  C   UNL     1       7.307   7.028  17.203  0.00  0.00    +0.000 C 
ATOM     10  O   UNL     1       8.125   6.929  16.291  0.00  0.00    +0.000 OA
ATOM     11  N   UNL     1       7.152   8.189  17.925  0.00  0.00    +0.000 N 
ATOM     12  H   UNL     1       6.354   8.296  18.530  0.00  0.00    +0.000 HD
BRANCH  11  13
ATOM     13  C   UNL     1       7.949   9.366  17.640  0.00  0.00    +0.000 C 
BRANCH  13  14
ATOM     14  C   UNL     1       8.932   9.667  18.762  0.00  0.00    +0.000 C 
BRANCH  14  15
ATOM     15  C   UNL     1       9.858  10.825  18.393  0.00  0.00    +0.000 C 
BRANCH  15  16
ATOM     16  N   UNL     1      10.007  11.785  19.469  0.00  0.00    +0.000 N 
ATOM     17  C   UNL     1      10.246  13.184  19.235  0.00  0.00    +0.000 C 
ATOM     18  C   UNL     1      10.595  13.693  20.618  0.00  0.00    +0.000 C 
ATOM     19  C   UNL     1       9.750  12.833  21.546  0.00  0.00    +0.000 C 
ATOM     20  C   UNL     1       9.595  11.544  20.774  0.00  0.00    +0.000 C 
ATOM     21  O   UNL     1       9.135  10.507  21.214  0.00  0.00    +0.000 OA
ENDBRANCH  15  16
ENDBRANCH  14  15
ENDBRANCH  13  14
ENDBRANCH  11  13
ENDBRANCH   5   9
BRANCH   6  22
ATOM     22  N   UNL     1       5.825   5.286  15.192  0.00  0.00    +0.000 N 
ATOM     23  H   UNL     1       6.132   6.227  14.982  0.00  0.00    +0.000 HD
BRANCH  22  24
ATOM     24  C   UNL     1       6.530   4.313  14.353  0.00  0.00    +0.000 C 
ATOM     25  C   UNL     1       5.489   3.631  13.456  0.00  0.00    +0.000 C 
ATOM     26  C   UNL     1       6.182   3.327  12.142  0.00  0.00    +0.000 C 
ATOM     27  C   UNL     1       7.275   4.370  11.998  0.00  0.00    +0.000 C 
ATOM     28  C   UNL     1       7.523   4.962  13.386  0.00  0.00    +0.000 C 
ENDBRANCH  22  24
ENDBRANCH   6  22
BRANCH   1  29
ATOM     29  C   UNL     1       3.397   2.955  20.043  0.00  0.00    +0.000 C 
BRANCH  29  31
ATOM     30  C   UNL     1       1.146   2.713  18.874  0.00  0.00    +0.000 C 
ATOM     31  C   UNL     1       1.970   3.524  19.885  0.00  0.00    +0.000 C 
BRANCH  31  32
ATOM     32  C   UNL     1       1.982   5.021  19.613  0.00  0.00    +0.000 A 
ATOM     33  C   UNL     1       1.839   5.920  20.681  0.00  0.00    +0.000 A 
ATOM     34  C   UNL     1       1.860   7.298  20.458  0.00  0.00    +0.000 A 
ATOM     35  C   UNL     1       2.026   7.794  19.167  0.00  0.00    +0.000 A 
ATOM     36  C   UNL     1       2.181   6.915  18.100  0.00  0.00    +0.000 A 
ATOM     37  C   UNL     1       2.165   5.539  18.322  0.00  0.00    +0.000 A 
ENDBRANCH  31  32
ENDBRANCH  29  31
ENDBRANCH   1  29
TORSDOF 10
ENDMDL
MODEL 9
REMARK VINA RESULT:      -8.0      1.093      1.261
REMARK  Name = 
REMARK  11 active torsions:
REMARK  status: ('A' for Active; 'I' for Inactive)
REMARK    1  A    between atoms: C_1  and  C_2
REMARK    2  A    between atoms: C_2  and  C_3
REMARK    3  A    between atoms: C_2  and  C_29
REMARK    4  A    between atoms: C_3  and  N_4
REMARK    5  A    between atoms: C_8  and  C_9
REMARK    6  A    between atoms: N_11  and  C_12
REMARK    7  A    between atoms: C_12  and  C_13
REMARK    8  A    between atoms: C_13  and  C_14
REMARK    9  A    between atoms: C_14  and  N_15
REMARK   10  A    between atoms: C_21  and  N_22
REMARK   11  A    between atoms: N_22  and  C_23
REMARK                            x       y       z     vdW  Elec       q    Type
REMARK                         _______ _______ _______ _____ _____    ______ ____
ROOT
ATOM      1  N   UNL     1       4.280   2.181  18.958  0.00  0.00    +0.000 N 
ATOM      2  C   UNL     1       4.756   3.385  18.458  0.00  0.00    +0.000 A 
ATOM      3  N   UNL     1       5.182   4.313  19.318  0.00  0.00    +0.000 NA
ATOM      4  C   UNL     1       5.726   5.419  18.791  0.00  0.00    +0.000 A 
ATOM      5  C   UNL     1       5.892   5.626  17.439  0.00  0.00    +0.000 A 
ATOM      6  C   UNL     1       5.350   4.649  16.603  0.00  0.00    +0.000 A 
ATOM      7  N   UNL     1       4.789   3.530  17.121  0.00  0.00    +0.000 NA
ATOM      8  H   UNL     1       3.715   1.759  18.228  0.00  0.00    +0.000 HD
ENDROOT
BRANCH   5   9
ATOM      9  C   UNL     1       6.556   6.896  17.074  0.00  0.00    +0.000 C 
ATOM     10  O   UNL     1       6.130   7.543  16.119  0.00  0.00    +0.000 OA
ATOM     11  N   UNL     1       7.577   7.356  17.872  0.00  0.00    +0.000 N 
ATOM     12  H   UNL     1       7.771   6.895  18.747  0.00  0.00    +0.000 HD
BRANCH  11  13
ATOM     13  C   UNL     1       8.205   8.639  17.630  0.00  0.00    +0.000 C 
BRANCH  13  14
ATOM     14  C   UNL     1       8.778   9.239  18.907  0.00  0.00    +0.000 C 
BRANCH  14  15
ATOM     15  C   UNL     1       9.600  10.492  18.612  0.00  0.00    +0.000 C 
BRANCH  15  16
ATOM     16  N   UNL     1       9.354  11.556  19.564  0.00  0.00    +0.000 N 
ATOM     17  C   UNL     1       9.739  11.466  20.947  0.00  0.00    +0.000 C 
ATOM     18  C   UNL     1       9.038  12.661  21.561  0.00  0.00    +0.000 C 
ATOM     19  C   UNL     1       9.054  13.702  20.450  0.00  0.00    +0.000 C 
ATOM     20  C   UNL     1       9.063  12.864  19.195  0.00  0.00    +0.000 C 
ATOM     21  O   UNL     1       8.900  13.283  18.064  0.00  0.00    +0.000 OA
ENDBRANCH  15  16
ENDBRANCH  14  15
ENDBRANCH  13  14
ENDBRANCH  11  13
ENDBRANCH   5   9
BRANCH   6  22
ATOM     22  N   UNL     1       5.365   4.801  15.210  0.00  0.00    +0.000 N 
ATOM     23  H   UNL     1       5.276   5.774  14.945  0.00  0.00    +0.000 HD
BRANCH  22  24
ATOM     24  C   UNL     1       6.393   4.138  14.402  0.00  0.00    +0.000 C 
ATOM     25  C   UNL     1       5.702   3.537  13.171  0.00  0.00    +0.000 C 
ATOM     26  C   UNL     1       6.696   3.623  12.030  0.00  0.00    +0.000 C 
ATOM     27  C   UNL     1       7.589   4.808  12.347  0.00  0.00    +0.000 C 
ATOM     28  C   UNL     1       7.433   5.110  13.838  0.00  0.00    +0.000 C 
ENDBRANCH  22  24
ENDBRANCH   6  22
BRANCH   1  29
ATOM     29  C   UNL     1       3.636   2.288  20.265  0.00  0.00    +0.000 C 
BRANCH  29  31
ATOM     30  C   UNL     1       1.363   1.913  19.176  0.00  0.00    +0.000 C 
ATOM     31  C   UNL     1       2.173   2.769  20.161  0.00  0.00    +0.000 C 
BRANCH  31  32
ATOM     32  C   UNL     1       2.083   4.265  19.898  0.00  0.00    +0.000 A 
ATOM     33  C   UNL     1       1.932   4.729  18.582  0.00  0.00    +0.000 A 
ATOM     34  C   UNL     1       1.834   6.096  18.316  0.00  0.00    +0.000 A 
ATOM     35  C   UNL     1       1.885   7.015  19.362  0.00  0.00    +0.000 A 
ATOM     36  C   UNL     1       2.022   6.570  20.672  0.00  0.00    +0.000 A 
ATOM     37  C   UNL     1       2.115   5.205  20.939  0.00  0.00    +0.000 A 
ENDBRANCH  31  32
ENDBRANCH  29  31
ENDBRANCH   1  29
TORSDOF 10
ENDMDL
