MODEL 1
REMARK VINA RESULT:      -8.0      0.000      0.000
REMARK  Name = 
REMARK  3 active torsions:
REMARK  status: ('A' for Active; 'I' for Inactive)
REMARK    1  A    between atoms: C_1  and  C_2
REMARK    2  A    between atoms: N_10  and  C_11
REMARK    3  A    between atoms: C_11  and  C_12
REMARK                            x       y       z     vdW  Elec       q    Type
REMARK                         _______ _______ _______ _____ _____    ______ ____
ROOT
ATOM      1  C   UNL     1       1.369   3.383  20.963  0.00  0.00    +0.000 C 
ATOM      2  C   UNL     1       1.501   3.676  19.465  0.00  0.00    +0.000 C 
ATOM      3  C   UNL     1       1.161   2.431  18.606  0.00  0.00    +0.000 C 
ATOM      4  N   UNL     1       2.153   1.349  18.721  0.00  0.00    +0.000 NA
ATOM      5  C   UNL     1       3.492   1.864  18.375  0.00  0.00    +0.000 C 
ATOM      6  C   UNL     1       3.896   3.112  19.183  0.00  0.00    +0.000 C 
ATOM      7  N   UNL     1       2.857   4.155  19.119  0.00  0.00    +0.000 N 
ATOM      8  C   UNL     1       3.237   5.435  18.787  0.00  0.00    +0.000 C 
ATOM      9  O   UNL     1       4.405   5.733  18.537  0.00  0.00    +0.000 OA
ATOM     10  N   UNL     1       2.246   6.381  18.751  0.00  0.00    +0.000 N 
ATOM     11  H   UNL     1       1.910   0.600  18.074  0.00  0.00    +0.000 HD
ATOM     12  H   UNL     1       1.300   6.113  18.578  0.00  0.00    +0.000 HD
ENDROOT
BRANCH  10  13
ATOM     13  C   UNL     1       2.567   7.759  18.424  0.00  0.00    +0.000 C 
BRANCH  13  14
ATOM     14  C   UNL     1       1.646   8.750  19.094  0.00  0.00    +0.000 A 
ATOM     15  C   UNL     1       1.014   9.727  18.333  0.00  0.00    +0.000 A 
ATOM     16  C   UNL     1       0.174  10.633  18.968  0.00  0.00    +0.000 A 
ATOM     17  C   UNL     1      -0.018  10.557  20.348  0.00  0.00    +0.000 A 
ATOM     18  C   UNL     1       0.624   9.523  21.040  0.00  0.00    +0.000 A 
ATOM     19  N   UNL     1       1.465   8.641  20.436  0.00  0.00    +0.000 NA
ATOM     20  C   UNL     1       0.437   9.355  22.527  0.00  0.00    +0.000 C 
ATOM     21  C   UNL     1      -0.797  10.078  23.065  0.00  0.00    +0.000 C 
ATOM     22  C   UNL     1      -0.824  11.513  22.553  0.00  0.00    +0.000 C 
ATOM     23  C   UNL     1      -0.943  11.530  21.030  0.00  0.00    +0.000 C 
ENDBRANCH  13  14
ENDBRANCH  10  13
TORSDOF 2
ENDMDL
MODEL 2
REMARK VINA RESULT:      -7.5      2.578      3.521
REMARK  Name = 
REMARK  3 active torsions:
REMARK  status: ('A' for Active; 'I' for Inactive)
REMARK    1  A    between atoms: C_1  and  C_2
REMARK    2  A    between atoms: N_10  and  C_11
REMARK    3  A    between atoms: C_11  and  C_12
REMARK                            x       y       z     vdW  Elec       q    Type
REMARK                         _______ _______ _______ _____ _____    ______ ____
ROOT
ATOM      1  C   UNL     1       6.860   7.303  17.351  0.00  0.00    +0.000 C 
ATOM      2  C   UNL     1       6.443   5.967  17.974  0.00  0.00    +0.000 C 
ATOM      3  C   UNL     1       7.550   4.893  17.821  0.00  0.00    +0.000 C 
ATOM      4  N   UNL     1       7.750   4.451  16.431  0.00  0.00    +0.000 NA
ATOM      5  C   UNL     1       6.474   3.958  15.878  0.00  0.00    +0.000 C 
ATOM      6  C   UNL     1       5.319   4.970  16.006  0.00  0.00    +0.000 C 
ATOM      7  N   UNL     1       5.183   5.460  17.389  0.00  0.00    +0.000 N 
ATOM      8  C   UNL     1       3.937   5.431  17.971  0.00  0.00    +0.000 C 
ATOM      9  O   UNL     1       2.943   5.005  17.382  0.00  0.00    +0.000 OA
ATOM     10  N   UNL     1       3.846   5.907  19.253  0.00  0.00    +0.000 N 
ATOM     11  H   UNL     1       8.432   3.693  16.414  0.00  0.00    +0.000 HD
ATOM     12  H   UNL     1       4.644   5.896  19.853  0.00  0.00    +0.000 HD
ENDROOT
BRANCH  10  13
ATOM     13  C   UNL     1       2.563   5.924  19.933  0.00  0.00    +0.000 C 
BRANCH  13  14
ATOM     14  C   UNL     1       1.950   7.303  19.993  0.00  0.00    +0.000 A 
ATOM     15  C   UNL     1       1.945   8.105  18.858  0.00  0.00    +0.000 A 
ATOM     16  C   UNL     1       1.381   9.373  18.935  0.00  0.00    +0.000 A 
ATOM     17  C   UNL     1       0.840   9.824  20.139  0.00  0.00    +0.000 A 
ATOM     18  C   UNL     1       0.849   8.944  21.228  0.00  0.00    +0.000 A 
ATOM     19  N   UNL     1       1.416   7.709  21.175  0.00  0.00    +0.000 NA
ATOM     20  C   UNL     1       0.251   9.347  22.553  0.00  0.00    +0.000 C 
ATOM     21  C   UNL     1      -0.710  10.531  22.445  0.00  0.00    +0.000 C 
ATOM     22  C   UNL     1      -0.063  11.653  21.642  0.00  0.00    +0.000 C 
ATOM     23  C   UNL     1       0.214  11.191  20.213  0.00  0.00    +0.000 C 
ENDBRANCH  13  14
ENDBRANCH  10  13
TORSDOF 2
ENDMDL
MODEL 3
REMARK VINA RESULT:      -7.3      0.931      1.773
REMARK  Name = 
REMARK  3 active torsions:
REMARK  status: ('A' for Active; 'I' for Inactive)
REMARK    1  A    between atoms: C_1  and  C_2
REMARK    2  A    between atoms: N_10  and  C_11
REMARK    3  A    between atoms: C_11  and  C_12
REMARK                            x       y       z     vdW  Elec       q    Type
REMARK                         _______ _______ _______ _____ _____    ______ ____
ROOT
ATOM      1  C   UNL     1       2.328   3.124  21.208  0.00  0.00    +0.000 C 
ATOM      2  C   UNL     1       1.920   3.596  19.809  0.00  0.00    +0.000 C 
ATOM      3  C   UNL     1       1.418   2.421  18.931  0.00  0.00    +0.000 C 
ATOM      4  N   UNL     1       2.480   1.472  18.558  0.00  0.00    +0.000 NA
ATOM      5  C   UNL     1       3.573   2.192  17.878  0.00  0.00    +0.000 C 
ATOM      6  C   UNL     1       4.118   3.385  18.687  0.00  0.00    +0.000 C 
ATOM      7  N   UNL     1       3.033   4.284  19.118  0.00  0.00    +0.000 N 
ATOM      8  C   UNL     1       3.167   5.631  18.875  0.00  0.00    +0.000 C 
ATOM      9  O   UNL     1       4.152   6.105  18.307  0.00  0.00    +0.000 OA
ATOM     10  N   UNL     1       2.144   6.438  19.301  0.00  0.00    +0.000 N 
ATOM     11  H   UNL     1       2.098   0.774  17.920  0.00  0.00    +0.000 HD
ATOM     12  H   UNL     1       1.222   6.070  19.406  0.00  0.00    +0.000 HD
ENDROOT
BRANCH  10  13
ATOM     13  C   UNL     1       2.217   7.874  19.096  0.00  0.00    +0.000 C 
BRANCH  13  14
ATOM     14  C   UNL     1       1.400   8.651  20.101  0.00  0.00    +0.000 A 
ATOM     15  C   UNL     1       1.342   8.222  21.422  0.00  0.00    +0.000 A 
ATOM     16  C   UNL     1       0.581   8.947  22.330  0.00  0.00    +0.000 A 
ATOM     17  C   UNL     1      -0.114  10.081  21.909  0.00  0.00    +0.000 A 
ATOM     18  C   UNL     1       0.024  10.471  20.572  0.00  0.00    +0.000 A 
ATOM     19  N   UNL     1       0.747   9.761  19.665  0.00  0.00    +0.000 NA
ATOM     20  C   UNL     1      -0.669  11.706  20.050  0.00  0.00    +0.000 C 
ATOM     21  C   UNL     1      -1.106  12.664  21.158  0.00  0.00    +0.000 C 
ATOM     22  C   UNL     1      -1.849  11.898  22.245  0.00  0.00    +0.000 C 
ATOM     23  C   UNL     1      -0.923  10.875  22.900  0.00  0.00    +0.000 C 
ENDBRANCH  13  14
ENDBRANCH  10  13
TORSDOF 2
ENDMDL
MODEL 4
REMARK VINA RESULT:      -7.3      2.671      4.077
REMARK  Name = 
REMARK  3 active torsions:
REMARK  status: ('A' for Active; 'I' for Inactive)
REMARK    1  A    between atoms: C_1  and  C_2
REMARK    2  A    between atoms: N_10  and  C_11
REMARK    3  A    between atoms: C_11  and  C_12
REMARK                            x       y       z     vdW  Elec       q    Type
REMARK                         _______ _______ _______ _____ _____    ______ ____
ROOT
ATOM      1  C   UNL     1       6.822   7.235  17.402  0.00  0.00    +0.000 C 
ATOM      2  C   UNL     1       6.446   5.857  17.955  0.00  0.00    +0.000 C 
ATOM      3  C   UNL     1       7.568   4.815  17.711  0.00  0.00    +0.000 C 
ATOM      4  N   UNL     1       7.740   4.459  16.292  0.00  0.00    +0.000 NA
ATOM      5  C   UNL     1       6.459   3.975  15.743  0.00  0.00    +0.000 C 
ATOM      6  C   UNL     1       5.290   4.955  15.959  0.00  0.00    +0.000 C 
ATOM      7  N   UNL     1       5.180   5.360  17.371  0.00  0.00    +0.000 N 
ATOM      8  C   UNL     1       3.951   5.273  17.982  0.00  0.00    +0.000 C 
ATOM      9  O   UNL     1       2.949   4.863  17.393  0.00  0.00    +0.000 OA
ATOM     10  N   UNL     1       3.884   5.671  19.291  0.00  0.00    +0.000 N 
ATOM     11  H   UNL     1       8.435   3.717  16.214  0.00  0.00    +0.000 HD
ATOM     12  H   UNL     1       4.697   5.641  19.869  0.00  0.00    +0.000 HD
ENDROOT
BRANCH  10  13
ATOM     13  C   UNL     1       2.619   5.623  20.003  0.00  0.00    +0.000 C 
BRANCH  13  14
ATOM     14  C   UNL     1       1.959   6.976  20.115  0.00  0.00    +0.000 A 
ATOM     15  C   UNL     1       1.193   7.279  21.235  0.00  0.00    +0.000 A 
ATOM     16  C   UNL     1       0.590   8.528  21.318  0.00  0.00    +0.000 A 
ATOM     17  C   UNL     1       0.751   9.451  20.285  0.00  0.00    +0.000 A 
ATOM     18  C   UNL     1       1.567   9.086  19.207  0.00  0.00    +0.000 A 
ATOM     19  N   UNL     1       2.147   7.861  19.100  0.00  0.00    +0.000 NA
ATOM     20  C   UNL     1       1.817  10.043  18.068  0.00  0.00    +0.000 C 
ATOM     21  C   UNL     1       1.503  11.496  18.422  0.00  0.00    +0.000 C 
ATOM     22  C   UNL     1       0.127  11.587  19.072  0.00  0.00    +0.000 C 
ATOM     23  C   UNL     1       0.111  10.809  20.386  0.00  0.00    +0.000 C 
ENDBRANCH  13  14
ENDBRANCH  10  13
TORSDOF 2
ENDMDL
MODEL 5
REMARK VINA RESULT:      -7.2      1.925      2.934
REMARK  Name = 
REMARK  3 active torsions:
REMARK  status: ('A' for Active; 'I' for Inactive)
REMARK    1  A    between atoms: C_1  and  C_2
REMARK    2  A    between atoms: N_10  and  C_11
REMARK    3  A    between atoms: C_11  and  C_12
REMARK                            x       y       z     vdW  Elec       q    Type
REMARK                         _______ _______ _______ _____ _____    ______ ____
ROOT
ATOM      1  C   UNL     1       4.135   5.751  17.249  0.00  0.00    +0.000 C 
ATOM      2  C   UNL     1       4.315   5.706  18.770  0.00  0.00    +0.000 C 
ATOM      3  C   UNL     1       5.613   4.959  19.172  0.00  0.00    +0.000 C 
ATOM      4  N   UNL     1       5.566   3.513  18.899  0.00  0.00    +0.000 NA
ATOM      5  C   UNL     1       4.398   2.918  19.576  0.00  0.00    +0.000 C 
ATOM      6  C   UNL     1       3.068   3.617  19.233  0.00  0.00    +0.000 C 
ATOM      7  N   UNL     1       3.157   5.074  19.439  0.00  0.00    +0.000 N 
ATOM      8  C   UNL     1       2.174   5.689  20.179  0.00  0.00    +0.000 C 
ATOM      9  O   UNL     1       1.236   5.067  20.678  0.00  0.00    +0.000 OA
ATOM     10  N   UNL     1       2.283   7.046  20.338  0.00  0.00    +0.000 N 
ATOM     11  H   UNL     1       6.414   3.076  19.258  0.00  0.00    +0.000 HD
ATOM     12  H   UNL     1       3.175   7.490  20.282  0.00  0.00    +0.000 HD
ENDROOT
BRANCH  10  13
ATOM     13  C   UNL     1       1.278   7.772  21.094  0.00  0.00    +0.000 C 
BRANCH  13  14
ATOM     14  C   UNL     1       0.856   9.057  20.422  0.00  0.00    +0.000 A 
ATOM     15  C   UNL     1       1.274   9.326  19.124  0.00  0.00    +0.000 A 
ATOM     16  C   UNL     1       0.879  10.516  18.525  0.00  0.00    +0.000 A 
ATOM     17  C   UNL     1       0.082  11.420  19.228  0.00  0.00    +0.000 A 
ATOM     18  C   UNL     1      -0.329  11.062  20.518  0.00  0.00    +0.000 A 
ATOM     19  N   UNL     1       0.066   9.911  21.126  0.00  0.00    +0.000 NA
ATOM     20  C   UNL     1      -1.219  11.971  21.327  0.00  0.00    +0.000 C 
ATOM     21  C   UNL     1      -1.950  13.011  20.477  0.00  0.00    +0.000 C 
ATOM     22  C   UNL     1      -0.965  13.706  19.546  0.00  0.00    +0.000 C 
ATOM     23  C   UNL     1      -0.358  12.701  18.570  0.00  0.00    +0.000 C 
ENDBRANCH  13  14
ENDBRANCH  10  13
TORSDOF 2
ENDMDL
MODEL 6
REMARK VINA RESULT:      -7.2      2.000      3.042
REMARK  Name = 
REMARK  3 active torsions:
REMARK  status: ('A' for Active; 'I' for Inactive)
REMARK    1  A    between atoms: C_1  and  C_2
REMARK    2  A    between atoms: N_10  and  C_11
REMARK    3  A    between atoms: C_11  and  C_12
REMARK                            x       y       z     vdW  Elec       q    Type
REMARK                         _______ _______ _______ _____ _____    ______ ____
ROOT
ATOM      1  C   UNL     1       6.045   5.710  16.592  0.00  0.00    +0.000 C 
ATOM      2  C   UNL     1       5.326   5.901  17.931  0.00  0.00    +0.000 C 
ATOM      3  C   UNL     1       6.002   5.090  19.066  0.00  0.00    +0.000 C 
ATOM      4  N   UNL     1       5.843   3.633  18.921  0.00  0.00    +0.000 NA
ATOM      5  C   UNL     1       4.409   3.297  18.831  0.00  0.00    +0.000 C 
ATOM      6  C   UNL     1       3.665   4.076  17.729  0.00  0.00    +0.000 C 
ATOM      7  N   UNL     1       3.898   5.526  17.844  0.00  0.00    +0.000 N 
ATOM      8  C   UNL     1       2.808   6.365  17.826  0.00  0.00    +0.000 C 
ATOM      9  O   UNL     1       1.654   5.947  17.726  0.00  0.00    +0.000 OA
ATOM     10  N   UNL     1       3.064   7.708  17.920  0.00  0.00    +0.000 N 
ATOM     11  H   UNL     1       6.240   3.169  19.738  0.00  0.00    +0.000 HD
ATOM     12  H   UNL     1       3.898   8.033  18.363  0.00  0.00    +0.000 HD
ENDROOT
BRANCH  10  13
ATOM     13  C   UNL     1       1.968   8.661  17.894  0.00  0.00    +0.000 C 
BRANCH  13  14
ATOM     14  C   UNL     1       1.410   8.951  19.266  0.00  0.00    +0.000 A 
ATOM     15  C   UNL     1       1.674   8.078  20.316  0.00  0.00    +0.000 A 
ATOM     16  C   UNL     1       1.147   8.359  21.570  0.00  0.00    +0.000 A 
ATOM     17  C   UNL     1       0.362   9.497  21.758  0.00  0.00    +0.000 A 
ATOM     18  C   UNL     1       0.171  10.346  20.662  0.00  0.00    +0.000 A 
ATOM     19  N   UNL     1       0.662  10.075  19.423  0.00  0.00    +0.000 NA
ATOM     20  C   UNL     1      -0.637  11.613  20.796  0.00  0.00    +0.000 C 
ATOM     21  C   UNL     1      -0.804  12.071  22.245  0.00  0.00    +0.000 C 
ATOM     22  C   UNL     1      -1.258  10.902  23.110  0.00  0.00    +0.000 C 
ATOM     23  C   UNL     1      -0.193   9.807  23.123  0.00  0.00    +0.000 C 
ENDBRANCH  13  14
ENDBRANCH  10  13
TORSDOF 2
ENDMDL
MODEL 7
REMARK VINA RESULT:      -7.2      2.556      7.889
REMARK  Name = 
REMARK  3 active torsions:
REMARK  status: ('A' for Active; 'I' for Inactive)
REMARK    1  A    between atoms: C_1  and  C_2
REMARK    2  A    between atoms: N_10  and  C_11
REMARK    3  A    between atoms: C_11  and  C_12
REMARK                            x       y       z     vdW  Elec       q    Type
REMARK                         _______ _______ _______ _____ _____    ______ ____
ROOT
ATOM      1  C   UNL     1       1.658  12.595  18.542  0.00  0.00    +0.000 C 
ATOM      2  C   UNL     1       0.467  11.735  18.974  0.00  0.00    +0.000 C 
ATOM      3  C   UNL     1      -0.878  12.329  18.481  0.00  0.00    +0.000 C 
ATOM      4  N   UNL     1      -1.244  13.588  19.151  0.00  0.00    +0.000 NA
ATOM      5  C   UNL     1      -1.276  13.382  20.611  0.00  0.00    +0.000 C 
ATOM      6  C   UNL     1       0.026  12.781  21.175  0.00  0.00    +0.000 C 
ATOM      7  N   UNL     1       0.418  11.564  20.442  0.00  0.00    +0.000 N 
ATOM      8  C   UNL     1       0.723  10.436  21.168  0.00  0.00    +0.000 C 
ATOM      9  O   UNL     1       0.671  10.408  22.398  0.00  0.00    +0.000 OA
ATOM     10  N   UNL     1       1.097   9.327  20.454  0.00  0.00    +0.000 N 
ATOM     11  H   UNL     1      -2.170  13.878  18.838  0.00  0.00    +0.000 HD
ATOM     12  H   UNL     1       0.794   9.210  19.510  0.00  0.00    +0.000 HD
ENDROOT
BRANCH  10  13
ATOM     13  C   UNL     1       1.449   8.100  21.146  0.00  0.00    +0.000 C 
BRANCH  13  14
ATOM     14  C   UNL     1       1.794   6.974  20.203  0.00  0.00    +0.000 A 
ATOM     15  C   UNL     1       2.386   7.257  18.977  0.00  0.00    +0.000 A 
ATOM     16  C   UNL     1       2.691   6.207  18.121  0.00  0.00    +0.000 A 
ATOM     17  C   UNL     1       2.397   4.895  18.493  0.00  0.00    +0.000 A 
ATOM     18  C   UNL     1       1.834   4.686  19.758  0.00  0.00    +0.000 A 
ATOM     19  N   UNL     1       1.510   5.705  20.599  0.00  0.00    +0.000 NA
ATOM     20  C   UNL     1       1.520   3.294  20.245  0.00  0.00    +0.000 C 
ATOM     21  C   UNL     1       2.261   2.203  19.472  0.00  0.00    +0.000 C 
ATOM     22  C   UNL     1       2.105   2.431  17.973  0.00  0.00    +0.000 C 
ATOM     23  C   UNL     1       2.745   3.758  17.570  0.00  0.00    +0.000 C 
ENDBRANCH  13  14
ENDBRANCH  10  13
TORSDOF 2
ENDMDL
MODEL 8
REMARK VINA RESULT:      -7.2      2.445      3.484
REMARK  Name = 
REMARK  3 active torsions:
REMARK  status: ('A' for Active; 'I' for Inactive)
REMARK    1  A    between atoms: C_1  and  C_2
REMARK    2  A    between atoms: N_10  and  C_11
REMARK    3  A    between atoms: C_11  and  C_12
REMARK                            x       y       z     vdW  Elec       q    Type
REMARK                         _______ _______ _______ _____ _____    ______ ____
ROOT
ATOM      1  C   UNL     1       5.056   6.314  15.685  0.00  0.00    +0.000 C 
ATOM      2  C   UNL     1       5.443   6.664  17.125  0.00  0.00    +0.000 C 
ATOM      3  C   UNL     1       6.935   7.069  17.236  0.00  0.00    +0.000 C 
ATOM      4  N   UNL     1       7.865   5.951  17.009  0.00  0.00    +0.000 NA
ATOM      5  C   UNL     1       7.559   4.852  17.945  0.00  0.00    +0.000 C 
ATOM      6  C   UNL     1       6.086   4.401  17.900  0.00  0.00    +0.000 C 
ATOM      7  N   UNL     1       5.168   5.544  18.053  0.00  0.00    +0.000 N 
ATOM      8  C   UNL     1       4.161   5.452  18.985  0.00  0.00    +0.000 C 
ATOM      9  O   UNL     1       4.007   4.458  19.695  0.00  0.00    +0.000 OA
ATOM     10  N   UNL     1       3.319   6.528  19.089  0.00  0.00    +0.000 N 
ATOM     11  H   UNL     1       8.820   6.269  17.174  0.00  0.00    +0.000 HD
ATOM     12  H   UNL     1       3.629   7.438  18.823  0.00  0.00    +0.000 HD
ENDROOT
BRANCH  10  13
ATOM     13  C   UNL     1       2.220   6.503  20.038  0.00  0.00    +0.000 C 
BRANCH  13  14
ATOM     14  C   UNL     1       1.581   7.857  20.230  0.00  0.00    +0.000 A 
ATOM     15  C   UNL     1       1.566   8.767  19.179  0.00  0.00    +0.000 A 
ATOM     16  C   UNL     1       0.977  10.010  19.377  0.00  0.00    +0.000 A 
ATOM     17  C   UNL     1       0.420  10.329  20.615  0.00  0.00    +0.000 A 
ATOM     18  C   UNL     1       0.441   9.347  21.612  0.00  0.00    +0.000 A 
ATOM     19  N   UNL     1       1.032   8.134  21.442  0.00  0.00    +0.000 NA
ATOM     20  C   UNL     1      -0.172   9.605  22.966  0.00  0.00    +0.000 C 
ATOM     21  C   UNL     1      -1.155  10.775  22.969  0.00  0.00    +0.000 C 
ATOM     22  C   UNL     1      -0.527  11.984  22.286  0.00  0.00    +0.000 C 
ATOM     23  C   UNL     1      -0.233  11.670  20.820  0.00  0.00    +0.000 C 
ENDBRANCH  13  14
ENDBRANCH  10  13
TORSDOF 2
ENDMDL
MODEL 9
REMARK VINA RESULT:      -7.1      1.785      2.665
REMARK  Name = 
REMARK  3 active torsions:
REMARK  status: ('A' for Active; 'I' for Inactive)
REMARK    1  A    between atoms: C_1  and  C_2
REMARK    2  A    between atoms: N_10  and  C_11
REMARK    3  A    between atoms: C_11  and  C_12
REMARK                            x       y       z     vdW  Elec       q    Type
REMARK                         _______ _______ _______ _____ _____    ______ ____
ROOT
ATOM      1  C   UNL     1       1.916   4.048  20.857  0.00  0.00    +0.000 C 
ATOM      2  C   UNL     1       1.661   4.326  19.373  0.00  0.00    +0.000 C 
ATOM      3  C   UNL     1       1.126   3.070  18.637  0.00  0.00    +0.000 C 
ATOM      4  N   UNL     1       2.126   1.997  18.506  0.00  0.00    +0.000 NA
ATOM      5  C   UNL     1       3.328   2.520  17.827  0.00  0.00    +0.000 C 
ATOM      6  C   UNL     1       3.911   3.779  18.496  0.00  0.00    +0.000 C 
ATOM      7  N   UNL     1       2.880   4.813  18.690  0.00  0.00    +0.000 N 
ATOM      8  C   UNL     1       3.150   6.092  18.263  0.00  0.00    +0.000 C 
ATOM      9  O   UNL     1       4.213   6.397  17.722  0.00  0.00    +0.000 OA
ATOM     10  N   UNL     1       2.173   7.030  18.472  0.00  0.00    +0.000 N 
ATOM     11  H   UNL     1       1.734   1.240  17.947  0.00  0.00    +0.000 HD
ATOM     12  H   UNL     1       1.216   6.754  18.547  0.00  0.00    +0.000 HD
ENDROOT
BRANCH  10  13
ATOM     13  C   UNL     1       2.386   8.407  18.063  0.00  0.00    +0.000 C 
BRANCH  13  14
ATOM     14  C   UNL     1       1.208   9.299  18.371  0.00  0.00    +0.000 A 
ATOM     15  C   UNL     1       1.245  10.130  19.485  0.00  0.00    +0.000 A 
ATOM     16  C   UNL     1       0.149  10.941  19.755  0.00  0.00    +0.000 A 
ATOM     17  C   UNL     1      -0.967  10.906  18.918  0.00  0.00    +0.000 A 
ATOM     18  C   UNL     1      -0.914  10.070  17.796  0.00  0.00    +0.000 A 
ATOM     19  N   UNL     1       0.142   9.256  17.529  0.00  0.00    +0.000 NA
ATOM     20  C   UNL     1      -2.068  10.004  16.826  0.00  0.00    +0.000 C 
ATOM     21  C   UNL     1      -3.013  11.201  16.932  0.00  0.00    +0.000 C 
ATOM     22  C   UNL     1      -3.387  11.440  18.389  0.00  0.00    +0.000 C 
ATOM     23  C   UNL     1      -2.146  11.798  19.203  0.00  0.00    +0.000 C 
ENDBRANCH  13  14
ENDBRANCH  10  13
TORSDOF 2
ENDMDL
