MODEL 1
REMARK VINA RESULT:      -7.3      0.000      0.000
REMARK  Name = 
REMARK  7 active torsions:
REMARK  status: ('A' for Active; 'I' for Inactive)
REMARK    1  A    between atoms: C_1  and  O_2
REMARK    2  A    between atoms: O_2  and  C_3
REMARK    3  A    between atoms: C_6  and  C_7
REMARK    4  A    between atoms: C_9  and  C_10
REMARK    5  A    between atoms: N_17  and  C_18
REMARK    6  A    between atoms: C_21  and  C_22
REMARK    7  A    between atoms: C_22  and  O_24
REMARK                            x       y       z     vdW  Elec       q    Type
REMARK                         _______ _______ _______ _____ _____    ______ ____
ROOT
ATOM      1  C   UNL     1      -0.443  10.563  20.523  0.00  0.00    +0.000 A 
ATOM      2  C   UNL     1      -0.518  11.079  21.803  0.00  0.00    +0.000 A 
ATOM      3  C   UNL     1      -1.500  12.095  21.772  0.00  0.00    +0.000 A 
ATOM      4  N   UNL     1      -1.988  12.239  20.533  0.00  0.00    +0.000 NA
ATOM      5  N   UNL     1      -1.448  11.225  19.814  0.00  0.00    +0.000 N 
ENDROOT
BRANCH   1   9
ATOM      6  C   UNL     1       2.351   7.723  18.939  0.00  0.00    +0.000 A 
ATOM      7  C   UNL     1       1.862   7.584  20.240  0.00  0.00    +0.000 A 
ATOM      8  C   UNL     1       0.935   8.499  20.755  0.00  0.00    +0.000 A 
ATOM      9  C   UNL     1       0.519   9.593  19.986  0.00  0.00    +0.000 A 
ATOM     10  C   UNL     1       1.063   9.749  18.705  0.00  0.00    +0.000 A 
ATOM     11  C   UNL     1       1.938   8.805  18.168  0.00  0.00    +0.000 A 
BRANCH   6  13
ATOM     12  C   UNL     1       3.501   5.734  19.471  0.00  0.00    +0.000 C 
ATOM     13  O   UNL     1       3.259   6.784  18.541  0.00  0.00    +0.000 OA
ENDBRANCH   6  13
ENDBRANCH   1   9
BRANCH   3  14
ATOM     14  C   UNL     1      -1.969  12.914  22.887  0.00  0.00    +0.000 A 
ATOM     15  C   UNL     1      -3.219  12.681  23.481  0.00  0.00    +0.000 A 
ATOM     16  C   UNL     1      -3.667  13.495  24.523  0.00  0.00    +0.000 A 
ATOM     17  C   UNL     1      -2.877  14.549  24.978  0.00  0.00    +0.000 A 
ATOM     18  C   UNL     1      -1.635  14.791  24.393  0.00  0.00    +0.000 A 
ATOM     19  C   UNL     1      -1.182  13.976  23.356  0.00  0.00    +0.000 A 
ENDBRANCH   3  14
BRANCH   5  20
ATOM     20  C   UNL     1      -1.966  10.946  18.514  0.00  0.00    +0.000 A 
ATOM     21  C   UNL     1      -1.854  11.904  17.499  0.00  0.00    +0.000 A 
ATOM     22  C   UNL     1      -2.296  11.599  16.207  0.00  0.00    +0.000 A 
ATOM     23  C   UNL     1      -2.867  10.350  15.925  0.00  0.00    +0.000 A 
ATOM     24  C   UNL     1      -2.988   9.398  16.946  0.00  0.00    +0.000 A 
ATOM     25  C   UNL     1      -2.566   9.710  18.235  0.00  0.00    +0.000 A 
BRANCH  23  26
ATOM     26  C   UNL     1      -3.294  10.059  14.538  0.00  0.00    +0.000 C 
ATOM     27  O   UNL     1      -2.492   9.829  13.645  0.00  0.00    +0.000 OA
BRANCH  26  28
ATOM     28  O   UNL     1      -4.625  10.097  14.327  0.00  0.00    +0.000 OA
ATOM     29  H   UNL     1      -5.151   9.469  14.858  0.00  0.00    +0.000 HD
ENDBRANCH  26  28
ENDBRANCH  23  26
ENDBRANCH   5  20
TORSDOF 6
ENDMDL
MODEL 2
REMARK VINA RESULT:      -7.3      3.708      6.117
REMARK  Name = 
REMARK  7 active torsions:
REMARK  status: ('A' for Active; 'I' for Inactive)
REMARK    1  A    between atoms: C_1  and  O_2
REMARK    2  A    between atoms: O_2  and  C_3
REMARK    3  A    between atoms: C_6  and  C_7
REMARK    4  A    between atoms: C_9  and  C_10
REMARK    5  A    between atoms: N_17  and  C_18
REMARK    6  A    between atoms: C_21  and  C_22
REMARK    7  A    between atoms: C_22  and  O_24
REMARK                            x       y       z     vdW  Elec       q    Type
REMARK                         _______ _______ _______ _____ _____    ______ ____
ROOT
ATOM      1  C   UNL     1      -0.069  12.241  19.209  0.00  0.00    +0.000 A 
ATOM      2  C   UNL     1      -1.334  12.797  19.251  0.00  0.00    +0.000 A 
ATOM      3  C   UNL     1      -2.240  11.762  18.932  0.00  0.00    +0.000 A 
ATOM      4  N   UNL     1      -1.582  10.626  18.666  0.00  0.00    +0.000 NA
ATOM      5  N   UNL     1      -0.286  10.883  18.965  0.00  0.00    +0.000 N 
ENDROOT
BRANCH   1   9
ATOM      6  C   UNL     1       3.709  14.242  19.535  0.00  0.00    +0.000 A 
ATOM      7  C   UNL     1       3.210  13.872  18.284  0.00  0.00    +0.000 A 
ATOM      8  C   UNL     1       1.969  13.235  18.171  0.00  0.00    +0.000 A 
ATOM      9  C   UNL     1       1.228  12.919  19.317  0.00  0.00    +0.000 A 
ATOM     10  C   UNL     1       1.769  13.246  20.567  0.00  0.00    +0.000 A 
ATOM     11  C   UNL     1       2.977  13.936  20.677  0.00  0.00    +0.000 A 
BRANCH   6  13
ATOM     12  C   UNL     1       5.501  15.075  18.247  0.00  0.00    +0.000 C 
ATOM     13  O   UNL     1       4.934  14.845  19.532  0.00  0.00    +0.000 OA
ENDBRANCH   6  13
ENDBRANCH   1   9
BRANCH   3  14
ATOM     14  C   UNL     1      -3.698  11.839  18.880  0.00  0.00    +0.000 A 
ATOM     15  C   UNL     1      -4.420  11.228  17.843  0.00  0.00    +0.000 A 
ATOM     16  C   UNL     1      -5.811  11.340  17.790  0.00  0.00    +0.000 A 
ATOM     17  C   UNL     1      -6.492  12.065  18.765  0.00  0.00    +0.000 A 
ATOM     18  C   UNL     1      -5.785  12.678  19.798  0.00  0.00    +0.000 A 
ATOM     19  C   UNL     1      -4.397  12.563  19.858  0.00  0.00    +0.000 A 
ENDBRANCH   3  14
BRANCH   5  20
ATOM     20  C   UNL     1       0.638   9.798  19.031  0.00  0.00    +0.000 A 
ATOM     21  C   UNL     1       0.846   9.133  20.245  0.00  0.00    +0.000 A 
ATOM     22  C   UNL     1       1.695   8.022  20.290  0.00  0.00    +0.000 A 
ATOM     23  C   UNL     1       2.355   7.582  19.134  0.00  0.00    +0.000 A 
ATOM     24  C   UNL     1       2.154   8.256  17.922  0.00  0.00    +0.000 A 
ATOM     25  C   UNL     1       1.323   9.373  17.884  0.00  0.00    +0.000 A 
BRANCH  23  26
ATOM     26  C   UNL     1       3.222   6.385  19.222  0.00  0.00    +0.000 C 
ATOM     27  O   UNL     1       3.951   6.042  18.303  0.00  0.00    +0.000 OA
BRANCH  26  28
ATOM     28  O   UNL     1       3.125   5.689  20.371  0.00  0.00    +0.000 OA
ATOM     29  H   UNL     1       3.862   5.812  20.999  0.00  0.00    +0.000 HD
ENDBRANCH  26  28
ENDBRANCH  23  26
ENDBRANCH   5  20
TORSDOF 6
ENDMDL
MODEL 3
REMARK VINA RESULT:      -7.2      0.136      1.295
REMARK  Name = 
REMARK  7 active torsions:
REMARK  status: ('A' for Active; 'I' for Inactive)
REMARK    1  A    between atoms: C_1  and  O_2
REMARK    2  A    between atoms: O_2  and  C_3
REMARK    3  A    between atoms: C_6  and  C_7
REMARK    4  A    between atoms: C_9  and  C_10
REMARK    5  A    between atoms: N_17  and  C_18
REMARK    6  A    between atoms: C_21  and  C_22
REMARK    7  A    between atoms: C_22  and  O_24
REMARK                            x       y       z     vdW  Elec       q    Type
REMARK                         _______ _______ _______ _____ _____    ______ ____
ROOT
ATOM      1  C   UNL     1      -0.502  10.631  20.599  0.00  0.00    +0.000 A 
ATOM      2  C   UNL     1      -0.582  11.170  21.869  0.00  0.00    +0.000 A 
ATOM      3  C   UNL     1      -1.554  12.194  21.812  0.00  0.00    +0.000 A 
ATOM      4  N   UNL     1      -2.031  12.321  20.568  0.00  0.00    +0.000 NA
ATOM      5  N   UNL     1      -1.495  11.290  19.870  0.00  0.00    +0.000 N 
ENDROOT
BRANCH   1   9
ATOM      6  C   UNL     1       2.311   7.753  19.121  0.00  0.00    +0.000 A 
ATOM      7  C   UNL     1       1.871   8.796  18.303  0.00  0.00    +0.000 A 
ATOM      8  C   UNL     1       0.966   9.748  18.787  0.00  0.00    +0.000 A 
ATOM      9  C   UNL     1       0.456   9.644  20.087  0.00  0.00    +0.000 A 
ATOM     10  C   UNL     1       0.864   8.560  20.875  0.00  0.00    +0.000 A 
ATOM     11  C   UNL     1       1.813   7.645  20.415  0.00  0.00    +0.000 A 
BRANCH   6  13
ATOM     12  C   UNL     1       3.391   5.661  19.263  0.00  0.00    +0.000 C 
ATOM     13  O   UNL     1       3.183   6.873  18.546  0.00  0.00    +0.000 OA
ENDBRANCH   6  13
ENDBRANCH   1   9
BRANCH   3  14
ATOM     14  C   UNL     1      -2.026  13.036  22.909  0.00  0.00    +0.000 A 
ATOM     15  C   UNL     1      -1.221  14.059  23.435  0.00  0.00    +0.000 A 
ATOM     16  C   UNL     1      -1.673  14.833  24.505  0.00  0.00    +0.000 A 
ATOM     17  C   UNL     1      -2.927  14.592  25.063  0.00  0.00    +0.000 A 
ATOM     18  C   UNL     1      -3.733  13.576  24.550  0.00  0.00    +0.000 A 
ATOM     19  C   UNL     1      -3.287  12.806  23.477  0.00  0.00    +0.000 A 
ENDBRANCH   3  14
BRANCH   5  20
ATOM     20  C   UNL     1      -2.005  10.993  18.571  0.00  0.00    +0.000 A 
ATOM     21  C   UNL     1      -1.803  11.896  17.520  0.00  0.00    +0.000 A 
ATOM     22  C   UNL     1      -2.239  11.568  16.232  0.00  0.00    +0.000 A 
ATOM     23  C   UNL     1      -2.892  10.352  15.989  0.00  0.00    +0.000 A 
ATOM     24  C   UNL     1      -3.103   9.455  17.044  0.00  0.00    +0.000 A 
ATOM     25  C   UNL     1      -2.685   9.792  18.329  0.00  0.00    +0.000 A 
BRANCH  23  26
ATOM     26  C   UNL     1      -3.310  10.034  14.605  0.00  0.00    +0.000 C 
ATOM     27  O   UNL     1      -2.506   9.921  13.692  0.00  0.00    +0.000 OA
BRANCH  26  28
ATOM     28  O   UNL     1      -4.639   9.907  14.422  0.00  0.00    +0.000 OA
ATOM     29  H   UNL     1      -5.093  10.703  14.083  0.00  0.00    +0.000 HD
ENDBRANCH  26  28
ENDBRANCH  23  26
ENDBRANCH   5  20
TORSDOF 6
ENDMDL
MODEL 4
REMARK VINA RESULT:      -7.1      0.334      1.141
REMARK  Name = 
REMARK  7 active torsions:
REMARK  status: ('A' for Active; 'I' for Inactive)
REMARK    1  A    between atoms: C_1  and  O_2
REMARK    2  A    between atoms: O_2  and  C_3
REMARK    3  A    between atoms: C_6  and  C_7
REMARK    4  A    between atoms: C_9  and  C_10
REMARK    5  A    between atoms: N_17  and  C_18
REMARK    6  A    between atoms: C_21  and  C_22
REMARK    7  A    between atoms: C_22  and  O_24
REMARK                            x       y       z     vdW  Elec       q    Type
REMARK                         _______ _______ _______ _____ _____    ______ ____
ROOT
ATOM      1  C   UNL     1      -0.503  10.598  20.423  0.00  0.00    +0.000 A 
ATOM      2  C   UNL     1      -0.578  11.117  21.702  0.00  0.00    +0.000 A 
ATOM      3  C   UNL     1      -1.574  12.119  21.674  0.00  0.00    +0.000 A 
ATOM      4  N   UNL     1      -2.072  12.252  20.438  0.00  0.00    +0.000 NA
ATOM      5  N   UNL     1      -1.522  11.244  19.718  0.00  0.00    +0.000 N 
ENDROOT
BRANCH   1   9
ATOM      6  C   UNL     1       2.322   7.793  18.833  0.00  0.00    +0.000 A 
ATOM      7  C   UNL     1       1.886   7.685  20.155  0.00  0.00    +0.000 A 
ATOM      8  C   UNL     1       0.950   8.588  20.673  0.00  0.00    +0.000 A 
ATOM      9  C   UNL     1       0.470   9.641  19.884  0.00  0.00    +0.000 A 
ATOM     10  C   UNL     1       0.960   9.768  18.578  0.00  0.00    +0.000 A 
ATOM     11  C   UNL     1       1.846   8.832  18.041  0.00  0.00    +0.000 A 
BRANCH   6  13
ATOM     12  C   UNL     1       2.722   5.593  18.080  0.00  0.00    +0.000 C 
ATOM     13  O   UNL     1       3.245   6.869  18.433  0.00  0.00    +0.000 OA
ENDBRANCH   6  13
ENDBRANCH   1   9
BRANCH   3  14
ATOM     14  C   UNL     1      -2.049  12.935  22.788  0.00  0.00    +0.000 A 
ATOM     15  C   UNL     1      -1.255  13.959  23.326  0.00  0.00    +0.000 A 
ATOM     16  C   UNL     1      -1.710  14.707  24.414  0.00  0.00    +0.000 A 
ATOM     17  C   UNL     1      -2.956  14.438  24.977  0.00  0.00    +0.000 A 
ATOM     18  C   UNL     1      -3.751  13.420  24.452  0.00  0.00    +0.000 A 
ATOM     19  C   UNL     1      -3.302  12.676  23.362  0.00  0.00    +0.000 A 
ENDBRANCH   3  14
BRANCH   5  20
ATOM     20  C   UNL     1      -2.043  10.953  18.422  0.00  0.00    +0.000 A 
ATOM     21  C   UNL     1      -1.868  11.870  17.379  0.00  0.00    +0.000 A 
ATOM     22  C   UNL     1      -2.315  11.549  16.092  0.00  0.00    +0.000 A 
ATOM     23  C   UNL     1      -2.953  10.327  15.844  0.00  0.00    +0.000 A 
ATOM     24  C   UNL     1      -3.138   9.415  16.892  0.00  0.00    +0.000 A 
ATOM     25  C   UNL     1      -2.709   9.745  18.175  0.00  0.00    +0.000 A 
BRANCH  23  26
ATOM     26  C   UNL     1      -3.384  10.016  14.462  0.00  0.00    +0.000 C 
ATOM     27  O   UNL     1      -4.557   9.833  14.172  0.00  0.00    +0.000 OA
BRANCH  26  28
ATOM     28  O   UNL     1      -2.389   9.922  13.558  0.00  0.00    +0.000 OA
ATOM     29  H   UNL     1      -1.621   9.387  13.835  0.00  0.00    +0.000 HD
ENDBRANCH  26  28
ENDBRANCH  23  26
ENDBRANCH   5  20
TORSDOF 6
ENDMDL
MODEL 5
REMARK VINA RESULT:      -7.1      0.475      1.031
REMARK  Name = 
REMARK  7 active torsions:
REMARK  status: ('A' for Active; 'I' for Inactive)
REMARK    1  A    between atoms: C_1  and  O_2
REMARK    2  A    between atoms: O_2  and  C_3
REMARK    3  A    between atoms: C_6  and  C_7
REMARK    4  A    between atoms: C_9  and  C_10
REMARK    5  A    between atoms: N_17  and  C_18
REMARK    6  A    between atoms: C_21  and  C_22
REMARK    7  A    between atoms: C_22  and  O_24
REMARK                            x       y       z     vdW  Elec       q    Type
REMARK                         _______ _______ _______ _____ _____    ______ ____
ROOT
ATOM      1  C   UNL     1      -0.459  10.481  20.798  0.00  0.00    +0.000 A 
ATOM      2  C   UNL     1      -0.604  11.015  22.065  0.00  0.00    +0.000 A 
ATOM      3  C   UNL     1      -1.526  12.079  21.952  0.00  0.00    +0.000 A 
ATOM      4  N   UNL     1      -1.912  12.234  20.679  0.00  0.00    +0.000 NA
ATOM      5  N   UNL     1      -1.372  11.186  20.010  0.00  0.00    +0.000 N 
ENDROOT
BRANCH   1   9
ATOM      6  C   UNL     1       2.295   7.484  19.454  0.00  0.00    +0.000 A 
ATOM      7  C   UNL     1       1.720   7.397  20.724  0.00  0.00    +0.000 A 
ATOM      8  C   UNL     1       0.807   8.364  21.160  0.00  0.00    +0.000 A 
ATOM      9  C   UNL     1       0.489   9.457  20.344  0.00  0.00    +0.000 A 
ATOM     10  C   UNL     1       1.117   9.558  19.097  0.00  0.00    +0.000 A 
ATOM     11  C   UNL     1       1.980   8.563  18.636  0.00  0.00    +0.000 A 
BRANCH   6  13
ATOM     12  C   UNL     1       3.784   6.607  17.849  0.00  0.00    +0.000 C 
ATOM     13  O   UNL     1       3.182   6.496  19.134  0.00  0.00    +0.000 OA
ENDBRANCH   6  13
ENDBRANCH   1   9
BRANCH   3  14
ATOM     14  C   UNL     1      -2.035  12.935  23.021  0.00  0.00    +0.000 A 
ATOM     15  C   UNL     1      -3.328  12.757  23.538  0.00  0.00    +0.000 A 
ATOM     16  C   UNL     1      -3.811  13.605  24.537  0.00  0.00    +0.000 A 
ATOM     17  C   UNL     1      -3.014  14.637  25.025  0.00  0.00    +0.000 A 
ATOM     18  C   UNL     1      -1.729  14.825  24.516  0.00  0.00    +0.000 A 
ATOM     19  C   UNL     1      -1.241  13.976  23.523  0.00  0.00    +0.000 A 
ENDBRANCH   3  14
BRANCH   5  20
ATOM     20  C   UNL     1      -1.805  10.919  18.677  0.00  0.00    +0.000 A 
ATOM     21  C   UNL     1      -2.427   9.701  18.377  0.00  0.00    +0.000 A 
ATOM     22  C   UNL     1      -2.916   9.472  17.087  0.00  0.00    +0.000 A 
ATOM     23  C   UNL     1      -2.772  10.444  16.087  0.00  0.00    +0.000 A 
ATOM     24  C   UNL     1      -2.140  11.658  16.387  0.00  0.00    +0.000 A 
ATOM     25  C   UNL     1      -1.636  11.875  17.667  0.00  0.00    +0.000 A 
BRANCH  23  26
ATOM     26  C   UNL     1      -3.331  10.171  14.743  0.00  0.00    +0.000 C 
ATOM     27  O   UNL     1      -2.619   9.994  13.767  0.00  0.00    +0.000 OA
BRANCH  26  28
ATOM     28  O   UNL     1      -4.677  10.163  14.673  0.00  0.00    +0.000 OA
ATOM     29  H   UNL     1      -5.129   9.627  15.352  0.00  0.00    +0.000 HD
ENDBRANCH  26  28
ENDBRANCH  23  26
ENDBRANCH   5  20
TORSDOF 6
ENDMDL
MODEL 6
REMARK VINA RESULT:      -7.1      3.689      6.130
REMARK  Name = 
REMARK  7 active torsions:
REMARK  status: ('A' for Active; 'I' for Inactive)
REMARK    1  A    between atoms: C_1  and  O_2
REMARK    2  A    between atoms: O_2  and  C_3
REMARK    3  A    between atoms: C_6  and  C_7
REMARK    4  A    between atoms: C_9  and  C_10
REMARK    5  A    between atoms: N_17  and  C_18
REMARK    6  A    between atoms: C_21  and  C_22
REMARK    7  A    between atoms: C_22  and  O_24
REMARK                            x       y       z     vdW  Elec       q    Type
REMARK                         _______ _______ _______ _____ _____    ______ ____
ROOT
ATOM      1  C   UNL     1      -0.124  12.269  19.273  0.00  0.00    +0.000 A 
ATOM      2  C   UNL     1      -1.390  12.822  19.312  0.00  0.00    +0.000 A 
ATOM      3  C   UNL     1      -2.292  11.789  18.971  0.00  0.00    +0.000 A 
ATOM      4  N   UNL     1      -1.629  10.659  18.695  0.00  0.00    +0.000 NA
ATOM      5  N   UNL     1      -0.336  10.915  19.008  0.00  0.00    +0.000 N 
ENDROOT
BRANCH   1   9
ATOM      6  C   UNL     1       3.668  14.234  19.640  0.00  0.00    +0.000 A 
ATOM      7  C   UNL     1       2.932  13.900  20.779  0.00  0.00    +0.000 A 
ATOM      8  C   UNL     1       1.702  13.243  20.665  0.00  0.00    +0.000 A 
ATOM      9  C   UNL     1       1.171  12.948  19.402  0.00  0.00    +0.000 A 
ATOM     10  C   UNL     1       1.895  13.341  18.270  0.00  0.00    +0.000 A 
ATOM     11  C   UNL     1       3.150  13.941  18.384  0.00  0.00    +0.000 A 
BRANCH   6  13
ATOM     12  C   UNL     1       4.785  16.306  19.801  0.00  0.00    +0.000 C 
ATOM     13  O   UNL     1       4.848  14.885  19.864  0.00  0.00    +0.000 OA
ENDBRANCH   6  13
ENDBRANCH   1   9
BRANCH   3  14
ATOM     14  C   UNL     1      -3.750  11.864  18.908  0.00  0.00    +0.000 A 
ATOM     15  C   UNL     1      -4.485  12.538  19.895  0.00  0.00    +0.000 A 
ATOM     16  C   UNL     1      -5.879  12.571  19.838  0.00  0.00    +0.000 A 
ATOM     17  C   UNL     1      -6.552  11.931  18.800  0.00  0.00    +0.000 A 
ATOM     18  C   UNL     1      -5.833  11.256  17.815  0.00  0.00    +0.000 A 
ATOM     19  C   UNL     1      -4.439  11.227  17.866  0.00  0.00    +0.000 A 
ENDBRANCH   3  14
BRANCH   5  20
ATOM     20  C   UNL     1       0.589   9.830  19.067  0.00  0.00    +0.000 A 
ATOM     21  C   UNL     1       0.805   9.163  20.279  0.00  0.00    +0.000 A 
ATOM     22  C   UNL     1       1.656   8.053  20.317  0.00  0.00    +0.000 A 
ATOM     23  C   UNL     1       2.309   7.616  19.157  0.00  0.00    +0.000 A 
ATOM     24  C   UNL     1       2.101   8.292  17.947  0.00  0.00    +0.000 A 
ATOM     25  C   UNL     1       1.268   9.408  17.916  0.00  0.00    +0.000 A 
BRANCH  23  26
ATOM     26  C   UNL     1       3.178   6.420  19.237  0.00  0.00    +0.000 C 
ATOM     27  O   UNL     1       3.938   6.106  18.333  0.00  0.00    +0.000 OA
BRANCH  26  28
ATOM     28  O   UNL     1       3.048   5.690  20.362  0.00  0.00    +0.000 OA
ATOM     29  H   UNL     1       2.173   5.276  20.494  0.00  0.00    +0.000 HD
ENDBRANCH  26  28
ENDBRANCH  23  26
ENDBRANCH   5  20
TORSDOF 6
ENDMDL
MODEL 7
REMARK VINA RESULT:      -7.1      0.365      1.342
REMARK  Name = 
REMARK  7 active torsions:
REMARK  status: ('A' for Active; 'I' for Inactive)
REMARK    1  A    between atoms: C_1  and  O_2
REMARK    2  A    between atoms: O_2  and  C_3
REMARK    3  A    between atoms: C_6  and  C_7
REMARK    4  A    between atoms: C_9  and  C_10
REMARK    5  A    between atoms: N_17  and  C_18
REMARK    6  A    between atoms: C_21  and  C_22
REMARK    7  A    between atoms: C_22  and  O_24
REMARK                            x       y       z     vdW  Elec       q    Type
REMARK                         _______ _______ _______ _____ _____    ______ ____
ROOT
ATOM      1  C   UNL     1      -0.444  10.511  20.793  0.00  0.00    +0.000 A 
ATOM      2  C   UNL     1      -0.577  11.061  22.054  0.00  0.00    +0.000 A 
ATOM      3  C   UNL     1      -1.487  12.135  21.931  0.00  0.00    +0.000 A 
ATOM      4  N   UNL     1      -1.875  12.279  20.658  0.00  0.00    +0.000 NA
ATOM      5  N   UNL     1      -1.351  11.217  20.000  0.00  0.00    +0.000 N 
ENDROOT
BRANCH   1   9
ATOM      6  C   UNL     1       2.268   7.464  19.475  0.00  0.00    +0.000 A 
ATOM      7  C   UNL     1       1.660   7.374  20.728  0.00  0.00    +0.000 A 
ATOM      8  C   UNL     1       0.760   8.357  21.156  0.00  0.00    +0.000 A 
ATOM      9  C   UNL     1       0.489   9.469  20.348  0.00  0.00    +0.000 A 
ATOM     10  C   UNL     1       1.152   9.572  19.118  0.00  0.00    +0.000 A 
ATOM     11  C   UNL     1       2.002   8.562  18.665  0.00  0.00    +0.000 A 
BRANCH   6  13
ATOM     12  C   UNL     1       2.984   5.259  19.913  0.00  0.00    +0.000 C 
ATOM     13  O   UNL     1       3.139   6.459  19.162  0.00  0.00    +0.000 OA
ENDBRANCH   6  13
ENDBRANCH   1   9
BRANCH   3  14
ATOM     14  C   UNL     1      -1.981  13.009  22.992  0.00  0.00    +0.000 A 
ATOM     15  C   UNL     1      -1.194  14.058  23.493  0.00  0.00    +0.000 A 
ATOM     16  C   UNL     1      -1.669  14.862  24.531  0.00  0.00    +0.000 A 
ATOM     17  C   UNL     1      -2.928  14.627  25.080  0.00  0.00    +0.000 A 
ATOM     18  C   UNL     1      -3.717  13.587  24.592  0.00  0.00    +0.000 A 
ATOM     19  C   UNL     1      -3.248  12.785  23.551  0.00  0.00    +0.000 A 
ENDBRANCH   3  14
BRANCH   5  20
ATOM     20  C   UNL     1      -1.792  10.939  18.672  0.00  0.00    +0.000 A 
ATOM     21  C   UNL     1      -2.467   9.743  18.397  0.00  0.00    +0.000 A 
ATOM     22  C   UNL     1      -2.964   9.508  17.111  0.00  0.00    +0.000 A 
ATOM     23  C   UNL     1      -2.774  10.449  16.090  0.00  0.00    +0.000 A 
ATOM     24  C   UNL     1      -2.088  11.640  16.364  0.00  0.00    +0.000 A 
ATOM     25  C   UNL     1      -1.579  11.864  17.640  0.00  0.00    +0.000 A 
BRANCH  23  26
ATOM     26  C   UNL     1      -3.341  10.171  14.751  0.00  0.00    +0.000 C 
ATOM     27  O   UNL     1      -2.636  10.010  13.766  0.00  0.00    +0.000 OA
BRANCH  26  28
ATOM     28  O   UNL     1      -4.687  10.138  14.693  0.00  0.00    +0.000 OA
ATOM     29  H   UNL     1      -5.097  10.788  14.091  0.00  0.00    +0.000 HD
ENDBRANCH  26  28
ENDBRANCH  23  26
ENDBRANCH   5  20
TORSDOF 6
ENDMDL
MODEL 8
REMARK VINA RESULT:      -6.9      3.646      6.022
REMARK  Name = 
REMARK  7 active torsions:
REMARK  status: ('A' for Active; 'I' for Inactive)
REMARK    1  A    between atoms: C_1  and  O_2
REMARK    2  A    between atoms: O_2  and  C_3
REMARK    3  A    between atoms: C_6  and  C_7
REMARK    4  A    between atoms: C_9  and  C_10
REMARK    5  A    between atoms: N_17  and  C_18
REMARK    6  A    between atoms: C_21  and  C_22
REMARK    7  A    between atoms: C_22  and  O_24
REMARK                            x       y       z     vdW  Elec       q    Type
REMARK                         _______ _______ _______ _____ _____    ______ ____
ROOT
ATOM      1  C   UNL     1       0.030  12.294  19.262  0.00  0.00    +0.000 A 
ATOM      2  C   UNL     1      -1.231  12.851  19.360  0.00  0.00    +0.000 A 
ATOM      3  C   UNL     1      -2.149  11.833  19.016  0.00  0.00    +0.000 A 
ATOM      4  N   UNL     1      -1.501  10.710  18.682  0.00  0.00    +0.000 NA
ATOM      5  N   UNL     1      -0.197  10.950  18.961  0.00  0.00    +0.000 N 
ENDROOT
BRANCH   1   9
ATOM      6  C   UNL     1       3.843  14.231  19.567  0.00  0.00    +0.000 A 
ATOM      7  C   UNL     1       3.124  13.900  20.717  0.00  0.00    +0.000 A 
ATOM      8  C   UNL     1       1.887  13.251  20.623  0.00  0.00    +0.000 A 
ATOM      9  C   UNL     1       1.332  12.964  19.370  0.00  0.00    +0.000 A 
ATOM     10  C   UNL     1       2.040  13.354  18.226  0.00  0.00    +0.000 A 
ATOM     11  C   UNL     1       3.301  13.945  18.319  0.00  0.00    +0.000 A 
BRANCH   6  13
ATOM     12  C   UNL     1       5.741  15.238  18.593  0.00  0.00    +0.000 C 
ATOM     13  O   UNL     1       5.031  14.873  19.771  0.00  0.00    +0.000 OA
ENDBRANCH   6  13
ENDBRANCH   1   9
BRANCH   3  14
ATOM     14  C   UNL     1      -3.607  11.917  19.003  0.00  0.00    +0.000 A 
ATOM     15  C   UNL     1      -4.357  11.328  17.973  0.00  0.00    +0.000 A 
ATOM     16  C   UNL     1      -5.749  11.447  17.957  0.00  0.00    +0.000 A 
ATOM     17  C   UNL     1      -6.403  12.154  18.963  0.00  0.00    +0.000 A 
ATOM     18  C   UNL     1      -5.667  12.745  19.990  0.00  0.00    +0.000 A 
ATOM     19  C   UNL     1      -4.278  12.623  20.012  0.00  0.00    +0.000 A 
ENDBRANCH   3  14
BRANCH   5  20
ATOM     20  C   UNL     1       0.724   9.860  18.955  0.00  0.00    +0.000 A 
ATOM     21  C   UNL     1       0.902   9.092  20.112  0.00  0.00    +0.000 A 
ATOM     22  C   UNL     1       1.750   7.980  20.081  0.00  0.00    +0.000 A 
ATOM     23  C   UNL     1       2.436   7.639  18.908  0.00  0.00    +0.000 A 
ATOM     24  C   UNL     1       2.265   8.416  17.754  0.00  0.00    +0.000 A 
ATOM     25  C   UNL     1       1.436   9.534  17.793  0.00  0.00    +0.000 A 
BRANCH  23  26
ATOM     26  C   UNL     1       3.300   6.437  18.912  0.00  0.00    +0.000 C 
ATOM     27  O   UNL     1       3.420   5.725  19.898  0.00  0.00    +0.000 OA
BRANCH  26  28
ATOM     28  O   UNL     1       3.964   6.203  17.763  0.00  0.00    +0.000 OA
ATOM     29  H   UNL     1       3.699   6.760  17.005  0.00  0.00    +0.000 HD
ENDBRANCH  26  28
ENDBRANCH  23  26
ENDBRANCH   5  20
TORSDOF 6
ENDMDL
MODEL 9
REMARK VINA RESULT:      -6.8      3.653      6.001
REMARK  Name = 
REMARK  7 active torsions:
REMARK  status: ('A' for Active; 'I' for Inactive)
REMARK    1  A    between atoms: C_1  and  O_2
REMARK    2  A    between atoms: O_2  and  C_3
REMARK    3  A    between atoms: C_6  and  C_7
REMARK    4  A    between atoms: C_9  and  C_10
REMARK    5  A    between atoms: N_17  and  C_18
REMARK    6  A    between atoms: C_21  and  C_22
REMARK    7  A    between atoms: C_22  and  O_24
REMARK                            x       y       z     vdW  Elec       q    Type
REMARK                         _______ _______ _______ _____ _____    ______ ____
ROOT
ATOM      1  C   UNL     1      -0.266  12.301  19.314  0.00  0.00    +0.000 A 
ATOM      2  C   UNL     1      -1.520  12.878  19.386  0.00  0.00    +0.000 A 
ATOM      3  C   UNL     1      -2.446  11.877  19.014  0.00  0.00    +0.000 A 
ATOM      4  N   UNL     1      -1.809  10.745  18.688  0.00  0.00    +0.000 NA
ATOM      5  N   UNL     1      -0.508  10.962  18.999  0.00  0.00    +0.000 N 
ENDROOT
BRANCH   1   9
ATOM      6  C   UNL     1       3.548  14.211  19.742  0.00  0.00    +0.000 A 
ATOM      7  C   UNL     1       3.035  13.933  18.473  0.00  0.00    +0.000 A 
ATOM      8  C   UNL     1       1.782  13.326  18.328  0.00  0.00    +0.000 A 
ATOM      9  C   UNL     1       1.043  12.948  19.457  0.00  0.00    +0.000 A 
ATOM     10  C   UNL     1       1.598  13.182  20.721  0.00  0.00    +0.000 A 
ATOM     11  C   UNL     1       2.819  13.843  20.867  0.00  0.00    +0.000 A 
BRANCH   6  13
ATOM     12  C   UNL     1       5.354  14.957  21.064  0.00  0.00    +0.000 C 
ATOM     13  O   UNL     1       4.784  14.792  19.770  0.00  0.00    +0.000 OA
ENDBRANCH   6  13
ENDBRANCH   1   9
BRANCH   3  14
ATOM     14  C   UNL     1      -3.902  11.984  18.967  0.00  0.00    +0.000 A 
ATOM     15  C   UNL     1      -4.627  11.535  17.852  0.00  0.00    +0.000 A 
ATOM     16  C   UNL     1      -6.015  11.675  17.809  0.00  0.00    +0.000 A 
ATOM     17  C   UNL     1      -6.692  12.269  18.873  0.00  0.00    +0.000 A 
ATOM     18  C   UNL     1      -5.982  12.722  19.984  0.00  0.00    +0.000 A 
ATOM     19  C   UNL     1      -4.596  12.577  20.033  0.00  0.00    +0.000 A 
ENDBRANCH   3  14
BRANCH   5  20
ATOM     20  C   UNL     1       0.395   9.858  19.007  0.00  0.00    +0.000 A 
ATOM     21  C   UNL     1       1.043   9.479  17.825  0.00  0.00    +0.000 A 
ATOM     22  C   UNL     1       1.984   8.444  17.852  0.00  0.00    +0.000 A 
ATOM     23  C   UNL     1       2.269   7.771  19.047  0.00  0.00    +0.000 A 
ATOM     24  C   UNL     1       1.611   8.145  20.227  0.00  0.00    +0.000 A 
ATOM     25  C   UNL     1       0.661   9.162  20.194  0.00  0.00    +0.000 A 
BRANCH  23  26
ATOM     26  C   UNL     1       3.293   6.702  19.036  0.00  0.00    +0.000 C 
ATOM     27  O   UNL     1       4.035   6.522  18.082  0.00  0.00    +0.000 OA
BRANCH  26  28
ATOM     28  O   UNL     1       3.325   5.926  20.137  0.00  0.00    +0.000 OA
ATOM     29  H   UNL     1       3.396   4.966  19.972  0.00  0.00    +0.000 HD
ENDBRANCH  26  28
ENDBRANCH  23  26
ENDBRANCH   5  20
TORSDOF 6
ENDMDL
