MODEL 1
REMARK VINA RESULT:      -6.8      0.000      0.000
REMARK  Name = 
REMARK  3 active torsions:
REMARK  status: ('A' for Active; 'I' for Inactive)
REMARK    1  A    between atoms: C_1  and  C_2
REMARK    2  A    between atoms: C_4  and  C_5
REMARK    3  A    between atoms: C_14  and  O_15
REMARK                            x       y       z     vdW  Elec       q    Type
REMARK                         _______ _______ _______ _____ _____    ______ ____
ROOT
ATOM      1  C   UNL     1       4.995   4.235  16.807  0.00  0.00    +0.000 C 
ATOM      2  C   UNL     1       4.109   5.065  17.686  0.00  0.00    +0.000 A 
ATOM      3  C   UNL     1       3.497   4.518  18.813  0.00  0.00    +0.000 A 
ATOM      4  C   UNL     1       2.670   5.306  19.625  0.00  0.00    +0.000 A 
ATOM      5  C   UNL     1       2.016   4.696  20.835  0.00  0.00    +0.000 C 
ATOM      6  C   UNL     1       2.448   6.653  19.316  0.00  0.00    +0.000 A 
ATOM      7  N   UNL     1       1.653   7.412  20.095  0.00  0.00    +0.000 NA
ATOM      8  C   UNL     1       1.457   8.710  19.772  0.00  0.00    +0.000 A 
ATOM      9  C   UNL     1       0.637   9.535  20.556  0.00  0.00    +0.000 A 
ATOM     10 BR   UNL     1      -0.227   8.847  22.111  0.00  0.00    +0.000 Br
ATOM     11  C   UNL     1       0.415  10.877  20.248  0.00  0.00    +0.000 A 
ATOM     12  C   UNL     1       1.024  11.416  19.127  0.00  0.00    +0.000 A 
ATOM     13 BR   UNL     1       0.722  13.239  18.707  0.00  0.00    +0.000 Br
ATOM     14  C   UNL     1       1.845  10.616  18.329  0.00  0.00    +0.000 A 
ATOM     15  C   UNL     1       2.075   9.264  18.631  0.00  0.00    +0.000 A 
ATOM     16  N   UNL     1       2.873   8.500  17.848  0.00  0.00    +0.000 NA
ATOM     17  C   UNL     1       3.062   7.211  18.180  0.00  0.00    +0.000 A 
ATOM     18  C   UNL     1       3.878   6.413  17.386  0.00  0.00    +0.000 A 
ENDROOT
BRANCH  14  19
ATOM     19  O   UNL     1       2.452  11.154  17.213  0.00  0.00    +0.000 OA
ATOM     20  H   UNL     1       3.405  10.965  17.257  0.00  0.00    +0.000 HD
ENDBRANCH  14  19
TORSDOF 1
ENDMDL
MODEL 2
REMARK VINA RESULT:      -6.5      2.770      5.612
REMARK  Name = 
REMARK  3 active torsions:
REMARK  status: ('A' for Active; 'I' for Inactive)
REMARK    1  A    between atoms: C_1  and  C_2
REMARK    2  A    between atoms: C_4  and  C_5
REMARK    3  A    between atoms: C_14  and  O_15
REMARK                            x       y       z     vdW  Elec       q    Type
REMARK                         _______ _______ _______ _____ _____    ______ ____
ROOT
ATOM      1  C   UNL     1       0.508  12.541  18.593  0.00  0.00    +0.000 C 
ATOM      2  C   UNL     1       0.844  11.131  18.977  0.00  0.00    +0.000 A 
ATOM      3  C   UNL     1       0.295  10.546  20.117  0.00  0.00    +0.000 A 
ATOM      4  C   UNL     1       0.620   9.227  20.463  0.00  0.00    +0.000 A 
ATOM      5  C   UNL     1       0.019   8.613  21.699  0.00  0.00    +0.000 C 
ATOM      6  C   UNL     1       1.498   8.480  19.670  0.00  0.00    +0.000 A 
ATOM      7  N   UNL     1       1.810   7.212  20.002  0.00  0.00    +0.000 NA
ATOM      8  C   UNL     1       2.662   6.516  19.216  0.00  0.00    +0.000 A 
ATOM      9  C   UNL     1       3.014   5.193  19.526  0.00  0.00    +0.000 A 
ATOM     10 BR   UNL     1       2.296   4.335  21.070  0.00  0.00    +0.000 Br
ATOM     11  C   UNL     1       3.890   4.449  18.736  0.00  0.00    +0.000 A 
ATOM     12  C   UNL     1       4.434   5.035  17.605  0.00  0.00    +0.000 A 
ATOM     13 BR   UNL     1       5.625   4.025  16.531  0.00  0.00    +0.000 Br
ATOM     14  C   UNL     1       4.100   6.351  17.274  0.00  0.00    +0.000 A 
ATOM     15  C   UNL     1       3.218   7.108  18.063  0.00  0.00    +0.000 A 
ATOM     16  N   UNL     1       2.904   8.382  17.731  0.00  0.00    +0.000 NA
ATOM     17  C   UNL     1       2.055   9.066  18.519  0.00  0.00    +0.000 A 
ATOM     18  C   UNL     1       1.722  10.375  18.191  0.00  0.00    +0.000 A 
ENDROOT
BRANCH  14  19
ATOM     19  O   UNL     1       4.641   6.933  16.147  0.00  0.00    +0.000 OA
ATOM     20  H   UNL     1       4.722   6.254  15.455  0.00  0.00    +0.000 HD
ENDBRANCH  14  19
TORSDOF 1
ENDMDL
MODEL 3
REMARK VINA RESULT:      -6.5      3.924      6.076
REMARK  Name = 
REMARK  3 active torsions:
REMARK  status: ('A' for Active; 'I' for Inactive)
REMARK    1  A    between atoms: C_1  and  C_2
REMARK    2  A    between atoms: C_4  and  C_5
REMARK    3  A    between atoms: C_14  and  O_15
REMARK                            x       y       z     vdW  Elec       q    Type
REMARK                         _______ _______ _______ _____ _____    ______ ____
ROOT
ATOM      1  C   UNL     1       0.871   9.135  21.017  0.00  0.00    +0.000 C 
ATOM      2  C   UNL     1       1.444   7.869  20.454  0.00  0.00    +0.000 A 
ATOM      3  C   UNL     1       1.138   6.630  21.014  0.00  0.00    +0.000 A 
ATOM      4  C   UNL     1       1.683   5.455  20.477  0.00  0.00    +0.000 A 
ATOM      5  C   UNL     1       1.343   4.127  21.098  0.00  0.00    +0.000 C 
ATOM      6  C   UNL     1       2.539   5.510  19.371  0.00  0.00    +0.000 A 
ATOM      7  N   UNL     1       3.062   4.382  18.854  0.00  0.00    +0.000 NA
ATOM      8  C   UNL     1       3.885   4.466  17.786  0.00  0.00    +0.000 A 
ATOM      9  C   UNL     1       4.452   3.315  17.217  0.00  0.00    +0.000 A 
ATOM     10 BR   UNL     1       4.072   1.590  17.936  0.00  0.00    +0.000 Br
ATOM     11  C   UNL     1       5.306   3.370  16.115  0.00  0.00    +0.000 A 
ATOM     12  C   UNL     1       5.608   4.604  15.562  0.00  0.00    +0.000 A 
ATOM     13 BR   UNL     1       6.768   4.679  14.066  0.00  0.00    +0.000 Br
ATOM     14  C   UNL     1       5.057   5.765  16.110  0.00  0.00    +0.000 A 
ATOM     15  C   UNL     1       4.196   5.720  17.219  0.00  0.00    +0.000 A 
ATOM     16  N   UNL     1       3.670   6.853  17.740  0.00  0.00    +0.000 NA
ATOM     17  C   UNL     1       2.851   6.758  18.802  0.00  0.00    +0.000 A 
ATOM     18  C   UNL     1       2.302   7.912  19.349  0.00  0.00    +0.000 A 
ENDROOT
BRANCH  14  19
ATOM     19  O   UNL     1       5.357   6.993  15.558  0.00  0.00    +0.000 OA
ATOM     20  H   UNL     1       6.218   7.286  15.904  0.00  0.00    +0.000 HD
ENDBRANCH  14  19
TORSDOF 1
ENDMDL
MODEL 4
REMARK VINA RESULT:      -6.5      0.934      1.037
REMARK  Name = 
REMARK  3 active torsions:
REMARK  status: ('A' for Active; 'I' for Inactive)
REMARK    1  A    between atoms: C_1  and  C_2
REMARK    2  A    between atoms: C_4  and  C_5
REMARK    3  A    between atoms: C_14  and  O_15
REMARK                            x       y       z     vdW  Elec       q    Type
REMARK                         _______ _______ _______ _____ _____    ______ ____
ROOT
ATOM      1  C   UNL     1       4.661   5.461  16.567  0.00  0.00    +0.000 C 
ATOM      2  C   UNL     1       3.791   6.139  17.582  0.00  0.00    +0.000 A 
ATOM      3  C   UNL     1       3.318   5.452  18.698  0.00  0.00    +0.000 A 
ATOM      4  C   UNL     1       2.503   6.099  19.638  0.00  0.00    +0.000 A 
ATOM      5  C   UNL     1       2.000   5.339  20.835  0.00  0.00    +0.000 C 
ATOM      6  C   UNL     1       2.155   7.445  19.468  0.00  0.00    +0.000 A 
ATOM      7  N   UNL     1       1.374   8.068  20.371  0.00  0.00    +0.000 NA
ATOM      8  C   UNL     1       1.054   9.368  20.180  0.00  0.00    +0.000 A 
ATOM      9  C   UNL     1       0.242  10.054  21.096  0.00  0.00    +0.000 A 
ATOM     10 BR   UNL     1      -0.436   9.171  22.644  0.00  0.00    +0.000 Br
ATOM     11  C   UNL     1      -0.105  11.395  20.926  0.00  0.00    +0.000 A 
ATOM     12  C   UNL     1       0.366  12.074  19.815  0.00  0.00    +0.000 A 
ATOM     13 BR   UNL     1      -0.106  13.894  19.584  0.00  0.00    +0.000 Br
ATOM     14  C   UNL     1       1.177  11.413  18.888  0.00  0.00    +0.000 A 
ATOM     15  C   UNL     1       1.532  10.063  19.050  0.00  0.00    +0.000 A 
ATOM     16  N   UNL     1       2.317   9.436  18.144  0.00  0.00    +0.000 NA
ATOM     17  C   UNL     1       2.630   8.143  18.343  0.00  0.00    +0.000 A 
ATOM     18  C   UNL     1       3.435   7.484  17.422  0.00  0.00    +0.000 A 
ENDROOT
BRANCH  14  19
ATOM     19  O   UNL     1       1.647  12.090  17.783  0.00  0.00    +0.000 OA
ATOM     20  H   UNL     1       2.128  11.462  17.216  0.00  0.00    +0.000 HD
ENDBRANCH  14  19
TORSDOF 1
ENDMDL
MODEL 5
REMARK VINA RESULT:      -6.4      3.472      5.814
REMARK  Name = 
REMARK  3 active torsions:
REMARK  status: ('A' for Active; 'I' for Inactive)
REMARK    1  A    between atoms: C_1  and  C_2
REMARK    2  A    between atoms: C_4  and  C_5
REMARK    3  A    between atoms: C_14  and  O_15
REMARK                            x       y       z     vdW  Elec       q    Type
REMARK                         _______ _______ _______ _____ _____    ______ ____
ROOT
ATOM      1  C   UNL     1       0.497  11.257  18.954  0.00  0.00    +0.000 C 
ATOM      2  C   UNL     1       1.143   9.906  19.024  0.00  0.00    +0.000 A 
ATOM      3  C   UNL     1       0.896   9.046  20.092  0.00  0.00    +0.000 A 
ATOM      4  C   UNL     1       1.509   7.785  20.144  0.00  0.00    +0.000 A 
ATOM      5  C   UNL     1       1.232   6.872  21.308  0.00  0.00    +0.000 C 
ATOM      6  C   UNL     1       2.373   7.374  19.124  0.00  0.00    +0.000 A 
ATOM      7  N   UNL     1       2.961   6.163  19.172  0.00  0.00    +0.000 NA
ATOM      8  C   UNL     1       3.792   5.793  18.172  0.00  0.00    +0.000 A 
ATOM      9  C   UNL     1       4.425   4.541  18.184  0.00  0.00    +0.000 A 
ATOM     10 BR   UNL     1       4.129   3.318  19.617  0.00  0.00    +0.000 Br
ATOM     11  C   UNL     1       5.288   4.131  17.168  0.00  0.00    +0.000 A 
ATOM     12  C   UNL     1       5.531   4.989  16.108  0.00  0.00    +0.000 A 
ATOM     13 BR   UNL     1       6.703   4.433  14.727  0.00  0.00    +0.000 Br
ATOM     14  C   UNL     1       4.913   6.241  16.072  0.00  0.00    +0.000 A 
ATOM     15  C   UNL     1       4.042   6.664  17.091  0.00  0.00    +0.000 A 
ATOM     16  N   UNL     1       3.451   7.880  17.043  0.00  0.00    +0.000 NA
ATOM     17  C   UNL     1       2.625   8.238  18.043  0.00  0.00    +0.000 A 
ATOM     18  C   UNL     1       2.010   9.484  18.009  0.00  0.00    +0.000 A 
ENDROOT
BRANCH  14  19
ATOM     19  O   UNL     1       5.154   7.095  15.016  0.00  0.00    +0.000 OA
ATOM     20  H   UNL     1       5.154   8.009  15.350  0.00  0.00    +0.000 HD
ENDBRANCH  14  19
TORSDOF 1
ENDMDL
MODEL 6
REMARK VINA RESULT:      -6.4      2.221      3.536
REMARK  Name = 
REMARK  3 active torsions:
REMARK  status: ('A' for Active; 'I' for Inactive)
REMARK    1  A    between atoms: C_1  and  C_2
REMARK    2  A    between atoms: C_4  and  C_5
REMARK    3  A    between atoms: C_14  and  O_15
REMARK                            x       y       z     vdW  Elec       q    Type
REMARK                         _______ _______ _______ _____ _____    ______ ____
ROOT
ATOM      1  C   UNL     1       2.854   3.215  20.199  0.00  0.00    +0.000 C 
ATOM      2  C   UNL     1       2.629   4.671  19.926  0.00  0.00    +0.000 A 
ATOM      3  C   UNL     1       3.220   5.297  18.830  0.00  0.00    +0.000 A 
ATOM      4  C   UNL     1       3.002   6.661  18.588  0.00  0.00    +0.000 A 
ATOM      5  C   UNL     1       3.652   7.319  17.401  0.00  0.00    +0.000 C 
ATOM      6  C   UNL     1       2.187   7.412  19.444  0.00  0.00    +0.000 A 
ATOM      7  N   UNL     1       1.976   8.722  19.212  0.00  0.00    +0.000 NA
ATOM      8  C   UNL     1       1.184   9.421  20.055  0.00  0.00    +0.000 A 
ATOM      9  C   UNL     1       0.939  10.788  19.851  0.00  0.00    +0.000 A 
ATOM     10 BR   UNL     1       1.717  11.702  18.369  0.00  0.00    +0.000 Br
ATOM     11  C   UNL     1       0.127  11.536  20.704  0.00  0.00    +0.000 A 
ATOM     12  C   UNL     1      -0.457  10.910  21.792  0.00  0.00    +0.000 A 
ATOM     13 BR   UNL     1      -1.559  11.927  22.951  0.00  0.00    +0.000 Br
ATOM     14  C   UNL     1      -0.229   9.551  22.018  0.00  0.00    +0.000 A 
ATOM     15  C   UNL     1       0.586   8.788  21.165  0.00  0.00    +0.000 A 
ATOM     16  N   UNL     1       0.799   7.472  21.397  0.00  0.00    +0.000 NA
ATOM     17  C   UNL     1       1.588   6.785  20.551  0.00  0.00    +0.000 A 
ATOM     18  C   UNL     1       1.817   5.433  20.775  0.00  0.00    +0.000 A 
ENDROOT
BRANCH  14  19
ATOM     19  O   UNL     1      -0.812   8.928  23.102  0.00  0.00    +0.000 OA
ATOM     20  H   UNL     1      -1.765   8.833  22.929  0.00  0.00    +0.000 HD
ENDBRANCH  14  19
TORSDOF 1
ENDMDL
MODEL 7
REMARK VINA RESULT:      -6.3      3.379      6.527
REMARK  Name = 
REMARK  3 active torsions:
REMARK  status: ('A' for Active; 'I' for Inactive)
REMARK    1  A    between atoms: C_1  and  C_2
REMARK    2  A    between atoms: C_4  and  C_5
REMARK    3  A    between atoms: C_14  and  O_15
REMARK                            x       y       z     vdW  Elec       q    Type
REMARK                         _______ _______ _______ _____ _____    ______ ____
ROOT
ATOM      1  C   UNL     1      -0.822  10.607  22.097  0.00  0.00    +0.000 C 
ATOM      2  C   UNL     1       0.099   9.882  21.164  0.00  0.00    +0.000 A 
ATOM      3  C   UNL     1       0.615  10.509  20.031  0.00  0.00    +0.000 A 
ATOM      4  C   UNL     1       1.475   9.817  19.166  0.00  0.00    +0.000 A 
ATOM      5  C   UNL     1       2.019  10.511  17.946  0.00  0.00    +0.000 C 
ATOM      6  C   UNL     1       1.828   8.489  19.429  0.00  0.00    +0.000 A 
ATOM      7  N   UNL     1       2.655   7.823  18.600  0.00  0.00    +0.000 NA
ATOM      8  C   UNL     1       2.978   6.541  18.880  0.00  0.00    +0.000 A 
ATOM      9  C   UNL     1       3.835   5.812  18.041  0.00  0.00    +0.000 A 
ATOM     10 BR   UNL     1       4.574   6.613  16.477  0.00  0.00    +0.000 Br
ATOM     11  C   UNL     1       4.186   4.487  18.303  0.00  0.00    +0.000 A 
ATOM     12  C   UNL     1       3.670   3.868  19.430  0.00  0.00    +0.000 A 
ATOM     13 BR   UNL     1       4.147   2.068  19.785  0.00  0.00    +0.000 Br
ATOM     14  C   UNL     1       2.815   4.571  20.281  0.00  0.00    +0.000 A 
ATOM     15  C   UNL     1       2.455   5.906  20.026  0.00  0.00    +0.000 A 
ATOM     16  N   UNL     1       1.625   6.575  20.859  0.00  0.00    +0.000 NA
ATOM     17  C   UNL     1       1.311   7.851  20.571  0.00  0.00    +0.000 A 
ATOM     18  C   UNL     1       0.459   8.552  21.417  0.00  0.00    +0.000 A 
ENDROOT
BRANCH  14  19
ATOM     19  O   UNL     1       2.303   3.954  21.403  0.00  0.00    +0.000 OA
ATOM     20  H   UNL     1       2.831   3.158  21.587  0.00  0.00    +0.000 HD
ENDBRANCH  14  19
TORSDOF 1
ENDMDL
MODEL 8
REMARK VINA RESULT:      -6.0      6.636      9.418
REMARK  Name = 
REMARK  3 active torsions:
REMARK  status: ('A' for Active; 'I' for Inactive)
REMARK    1  A    between atoms: C_1  and  C_2
REMARK    2  A    between atoms: C_4  and  C_5
REMARK    3  A    between atoms: C_14  and  O_15
REMARK                            x       y       z     vdW  Elec       q    Type
REMARK                         _______ _______ _______ _____ _____    ______ ____
ROOT
ATOM      1  C   UNL     1      -7.594  13.439  23.937  0.00  0.00    +0.000 C 
ATOM      2  C   UNL     1      -6.347  13.223  23.135  0.00  0.00    +0.000 A 
ATOM      3  C   UNL     1      -5.089  13.471  23.682  0.00  0.00    +0.000 A 
ATOM      4  C   UNL     1      -3.931  13.265  22.918  0.00  0.00    +0.000 A 
ATOM      5  C   UNL     1      -2.582  13.542  23.525  0.00  0.00    +0.000 C 
ATOM      6  C   UNL     1      -4.022  12.807  21.599  0.00  0.00    +0.000 A 
ATOM      7  N   UNL     1      -2.910  12.608  20.865  0.00  0.00    +0.000 NA
ATOM      8  C   UNL     1      -3.029  12.165  19.594  0.00  0.00    +0.000 A 
ATOM      9  C   UNL     1      -1.897  11.946  18.795  0.00  0.00    +0.000 A 
ATOM     10 BR   UNL     1      -0.147  12.265  19.484  0.00  0.00    +0.000 Br
ATOM     11  C   UNL     1      -1.988  11.490  17.480  0.00  0.00    +0.000 A 
ATOM     12  C   UNL     1      -3.240  11.245  16.941  0.00  0.00    +0.000 A 
ATOM     13 BR   UNL     1      -3.364  10.626  15.154  0.00  0.00    +0.000 Br
ATOM     14  C   UNL     1      -4.384  11.456  17.715  0.00  0.00    +0.000 A 
ATOM     15  C   UNL     1      -4.303  11.915  19.041  0.00  0.00    +0.000 A 
ATOM     16  N   UNL     1      -5.419  12.115  19.778  0.00  0.00    +0.000 NA
ATOM     17  C   UNL     1      -5.289  12.555  21.043  0.00  0.00    +0.000 A 
ATOM     18  C   UNL     1      -6.426  12.766  21.814  0.00  0.00    +0.000 A 
ENDROOT
BRANCH  14  19
ATOM     19  O   UNL     1      -5.630  11.211  17.178  0.00  0.00    +0.000 OA
ATOM     20  H   UNL     1      -5.579  10.409  16.630  0.00  0.00    +0.000 HD
ENDBRANCH  14  19
TORSDOF 1
ENDMDL
MODEL 9
REMARK VINA RESULT:      -6.0      2.105      3.431
REMARK  Name = 
REMARK  3 active torsions:
REMARK  status: ('A' for Active; 'I' for Inactive)
REMARK    1  A    between atoms: C_1  and  C_2
REMARK    2  A    between atoms: C_4  and  C_5
REMARK    3  A    between atoms: C_14  and  O_15
REMARK                            x       y       z     vdW  Elec       q    Type
REMARK                         _______ _______ _______ _____ _____    ______ ____
ROOT
ATOM      1  C   UNL     1       6.742   4.988  14.183  0.00  0.00    +0.000 C 
ATOM      2  C   UNL     1       5.829   4.869  15.365  0.00  0.00    +0.000 A 
ATOM      3  C   UNL     1       5.584   3.634  15.963  0.00  0.00    +0.000 A 
ATOM      4  C   UNL     1       4.727   3.538  17.069  0.00  0.00    +0.000 A 
ATOM      5  C   UNL     1       4.473   2.195  17.699  0.00  0.00    +0.000 C 
ATOM      6  C   UNL     1       4.106   4.681  17.587  0.00  0.00    +0.000 A 
ATOM      7  N   UNL     1       3.283   4.590  18.649  0.00  0.00    +0.000 NA
ATOM      8  C   UNL     1       2.698   5.711  19.127  0.00  0.00    +0.000 A 
ATOM      9  C   UNL     1       1.833   5.660  20.231  0.00  0.00    +0.000 A 
ATOM     10 BR   UNL     1       1.458   4.002  21.095  0.00  0.00    +0.000 Br
ATOM     11  C   UNL     1       1.214   6.799  20.747  0.00  0.00    +0.000 A 
ATOM     12  C   UNL     1       1.459   8.024  20.149  0.00  0.00    +0.000 A 
ATOM     13 BR   UNL     1       0.618   9.570  20.849  0.00  0.00    +0.000 Br
ATOM     14  C   UNL     1       2.316   8.102  19.049  0.00  0.00    +0.000 A 
ATOM     15  C   UNL     1       2.945   6.961  18.522  0.00  0.00    +0.000 A 
ATOM     16  N   UNL     1       3.772   7.051  17.455  0.00  0.00    +0.000 NA
ATOM     17  C   UNL     1       4.350   5.930  16.987  0.00  0.00    +0.000 A 
ATOM     18  C   UNL     1       5.202   6.005  15.892  0.00  0.00    +0.000 A 
ENDROOT
BRANCH  14  19
ATOM     19  O   UNL     1       2.561   9.322  18.455  0.00  0.00    +0.000 OA
ATOM     20  H   UNL     1       3.140   9.840  19.039  0.00  0.00    +0.000 HD
ENDBRANCH  14  19
TORSDOF 1
ENDMDL
