MODEL 1
REMARK VINA RESULT:      -7.4      0.000      0.000
REMARK  Name = 
REMARK  6 active torsions:
REMARK  status: ('A' for Active; 'I' for Inactive)
REMARK    1  A    between atoms: C_1  and  O_2
REMARK    2  A    between atoms: O_2  and  C_3
REMARK    3  A    between atoms: C_6  and  C_7
REMARK    4  A    between atoms: N_21  and  C_22
REMARK    5  A    between atoms: C_25  and  O_26
REMARK    6  A    between atoms: O_26  and  C_27
REMARK                            x       y       z     vdW  Elec       q    Type
REMARK                         _______ _______ _______ _____ _____    ______ ____
ROOT
ATOM      1  C   UNL     1       1.342  10.069  19.344  0.00  0.00    +0.000 A 
ATOM      2  N   UNL     1       2.036  10.995  18.741  0.00  0.00    +0.000 NA
ATOM      3  C   UNL     1       1.606  12.322  18.862  0.00  0.00    +0.000 A 
ATOM      4  C   UNL     1       2.260  13.336  18.202  0.00  0.00    +0.000 A 
ATOM      5  N   UNL     1       1.899  14.631  18.241  0.00  0.00    +0.000 NA
ATOM      6  C   UNL     1       0.857  14.969  19.012  0.00  0.00    +0.000 A 
ATOM      7  N   UNL     1       0.525  16.287  19.115  0.00  0.00    +0.000 N 
ATOM      8  C   UNL     1       1.265  17.309  18.381  0.00  0.00    +0.000 C 
ATOM      9  C   UNL     1       0.316  18.077  17.433  0.00  0.00    +0.000 C 
ATOM     10  N   UNL     1      -0.878  18.624  18.111  0.00  0.00    +0.000 NA
ATOM     11  C   UNL     1      -1.593  17.530  18.803  0.00  0.00    +0.000 C 
ATOM     12  C   UNL     1      -0.699  16.729  19.779  0.00  0.00    +0.000 C 
ATOM     13  N   UNL     1       0.157  14.048  19.686  0.00  0.00    +0.000 NA
ATOM     14  C   UNL     1       0.517  12.745  19.600  0.00  0.00    +0.000 A 
ATOM     15  N   UNL     1      -0.252  11.743  20.251  0.00  0.00    +0.000 N 
ATOM     16  C   UNL     1       0.116  10.397  20.214  0.00  0.00    +0.000 A 
ATOM     17  O   UNL     1      -0.426   9.503  20.839  0.00  0.00    +0.000 OA
ATOM     18  H   UNL     1      -1.497  19.039  17.416  0.00  0.00    +0.000 HD
ENDROOT
BRANCH   1  22
ATOM     19  C   UNL     1       2.561   5.981  18.778  0.00  0.00    +0.000 A 
ATOM     20  C   UNL     1       2.222   6.451  20.052  0.00  0.00    +0.000 A 
ATOM     21  C   UNL     1       1.797   7.769  20.245  0.00  0.00    +0.000 A 
ATOM     22  C   UNL     1       1.717   8.638  19.149  0.00  0.00    +0.000 A 
ATOM     23  C   UNL     1       2.067   8.168  17.881  0.00  0.00    +0.000 A 
ATOM     24  C   UNL     1       2.488   6.850  17.692  0.00  0.00    +0.000 A 
BRANCH  19  26
ATOM     25  C   UNL     1       4.338   4.432  18.519  0.00  0.00    +0.000 C 
ATOM     26  O   UNL     1       2.949   4.674  18.722  0.00  0.00    +0.000 OA
ENDBRANCH  19  26
ENDBRANCH   1  22
BRANCH  15  27
ATOM     27  C   UNL     1      -1.379  12.155  21.014  0.00  0.00    +0.000 A 
ATOM     28  C   UNL     1      -1.303  12.232  22.412  0.00  0.00    +0.000 A 
ATOM     29  C   UNL     1      -2.435  12.541  23.165  0.00  0.00    +0.000 A 
ATOM     30  C   UNL     1      -3.650  12.807  22.540  0.00  0.00    +0.000 A 
ATOM     31  C   UNL     1      -3.730  12.765  21.147  0.00  0.00    +0.000 A 
ATOM     32  C   UNL     1      -2.596  12.438  20.388  0.00  0.00    +0.000 A 
BRANCH  30  33
ATOM     33  O   UNL     1      -4.693  13.052  23.390  0.00  0.00    +0.000 OA
ATOM     34  C   UNL     1      -4.615  12.430  24.666  0.00  0.00    +0.000 C 
ENDBRANCH  30  33
ENDBRANCH  15  27
TORSDOF 4
ENDMDL
MODEL 2
REMARK VINA RESULT:      -7.4      3.045      4.414
REMARK  Name = 
REMARK  6 active torsions:
REMARK  status: ('A' for Active; 'I' for Inactive)
REMARK    1  A    between atoms: C_1  and  O_2
REMARK    2  A    between atoms: O_2  and  C_3
REMARK    3  A    between atoms: C_6  and  C_7
REMARK    4  A    between atoms: N_21  and  C_22
REMARK    5  A    between atoms: C_25  and  O_26
REMARK    6  A    between atoms: O_26  and  C_27
REMARK                            x       y       z     vdW  Elec       q    Type
REMARK                         _______ _______ _______ _____ _____    ______ ____
ROOT
ATOM      1  C   UNL     1       0.339   9.664  18.923  0.00  0.00    +0.000 A 
ATOM      2  N   UNL     1      -0.636   9.616  18.057  0.00  0.00    +0.000 NA
ATOM      3  C   UNL     1      -1.746  10.442  18.271  0.00  0.00    +0.000 A 
ATOM      4  C   UNL     1      -2.832  10.394  17.427  0.00  0.00    +0.000 A 
ATOM      5  N   UNL     1      -3.948  11.130  17.574  0.00  0.00    +0.000 NA
ATOM      6  C   UNL     1      -3.993  12.006  18.586  0.00  0.00    +0.000 A 
ATOM      7  N   UNL     1      -5.089  12.807  18.705  0.00  0.00    +0.000 N 
ATOM      8  C   UNL     1      -6.205  12.698  17.771  0.00  0.00    +0.000 C 
ATOM      9  C   UNL     1      -7.504  12.343  18.532  0.00  0.00    +0.000 C 
ATOM     10  N   UNL     1      -7.796  13.258  19.655  0.00  0.00    +0.000 NA
ATOM     11  C   UNL     1      -6.638  13.293  20.573  0.00  0.00    +0.000 C 
ATOM     12  C   UNL     1      -5.306  13.655  19.874  0.00  0.00    +0.000 C 
ATOM     13  N   UNL     1      -2.984  12.117  19.461  0.00  0.00    +0.000 NA
ATOM     14  C   UNL     1      -1.887  11.336  19.314  0.00  0.00    +0.000 A 
ATOM     15  N   UNL     1      -0.836  11.389  20.269  0.00  0.00    +0.000 N 
ATOM     16  C   UNL     1       0.325  10.626  20.124  0.00  0.00    +0.000 A 
ATOM     17  O   UNL     1       1.309  10.704  20.835  0.00  0.00    +0.000 OA
ATOM     18  H   UNL     1      -8.612  12.917  20.160  0.00  0.00    +0.000 HD
ENDROOT
BRANCH   1  22
ATOM     19  C   UNL     1       3.561   6.852  18.448  0.00  0.00    +0.000 A 
ATOM     20  C   UNL     1       3.354   7.860  17.500  0.00  0.00    +0.000 A 
ATOM     21  C   UNL     1       2.328   8.798  17.658  0.00  0.00    +0.000 A 
ATOM     22  C   UNL     1       1.488   8.723  18.776  0.00  0.00    +0.000 A 
ATOM     23  C   UNL     1       1.691   7.707  19.713  0.00  0.00    +0.000 A 
ATOM     24  C   UNL     1       2.718   6.774  19.554  0.00  0.00    +0.000 A 
BRANCH  19  26
ATOM     25  C   UNL     1       4.963   5.103  19.225  0.00  0.00    +0.000 C 
ATOM     26  O   UNL     1       4.600   6.008  18.185  0.00  0.00    +0.000 OA
ENDBRANCH  19  26
ENDBRANCH   1  22
BRANCH  15  27
ATOM     27  C   UNL     1      -0.960  12.301  21.353  0.00  0.00    +0.000 A 
ATOM     28  C   UNL     1      -0.327  13.551  21.307  0.00  0.00    +0.000 A 
ATOM     29  C   UNL     1      -0.369  14.404  22.410  0.00  0.00    +0.000 A 
ATOM     30  C   UNL     1      -1.064  14.042  23.560  0.00  0.00    +0.000 A 
ATOM     31  C   UNL     1      -1.726  12.813  23.604  0.00  0.00    +0.000 A 
ATOM     32  C   UNL     1      -1.672  11.946  22.502  0.00  0.00    +0.000 A 
BRANCH  30  33
ATOM     33  O   UNL     1      -0.991  14.944  24.584  0.00  0.00    +0.000 OA
ATOM     34  C   UNL     1      -2.205  15.195  25.281  0.00  0.00    +0.000 C 
ENDBRANCH  30  33
ENDBRANCH  15  27
TORSDOF 4
ENDMDL
MODEL 3
REMARK VINA RESULT:      -7.3      0.776      1.212
REMARK  Name = 
REMARK  6 active torsions:
REMARK  status: ('A' for Active; 'I' for Inactive)
REMARK    1  A    between atoms: C_1  and  O_2
REMARK    2  A    between atoms: O_2  and  C_3
REMARK    3  A    between atoms: C_6  and  C_7
REMARK    4  A    between atoms: N_21  and  C_22
REMARK    5  A    between atoms: C_25  and  O_26
REMARK    6  A    between atoms: O_26  and  C_27
REMARK                            x       y       z     vdW  Elec       q    Type
REMARK                         _______ _______ _______ _____ _____    ______ ____
ROOT
ATOM      1  C   UNL     1       1.440  10.045  19.258  0.00  0.00    +0.000 A 
ATOM      2  N   UNL     1       2.225  10.968  18.775  0.00  0.00    +0.000 NA
ATOM      3  C   UNL     1       1.794  12.299  18.842  0.00  0.00    +0.000 A 
ATOM      4  C   UNL     1       2.549  13.311  18.296  0.00  0.00    +0.000 A 
ATOM      5  N   UNL     1       2.198  14.609  18.291  0.00  0.00    +0.000 NA
ATOM      6  C   UNL     1       1.055  14.952  18.899  0.00  0.00    +0.000 A 
ATOM      7  N   UNL     1       0.722  16.273  18.963  0.00  0.00    +0.000 N 
ATOM      8  C   UNL     1       1.574  17.292  18.358  0.00  0.00    +0.000 C 
ATOM      9  C   UNL     1       0.785  18.077  17.284  0.00  0.00    +0.000 C 
ATOM     10  N   UNL     1      -0.492  18.631  17.779  0.00  0.00    +0.000 NA
ATOM     11  C   UNL     1      -1.313  17.539  18.346  0.00  0.00    +0.000 C 
ATOM     12  C   UNL     1      -0.583  16.722  19.438  0.00  0.00    +0.000 C 
ATOM     13  N   UNL     1       0.253  14.033  19.453  0.00  0.00    +0.000 NA
ATOM     14  C   UNL     1       0.610  12.727  19.410  0.00  0.00    +0.000 A 
ATOM     15  N   UNL     1      -0.258  11.729  19.930  0.00  0.00    +0.000 N 
ATOM     16  C   UNL     1       0.100  10.379  19.936  0.00  0.00    +0.000 A 
ATOM     17  O   UNL     1      -0.538   9.486  20.465  0.00  0.00    +0.000 OA
ATOM     18  H   UNL     1      -0.995  19.057  17.003  0.00  0.00    +0.000 HD
ENDROOT
BRANCH   1  22
ATOM     19  C   UNL     1       2.417   5.876  18.833  0.00  0.00    +0.000 A 
ATOM     20  C   UNL     1       2.404   6.719  17.717  0.00  0.00    +0.000 A 
ATOM     21  C   UNL     1       2.116   8.082  17.845  0.00  0.00    +0.000 A 
ATOM     22  C   UNL     1       1.827   8.612  19.110  0.00  0.00    +0.000 A 
ATOM     23  C   UNL     1       1.831   7.764  20.220  0.00  0.00    +0.000 A 
ATOM     24  C   UNL     1       2.122   6.404  20.088  0.00  0.00    +0.000 A 
BRANCH  19  26
ATOM     25  C   UNL     1       1.743   3.815  17.873  0.00  0.00    +0.000 C 
ATOM     26  O   UNL     1       2.724   4.571  18.577  0.00  0.00    +0.000 OA
ENDBRANCH  19  26
ENDBRANCH   1  22
BRANCH  15  27
ATOM     27  C   UNL     1      -1.483  12.146  20.518  0.00  0.00    +0.000 A 
ATOM     28  C   UNL     1      -1.577  12.344  21.903  0.00  0.00    +0.000 A 
ATOM     29  C   UNL     1      -2.803  12.658  22.489  0.00  0.00    +0.000 A 
ATOM     30  C   UNL     1      -3.944  12.810  21.707  0.00  0.00    +0.000 A 
ATOM     31  C   UNL     1      -3.855  12.648  20.323  0.00  0.00    +0.000 A 
ATOM     32  C   UNL     1      -2.627  12.315  19.732  0.00  0.00    +0.000 A 
BRANCH  30  33
ATOM     33  O   UNL     1      -5.089  13.074  22.406  0.00  0.00    +0.000 OA
ATOM     34  C   UNL     1      -6.307  12.734  21.756  0.00  0.00    +0.000 C 
ENDBRANCH  30  33
ENDBRANCH  15  27
TORSDOF 4
ENDMDL
MODEL 4
REMARK VINA RESULT:      -7.3      2.966      4.492
REMARK  Name = 
REMARK  6 active torsions:
REMARK  status: ('A' for Active; 'I' for Inactive)
REMARK    1  A    between atoms: C_1  and  O_2
REMARK    2  A    between atoms: O_2  and  C_3
REMARK    3  A    between atoms: C_6  and  C_7
REMARK    4  A    between atoms: N_21  and  C_22
REMARK    5  A    between atoms: C_25  and  O_26
REMARK    6  A    between atoms: O_26  and  C_27
REMARK                            x       y       z     vdW  Elec       q    Type
REMARK                         _______ _______ _______ _____ _____    ______ ____
ROOT
ATOM      1  C   UNL     1      -0.078  10.332  19.413  0.00  0.00    +0.000 A 
ATOM      2  N   UNL     1      -1.180  10.278  18.715  0.00  0.00    +0.000 NA
ATOM      3  C   UNL     1      -2.203  11.181  19.031  0.00  0.00    +0.000 A 
ATOM      4  C   UNL     1      -3.410  11.135  18.372  0.00  0.00    +0.000 A 
ATOM      5  N   UNL     1      -4.453  11.944  18.630  0.00  0.00    +0.000 NA
ATOM      6  C   UNL     1      -4.296  12.893  19.562  0.00  0.00    +0.000 A 
ATOM      7  N   UNL     1      -5.321  13.764  19.783  0.00  0.00    +0.000 N 
ATOM      8  C   UNL     1      -6.575  13.651  19.045  0.00  0.00    +0.000 C 
ATOM      9  C   UNL     1      -7.751  13.430  20.024  0.00  0.00    +0.000 C 
ATOM     10  N   UNL     1      -7.819  14.441  21.101  0.00  0.00    +0.000 NA
ATOM     11  C   UNL     1      -6.529  14.475  21.823  0.00  0.00    +0.000 C 
ATOM     12  C   UNL     1      -5.310  14.706  20.898  0.00  0.00    +0.000 C 
ATOM     13  N   UNL     1      -3.157  13.009  20.258  0.00  0.00    +0.000 NA
ATOM     14  C   UNL     1      -2.134  12.156  20.006  0.00  0.00    +0.000 A 
ATOM     15  N   UNL     1      -0.943  12.217  20.780  0.00  0.00    +0.000 N 
ATOM     16  C   UNL     1       0.143  11.379  20.519  0.00  0.00    +0.000 A 
ATOM     17  O   UNL     1       1.231  11.451  21.060  0.00  0.00    +0.000 OA
ATOM     18  H   UNL     1      -8.559  14.186  21.753  0.00  0.00    +0.000 HD
ENDROOT
BRANCH   1  22
ATOM     19  C   UNL     1       2.893   7.310  18.673  0.00  0.00    +0.000 A 
ATOM     20  C   UNL     1       2.596   8.266  17.697  0.00  0.00    +0.000 A 
ATOM     21  C   UNL     1       1.653   9.271  17.935  0.00  0.00    +0.000 A 
ATOM     22  C   UNL     1       0.987   9.318  19.167  0.00  0.00    +0.000 A 
ATOM     23  C   UNL     1       1.279   8.353  20.135  0.00  0.00    +0.000 A 
ATOM     24  C   UNL     1       2.223   7.353  19.894  0.00  0.00    +0.000 A 
BRANCH  19  26
ATOM     25  C   UNL     1       4.254   5.486  19.342  0.00  0.00    +0.000 C 
ATOM     26  O   UNL     1       3.838   6.390  18.322  0.00  0.00    +0.000 OA
ENDBRANCH  19  26
ENDBRANCH   1  22
BRANCH  15  27
ATOM     27  C   UNL     1      -0.851  13.212  21.791  0.00  0.00    +0.000 A 
ATOM     28  C   UNL     1      -1.435  13.004  23.049  0.00  0.00    +0.000 A 
ATOM     29  C   UNL     1      -1.428  14.018  24.006  0.00  0.00    +0.000 A 
ATOM     30  C   UNL     1      -0.817  15.240  23.740  0.00  0.00    +0.000 A 
ATOM     31  C   UNL     1      -0.204  15.446  22.502  0.00  0.00    +0.000 A 
ATOM     32  C   UNL     1      -0.224  14.433  21.531  0.00  0.00    +0.000 A 
BRANCH  30  33
ATOM     33  O   UNL     1      -0.919  16.164  24.742  0.00  0.00    +0.000 OA
ATOM     34  C   UNL     1      -1.431  15.687  25.980  0.00  0.00    +0.000 C 
ENDBRANCH  30  33
ENDBRANCH  15  27
TORSDOF 4
ENDMDL
MODEL 5
REMARK VINA RESULT:      -7.3      0.761      1.177
REMARK  Name = 
REMARK  6 active torsions:
REMARK  status: ('A' for Active; 'I' for Inactive)
REMARK    1  A    between atoms: C_1  and  O_2
REMARK    2  A    between atoms: O_2  and  C_3
REMARK    3  A    between atoms: C_6  and  C_7
REMARK    4  A    between atoms: N_21  and  C_22
REMARK    5  A    between atoms: C_25  and  O_26
REMARK    6  A    between atoms: O_26  and  C_27
REMARK                            x       y       z     vdW  Elec       q    Type
REMARK                         _______ _______ _______ _____ _____    ______ ____
ROOT
ATOM      1  C   UNL     1       1.371  10.031  19.240  0.00  0.00    +0.000 A 
ATOM      2  N   UNL     1       2.152  10.951  18.744  0.00  0.00    +0.000 NA
ATOM      3  C   UNL     1       1.730  12.284  18.820  0.00  0.00    +0.000 A 
ATOM      4  C   UNL     1       2.481  13.293  18.262  0.00  0.00    +0.000 A 
ATOM      5  N   UNL     1       2.137  14.593  18.266  0.00  0.00    +0.000 NA
ATOM      6  C   UNL     1       1.006  14.941  18.895  0.00  0.00    +0.000 A 
ATOM      7  N   UNL     1       0.683  16.263  18.966  0.00  0.00    +0.000 N 
ATOM      8  C   UNL     1       1.529  17.279  18.347  0.00  0.00    +0.000 C 
ATOM      9  C   UNL     1       0.726  18.070  17.289  0.00  0.00    +0.000 C 
ATOM     10  N   UNL     1      -0.540  18.630  17.807  0.00  0.00    +0.000 NA
ATOM     11  C   UNL     1      -1.356  17.542  18.387  0.00  0.00    +0.000 C 
ATOM     12  C   UNL     1      -0.612  16.719  19.465  0.00  0.00    +0.000 C 
ATOM     13  N   UNL     1       0.209  14.026  19.461  0.00  0.00    +0.000 NA
ATOM     14  C   UNL     1       0.559  12.718  19.410  0.00  0.00    +0.000 A 
ATOM     15  N   UNL     1      -0.305  11.723  19.944  0.00  0.00    +0.000 N 
ATOM     16  C   UNL     1       0.045  10.371  19.942  0.00  0.00    +0.000 A 
ATOM     17  O   UNL     1      -0.588   9.482  20.481  0.00  0.00    +0.000 OA
ATOM     18  H   UNL     1      -1.054  19.060  17.041  0.00  0.00    +0.000 HD
ENDROOT
BRANCH   1  22
ATOM     19  C   UNL     1       2.595   5.932  18.784  0.00  0.00    +0.000 A 
ATOM     20  C   UNL     1       2.233   6.428  20.041  0.00  0.00    +0.000 A 
ATOM     21  C   UNL     1       1.806   7.751  20.198  0.00  0.00    +0.000 A 
ATOM     22  C   UNL     1       1.748   8.596  19.082  0.00  0.00    +0.000 A 
ATOM     23  C   UNL     1       2.121   8.099  17.831  0.00  0.00    +0.000 A 
ATOM     24  C   UNL     1       2.544   6.777  17.678  0.00  0.00    +0.000 A 
BRANCH  19  26
ATOM     25  C   UNL     1       2.647   3.881  17.594  0.00  0.00    +0.000 C 
ATOM     26  O   UNL     1       2.982   4.623  18.762  0.00  0.00    +0.000 OA
ENDBRANCH  19  26
ENDBRANCH   1  22
BRANCH  15  27
ATOM     27  C   UNL     1      -1.518  12.147  20.554  0.00  0.00    +0.000 A 
ATOM     28  C   UNL     1      -2.683  12.301  19.790  0.00  0.00    +0.000 A 
ATOM     29  C   UNL     1      -3.845  12.809  20.370  0.00  0.00    +0.000 A 
ATOM     30  C   UNL     1      -3.875  13.142  21.721  0.00  0.00    +0.000 A 
ATOM     31  C   UNL     1      -2.730  12.960  22.499  0.00  0.00    +0.000 A 
ATOM     32  C   UNL     1      -1.555  12.465  21.915  0.00  0.00    +0.000 A 
BRANCH  30  33
ATOM     33  O   UNL     1      -5.058  13.671  22.157  0.00  0.00    +0.000 OA
ATOM     34  C   UNL     1      -6.238  13.064  21.645  0.00  0.00    +0.000 C 
ENDBRANCH  30  33
ENDBRANCH  15  27
TORSDOF 4
ENDMDL
MODEL 6
REMARK VINA RESULT:      -7.3      2.932      5.224
REMARK  Name = 
REMARK  6 active torsions:
REMARK  status: ('A' for Active; 'I' for Inactive)
REMARK    1  A    between atoms: C_1  and  O_2
REMARK    2  A    between atoms: O_2  and  C_3
REMARK    3  A    between atoms: C_6  and  C_7
REMARK    4  A    between atoms: N_21  and  C_22
REMARK    5  A    between atoms: C_25  and  O_26
REMARK    6  A    between atoms: O_26  and  C_27
REMARK                            x       y       z     vdW  Elec       q    Type
REMARK                         _______ _______ _______ _____ _____    ______ ____
ROOT
ATOM      1  C   UNL     1       0.854  10.397  20.128  0.00  0.00    +0.000 A 
ATOM      2  N   UNL     1       0.091  10.320  21.184  0.00  0.00    +0.000 NA
ATOM      3  C   UNL     1      -0.320  11.515  21.787  0.00  0.00    +0.000 A 
ATOM      4  C   UNL     1      -1.076  11.499  22.937  0.00  0.00    +0.000 A 
ATOM      5  N   UNL     1      -1.489  12.597  23.595  0.00  0.00    +0.000 NA
ATOM      6  C   UNL     1      -1.186  13.793  23.073  0.00  0.00    +0.000 A 
ATOM      7  N   UNL     1      -1.658  14.911  23.692  0.00  0.00    +0.000 N 
ATOM      8  C   UNL     1      -2.454  14.816  24.913  0.00  0.00    +0.000 C 
ATOM      9  C   UNL     1      -1.754  15.574  26.065  0.00  0.00    +0.000 C 
ATOM     10  N   UNL     1      -1.407  16.970  25.726  0.00  0.00    +0.000 NA
ATOM     11  C   UNL     1      -0.577  16.985  24.502  0.00  0.00    +0.000 C 
ATOM     12  C   UNL     1      -1.228  16.252  23.305  0.00  0.00    +0.000 C 
ATOM     13  N   UNL     1      -0.449  13.905  21.960  0.00  0.00    +0.000 NA
ATOM     14  C   UNL     1      -0.011  12.784  21.337  0.00  0.00    +0.000 A 
ATOM     15  N   UNL     1       0.828  12.880  20.194  0.00  0.00    +0.000 N 
ATOM     16  C   UNL     1       1.262  11.744  19.507  0.00  0.00    +0.000 A 
ATOM     17  O   UNL     1       1.884  11.753  18.460  0.00  0.00    +0.000 OA
ATOM     18  H   UNL     1      -0.876  17.379  26.493  0.00  0.00    +0.000 HD
ENDROOT
BRANCH   1  22
ATOM     19  C   UNL     1       2.530   6.838  18.386  0.00  0.00    +0.000 A 
ATOM     20  C   UNL     1       2.303   6.914  19.765  0.00  0.00    +0.000 A 
ATOM     21  C   UNL     1       1.732   8.054  20.340  0.00  0.00    +0.000 A 
ATOM     22  C   UNL     1       1.390   9.142  19.526  0.00  0.00    +0.000 A 
ATOM     23  C   UNL     1       1.629   9.066  18.152  0.00  0.00    +0.000 A 
ATOM     24  C   UNL     1       2.197   7.924  17.581  0.00  0.00    +0.000 A 
BRANCH  19  26
ATOM     25  C   UNL     1       2.195   4.560  17.816  0.00  0.00    +0.000 C 
ATOM     26  O   UNL     1       3.080   5.668  17.949  0.00  0.00    +0.000 OA
ENDBRANCH  19  26
ENDBRANCH   1  22
BRANCH  15  27
ATOM     27  C   UNL     1       1.161  14.176  19.714  0.00  0.00    +0.000 A 
ATOM     28  C   UNL     1       0.252  14.900  18.929  0.00  0.00    +0.000 A 
ATOM     29  C   UNL     1       0.617  16.128  18.378  0.00  0.00    +0.000 A 
ATOM     30  C   UNL     1       1.876  16.669  18.625  0.00  0.00    +0.000 A 
ATOM     31  C   UNL     1       2.776  15.972  19.433  0.00  0.00    +0.000 A 
ATOM     32  C   UNL     1       2.418  14.729  19.974  0.00  0.00    +0.000 A 
BRANCH  30  33
ATOM     33  O   UNL     1       2.126  17.855  17.992  0.00  0.00    +0.000 OA
ATOM     34  C   UNL     1       1.075  18.361  17.180  0.00  0.00    +0.000 C 
ENDBRANCH  30  33
ENDBRANCH  15  27
TORSDOF 4
ENDMDL
MODEL 7
REMARK VINA RESULT:      -7.2      2.880      5.143
REMARK  Name = 
REMARK  6 active torsions:
REMARK  status: ('A' for Active; 'I' for Inactive)
REMARK    1  A    between atoms: C_1  and  O_2
REMARK    2  A    between atoms: O_2  and  C_3
REMARK    3  A    between atoms: C_6  and  C_7
REMARK    4  A    between atoms: N_21  and  C_22
REMARK    5  A    between atoms: C_25  and  O_26
REMARK    6  A    between atoms: O_26  and  C_27
REMARK                            x       y       z     vdW  Elec       q    Type
REMARK                         _______ _______ _______ _____ _____    ______ ____
ROOT
ATOM      1  C   UNL     1       0.871  10.353  20.095  0.00  0.00    +0.000 A 
ATOM      2  N   UNL     1       0.150  10.259  21.178  0.00  0.00    +0.000 NA
ATOM      3  C   UNL     1      -0.327  11.443  21.755  0.00  0.00    +0.000 A 
ATOM      4  C   UNL     1      -1.042  11.414  22.930  0.00  0.00    +0.000 A 
ATOM      5  N   UNL     1      -1.512  12.502  23.566  0.00  0.00    +0.000 NA
ATOM      6  C   UNL     1      -1.312  13.698  22.995  0.00  0.00    +0.000 A 
ATOM      7  N   UNL     1      -1.843  14.801  23.593  0.00  0.00    +0.000 N 
ATOM      8  C   UNL     1      -2.591  14.693  24.842  0.00  0.00    +0.000 C 
ATOM      9  C   UNL     1      -1.911  15.538  25.945  0.00  0.00    +0.000 C 
ATOM     10  N   UNL     1      -1.675  16.942  25.548  0.00  0.00    +0.000 NA
ATOM     11  C   UNL     1      -0.887  16.973  24.297  0.00  0.00    +0.000 C 
ATOM     12  C   UNL     1      -1.522  16.155  23.148  0.00  0.00    +0.000 C 
ATOM     13  N   UNL     1      -0.621  13.822  21.854  0.00  0.00    +0.000 NA
ATOM     14  C   UNL     1      -0.124  12.714  21.254  0.00  0.00    +0.000 A 
ATOM     15  N   UNL     1       0.670  12.829  20.081  0.00  0.00    +0.000 N 
ATOM     16  C   UNL     1       1.163  11.703  19.417  0.00  0.00    +0.000 A 
ATOM     17  O   UNL     1       1.749  11.718  18.350  0.00  0.00    +0.000 OA
ATOM     18  H   UNL     1      -1.151  17.414  26.284  0.00  0.00    +0.000 HD
ENDROOT
BRANCH   1  22
ATOM     19  C   UNL     1       2.487   6.730  18.429  0.00  0.00    +0.000 A 
ATOM     20  C   UNL     1       2.199   7.823  17.605  0.00  0.00    +0.000 A 
ATOM     21  C   UNL     1       1.700   9.017  18.137  0.00  0.00    +0.000 A 
ATOM     22  C   UNL     1       1.476   9.118  19.516  0.00  0.00    +0.000 A 
ATOM     23  C   UNL     1       1.754   8.020  20.334  0.00  0.00    +0.000 A 
ATOM     24  C   UNL     1       2.255   6.831  19.799  0.00  0.00    +0.000 A 
BRANCH  19  26
ATOM     25  C   UNL     1       2.231   4.425  17.932  0.00  0.00    +0.000 C 
ATOM     26  O   UNL     1       2.979   5.629  17.789  0.00  0.00    +0.000 OA
ENDBRANCH  19  26
ENDBRANCH   1  22
BRANCH  15  27
ATOM     27  C   UNL     1       0.894  14.127  19.548  0.00  0.00    +0.000 A 
ATOM     28  C   UNL     1       2.117  14.781  19.757  0.00  0.00    +0.000 A 
ATOM     29  C   UNL     1       2.300  16.092  19.318  0.00  0.00    +0.000 A 
ATOM     30  C   UNL     1       1.285  16.761  18.640  0.00  0.00    +0.000 A 
ATOM     31  C   UNL     1       0.075  16.107  18.397  0.00  0.00    +0.000 A 
ATOM     32  C   UNL     1      -0.118  14.794  18.852  0.00  0.00    +0.000 A 
BRANCH  30  33
ATOM     33  O   UNL     1       1.573  18.054  18.303  0.00  0.00    +0.000 OA
ATOM     34  C   UNL     1       1.069  18.498  17.050  0.00  0.00    +0.000 C 
ENDBRANCH  30  33
ENDBRANCH  15  27
TORSDOF 4
ENDMDL
MODEL 8
REMARK VINA RESULT:      -7.0      3.098      4.282
REMARK  Name = 
REMARK  6 active torsions:
REMARK  status: ('A' for Active; 'I' for Inactive)
REMARK    1  A    between atoms: C_1  and  O_2
REMARK    2  A    between atoms: O_2  and  C_3
REMARK    3  A    between atoms: C_6  and  C_7
REMARK    4  A    between atoms: N_21  and  C_22
REMARK    5  A    between atoms: C_25  and  O_26
REMARK    6  A    between atoms: O_26  and  C_27
REMARK                            x       y       z     vdW  Elec       q    Type
REMARK                         _______ _______ _______ _____ _____    ______ ____
ROOT
ATOM      1  C   UNL     1       0.611   9.284  18.642  0.00  0.00    +0.000 A 
ATOM      2  N   UNL     1      -0.343   9.270  17.752  0.00  0.00    +0.000 NA
ATOM      3  C   UNL     1      -1.458  10.089  17.971  0.00  0.00    +0.000 A 
ATOM      4  C   UNL     1      -2.523  10.074  17.101  0.00  0.00    +0.000 A 
ATOM      5  N   UNL     1      -3.642  10.806  17.249  0.00  0.00    +0.000 NA
ATOM      6  C   UNL     1      -3.710  11.644  18.292  0.00  0.00    +0.000 A 
ATOM      7  N   UNL     1      -4.808  12.442  18.415  0.00  0.00    +0.000 N 
ATOM      8  C   UNL     1      -5.902  12.369  17.451  0.00  0.00    +0.000 C 
ATOM      9  C   UNL     1      -7.219  11.989  18.168  0.00  0.00    +0.000 C 
ATOM     10  N   UNL     1      -7.537  12.862  19.317  0.00  0.00    +0.000 NA
ATOM     11  C   UNL     1      -6.400  12.860  20.263  0.00  0.00    +0.000 C 
ATOM     12  C   UNL     1      -5.052  13.246  19.609  0.00  0.00    +0.000 C 
ATOM     13  N   UNL     1      -2.722  11.721  19.194  0.00  0.00    +0.000 NA
ATOM     14  C   UNL     1      -1.622  10.945  19.043  0.00  0.00    +0.000 A 
ATOM     15  N   UNL     1      -0.594  10.960  20.024  0.00  0.00    +0.000 N 
ATOM     16  C   UNL     1       0.569  10.201  19.877  0.00  0.00    +0.000 A 
ATOM     17  O   UNL     1       1.537  10.251  20.614  0.00  0.00    +0.000 OA
ATOM     18  H   UNL     1      -8.365  12.503  19.790  0.00  0.00    +0.000 HD
ENDROOT
BRANCH   1  22
ATOM     19  C   UNL     1       4.015   6.681  18.259  0.00  0.00    +0.000 A 
ATOM     20  C   UNL     1       3.080   6.480  19.281  0.00  0.00    +0.000 A 
ATOM     21  C   UNL     1       1.954   7.302  19.399  0.00  0.00    +0.000 A 
ATOM     22  C   UNL     1       1.762   8.348  18.487  0.00  0.00    +0.000 A 
ATOM     23  C   UNL     1       2.705   8.551  17.476  0.00  0.00    +0.000 A 
ATOM     24  C   UNL     1       3.826   7.727  17.359  0.00  0.00    +0.000 A 
BRANCH  19  26
ATOM     25  C   UNL     1       5.066   4.803  19.259  0.00  0.00    +0.000 C 
ATOM     26  O   UNL     1       5.062   5.805  18.246  0.00  0.00    +0.000 OA
ENDBRANCH  19  26
ENDBRANCH   1  22
BRANCH  15  27
ATOM     27  C   UNL     1      -0.743  11.831  21.137  0.00  0.00    +0.000 A 
ATOM     28  C   UNL     1      -1.420  11.405  22.289  0.00  0.00    +0.000 A 
ATOM     29  C   UNL     1      -1.651  12.292  23.340  0.00  0.00    +0.000 A 
ATOM     30  C   UNL     1      -1.186  13.602  23.277  0.00  0.00    +0.000 A 
ATOM     31  C   UNL     1      -0.480  14.027  22.149  0.00  0.00    +0.000 A 
ATOM     32  C   UNL     1      -0.262  13.142  21.083  0.00  0.00    +0.000 A 
BRANCH  30  33
ATOM     33  O   UNL     1      -1.515  14.381  24.351  0.00  0.00    +0.000 OA
ATOM     34  C   UNL     1      -2.902  14.634  24.535  0.00  0.00    +0.000 C 
ENDBRANCH  30  33
ENDBRANCH  15  27
TORSDOF 4
ENDMDL
MODEL 9
REMARK VINA RESULT:      -6.9      2.912      5.217
REMARK  Name = 
REMARK  6 active torsions:
REMARK  status: ('A' for Active; 'I' for Inactive)
REMARK    1  A    between atoms: C_1  and  O_2
REMARK    2  A    between atoms: O_2  and  C_3
REMARK    3  A    between atoms: C_6  and  C_7
REMARK    4  A    between atoms: N_21  and  C_22
REMARK    5  A    between atoms: C_25  and  O_26
REMARK    6  A    between atoms: O_26  and  C_27
REMARK                            x       y       z     vdW  Elec       q    Type
REMARK                         _______ _______ _______ _____ _____    ______ ____
ROOT
ATOM      1  C   UNL     1       0.402  10.796  20.086  0.00  0.00    +0.000 A 
ATOM      2  N   UNL     1      -0.513  10.711  21.013  0.00  0.00    +0.000 NA
ATOM      3  C   UNL     1      -1.059  11.901  21.510  0.00  0.00    +0.000 A 
ATOM      4  C   UNL     1      -1.983  11.880  22.529  0.00  0.00    +0.000 A 
ATOM      5  N   UNL     1      -2.536  12.973  23.082  0.00  0.00    +0.000 NA
ATOM      6  C   UNL     1      -2.200  14.169  22.580  0.00  0.00    +0.000 A 
ATOM      7  N   UNL     1      -2.806  15.280  23.085  0.00  0.00    +0.000 N 
ATOM      8  C   UNL     1      -3.778  15.179  24.170  0.00  0.00    +0.000 C 
ATOM      9  C   UNL     1      -3.296  15.992  25.394  0.00  0.00    +0.000 C 
ATOM     10  N   UNL     1      -2.953  17.393  25.073  0.00  0.00    +0.000 NA
ATOM     11  C   UNL     1      -1.944  17.415  23.992  0.00  0.00    +0.000 C 
ATOM     12  C   UNL     1      -2.372  16.629  22.731  0.00  0.00    +0.000 C 
ATOM     13  N   UNL     1      -1.304  14.286  21.591  0.00  0.00    +0.000 NA
ATOM     14  C   UNL     1      -0.732  13.171  21.077  0.00  0.00    +0.000 A 
ATOM     15  N   UNL     1       0.272  13.276  20.076  0.00  0.00    +0.000 N 
ATOM     16  C   UNL     1       0.851  12.145  19.498  0.00  0.00    +0.000 A 
ATOM     17  O   UNL     1       1.628  12.155  18.560  0.00  0.00    +0.000 OA
ATOM     18  H   UNL     1      -2.565  17.841  25.901  0.00  0.00    +0.000 HD
ENDROOT
BRANCH   1  22
ATOM     19  C   UNL     1       2.463   7.274  18.725  0.00  0.00    +0.000 A 
ATOM     20  C   UNL     1       2.062   7.389  20.060  0.00  0.00    +0.000 A 
ATOM     21  C   UNL     1       1.366   8.516  20.509  0.00  0.00    +0.000 A 
ATOM     22  C   UNL     1       1.073   9.551  19.612  0.00  0.00    +0.000 A 
ATOM     23  C   UNL     1       1.485   9.436  18.282  0.00  0.00    +0.000 A 
ATOM     24  C   UNL     1       2.177   8.308  17.836  0.00  0.00    +0.000 A 
BRANCH  19  26
ATOM     25  C   UNL     1       4.127   6.218  17.404  0.00  0.00    +0.000 C 
ATOM     26  O   UNL     1       3.124   6.121  18.411  0.00  0.00    +0.000 OA
ENDBRANCH  19  26
ENDBRANCH   1  22
BRANCH  15  27
ATOM     27  C   UNL     1       0.626  14.574  19.616  0.00  0.00    +0.000 A 
ATOM     28  C   UNL     1      -0.212  15.270  18.733  0.00  0.00    +0.000 A 
ATOM     29  C   UNL     1       0.183  16.500  18.207  0.00  0.00    +0.000 A 
ATOM     30  C   UNL     1       1.399  17.070  18.573  0.00  0.00    +0.000 A 
ATOM     31  C   UNL     1       2.225  16.401  19.479  0.00  0.00    +0.000 A 
ATOM     32  C   UNL     1       1.839  15.156  19.996  0.00  0.00    +0.000 A 
BRANCH  30  33
ATOM     33  O   UNL     1       1.688  18.254  17.955  0.00  0.00    +0.000 OA
ATOM     34  C   UNL     1       0.962  18.528  16.763  0.00  0.00    +0.000 C 
ENDBRANCH  30  33
ENDBRANCH  15  27
TORSDOF 4
ENDMDL
