MODEL 1
REMARK VINA RESULT:      -6.8      0.000      0.000
REMARK  Name = 
REMARK  26 active torsions:
REMARK  status: ('A' for Active; 'I' for Inactive)
REMARK    1  A    between atoms: C_1  and  C_2
REMARK    2  A    between atoms: C_2  and  C_3
REMARK    3  A    between atoms: C_3  and  C_4
REMARK    4  A    between atoms: C_4  and  C_5
REMARK    5  A    between atoms: C_5  and  C_6
REMARK    6  A    between atoms: C_6  and  C_7
REMARK    7  A    between atoms: C_7  and  C_8
REMARK    8  A    between atoms: C_8  and  C_9
REMARK    9  A    between atoms: C_8  and  C_14
REMARK   10  A    between atoms: C_9  and  C_10
REMARK   11  A    between atoms: C_10  and  C_12
REMARK   12  A    between atoms: C_12  and  S_13
REMARK   13  A    between atoms: N_16  and  C_17
REMARK   14  A    between atoms: C_17  and  C_18
REMARK   15  A    between atoms: C_17  and  C_22
REMARK   16  A    between atoms: C_18  and  C_19
REMARK   17  A    between atoms: C_19  and  C_20
REMARK   18  A    between atoms: C_19  and  C_21
REMARK   19  A    between atoms: C_25  and  C_27
REMARK   20  A    between atoms: C_27  and  C_28
REMARK   21  A    between atoms: C_27  and  N_32
REMARK   22  A    between atoms: C_28  and  C_29
REMARK   23  A    between atoms: C_29  and  C_30
REMARK   24  A    between atoms: C_29  and  C_31
REMARK   25  A    between atoms: N_32  and  C_33
REMARK   26  A    between atoms: C_33  and  C_34
REMARK                            x       y       z     vdW  Elec       q    Type
REMARK                         _______ _______ _______ _____ _____    ______ ____
ROOT
ATOM      1  C   UNL     1       3.046   5.515  17.809  0.00  0.00    +0.000 C 
ENDROOT
BRANCH   1   2
ATOM      2  C   UNL     1       2.525   6.587  18.804  0.00  0.00    +0.000 C 
ATOM      3  O   UNL     1       2.696   6.402  20.013  0.00  0.00    +0.000 OA
ATOM      4  N   UNL     1       1.963   7.734  18.268  0.00  0.00    +0.000 N 
ATOM      5  C   UNL     1       1.460   8.778  19.058  0.00  0.00    +0.000 C 
ATOM      6  O   UNL     1       1.401   8.744  20.274  0.00  0.00    +0.000 OA
ATOM      7  H   UNL     1       1.751   7.748  17.284  0.00  0.00    +0.000 HD
BRANCH   5   8
ATOM      8  C   UNL     1       0.910  10.041  18.300  0.00  0.00    +0.000 C 
BRANCH   8   9
ATOM      9  N   UNL     1       1.973  11.040  18.076  0.00  0.00    +0.000 NA
ATOM     10  H   UNL     1       2.100  11.228  17.087  0.00  0.00    +0.000 HD
BRANCH   9  11
ATOM     11  C   UNL     1       1.878  12.261  18.859  0.00  0.00    +0.000 C 
ATOM     12  C   UNL     1       2.393  13.431  18.023  0.00  0.00    +0.000 C 
ENDBRANCH   9  11
ENDBRANCH   8   9
BRANCH   8  13
ATOM     13  C   UNL     1      -0.273  10.758  19.017  0.00  0.00    +0.000 C 
BRANCH  13  14
ATOM     14  C   UNL     1      -1.703  10.454  18.479  0.00  0.00    +0.000 C 
ATOM     15  C   UNL     1      -2.603  11.681  18.398  0.00  0.00    +0.000 C 
ATOM     16  C   UNL     1      -1.691   9.859  17.059  0.00  0.00    +0.000 C 
ENDBRANCH  13  14
ENDBRANCH   8  13
ENDBRANCH   5   8
ENDBRANCH   1   2
BRANCH   1  19
ATOM     17  C   UNL     1       5.353   6.313  17.439  0.00  0.00    +0.000 C 
ATOM     18  O   UNL     1       4.956   7.297  16.833  0.00  0.00    +0.000 OA
ATOM     19  N   UNL     1       4.500   5.379  17.954  0.00  0.00    +0.000 N 
ATOM     20  H   UNL     1       4.856   4.512  18.357  0.00  0.00    +0.000 HD
BRANCH  17  21
ATOM     21  C   UNL     1       6.852   6.026  17.570  0.00  0.00    +0.000 C 
BRANCH  21  22
ATOM     22  C   UNL     1       7.272   4.661  17.015  0.00  0.00    +0.000 C 
BRANCH  22  23
ATOM     23  C   UNL     1       6.571   4.149  15.771  0.00  0.00    +0.000 C 
ATOM     24  O   UNL     1       5.630   3.342  15.860  0.00  0.00    +0.000 OA
BRANCH  23  25
ATOM     25  C   UNL     1       7.064   4.686  14.437  0.00  0.00    +0.000 C 
BRANCH  25  26
ATOM     26  S   UNL     1       6.277   3.829  13.045  0.00  0.00    +0.000 S 
ATOM     27  H   UNL     1       7.428   3.372  12.516  0.00  0.00    +0.000 HD
ENDBRANCH  25  26
ENDBRANCH  23  25
ENDBRANCH  22  23
ENDBRANCH  21  22
BRANCH  21  28
ATOM     28  C   UNL     1       7.666   7.243  17.097  0.00  0.00    +0.000 C 
BRANCH  28  29
ATOM     29  C   UNL     1       8.180   8.072  18.292  0.00  0.00    +0.000 C 
BRANCH  29  30
ATOM     30  C   UNL     1       8.250   9.570  18.060  0.00  0.00    +0.000 C 
BRANCH  30  31
ATOM     31  C   UNL     1       9.510  10.097  18.716  0.00  0.00    +0.000 C 
BRANCH  31  32
ATOM     32  C   UNL     1       9.265  11.466  19.292  0.00  0.00    +0.000 C 
BRANCH  32  34
ATOM     33  C   UNL     1      11.362  12.127  20.392  0.00  0.00    +0.000 C 
ATOM     34  C   UNL     1       9.965  11.600  20.632  0.00  0.00    +0.000 C 
ENDBRANCH  32  34
ENDBRANCH  31  32
ENDBRANCH  30  31
ENDBRANCH  29  30
ENDBRANCH  28  29
ENDBRANCH  21  28
ENDBRANCH  17  21
ENDBRANCH   1  19
BRANCH   1  35
ATOM     35  C   UNL     1       2.385   4.130  17.872  0.00  0.00    +0.000 C 
BRANCH  35  36
ATOM     36  C   UNL     1       2.854   3.073  18.909  0.00  0.00    +0.000 C 
ATOM     37  C   UNL     1       1.819   2.717  19.969  0.00  0.00    +0.000 C 
ATOM     38  C   UNL     1       3.350   1.765  18.315  0.00  0.00    +0.000 C 
ENDBRANCH  35  36
ENDBRANCH   1  35
TORSDOF 20
ENDMDL
MODEL 2
REMARK VINA RESULT:      -6.5      1.192      1.406
REMARK  Name = 
REMARK  26 active torsions:
REMARK  status: ('A' for Active; 'I' for Inactive)
REMARK    1  A    between atoms: C_1  and  C_2
REMARK    2  A    between atoms: C_2  and  C_3
REMARK    3  A    between atoms: C_3  and  C_4
REMARK    4  A    between atoms: C_4  and  C_5
REMARK    5  A    between atoms: C_5  and  C_6
REMARK    6  A    between atoms: C_6  and  C_7
REMARK    7  A    between atoms: C_7  and  C_8
REMARK    8  A    between atoms: C_8  and  C_9
REMARK    9  A    between atoms: C_8  and  C_14
REMARK   10  A    between atoms: C_9  and  C_10
REMARK   11  A    between atoms: C_10  and  C_12
REMARK   12  A    between atoms: C_12  and  S_13
REMARK   13  A    between atoms: N_16  and  C_17
REMARK   14  A    between atoms: C_17  and  C_18
REMARK   15  A    between atoms: C_17  and  C_22
REMARK   16  A    between atoms: C_18  and  C_19
REMARK   17  A    between atoms: C_19  and  C_20
REMARK   18  A    between atoms: C_19  and  C_21
REMARK   19  A    between atoms: C_25  and  C_27
REMARK   20  A    between atoms: C_27  and  C_28
REMARK   21  A    between atoms: C_27  and  N_32
REMARK   22  A    between atoms: C_28  and  C_29
REMARK   23  A    between atoms: C_29  and  C_30
REMARK   24  A    between atoms: C_29  and  C_31
REMARK   25  A    between atoms: N_32  and  C_33
REMARK   26  A    between atoms: C_33  and  C_34
REMARK                            x       y       z     vdW  Elec       q    Type
REMARK                         _______ _______ _______ _____ _____    ______ ____
ROOT
ATOM      1  C   UNL     1       2.869   5.352  18.451  0.00  0.00    +0.000 C 
ENDROOT
BRANCH   1   2
ATOM      2  C   UNL     1       2.412   6.559  19.314  0.00  0.00    +0.000 C 
ATOM      3  O   UNL     1       2.657   6.546  20.524  0.00  0.00    +0.000 OA
ATOM      4  N   UNL     1       1.819   7.624  18.656  0.00  0.00    +0.000 N 
ATOM      5  C   UNL     1       1.366   8.774  19.319  0.00  0.00    +0.000 C 
ATOM      6  O   UNL     1       1.383   8.913  20.529  0.00  0.00    +0.000 OA
ATOM      7  H   UNL     1       1.546   7.501  17.695  0.00  0.00    +0.000 HD
BRANCH   5   8
ATOM      8  C   UNL     1       0.772   9.923  18.425  0.00  0.00    +0.000 C 
BRANCH   8   9
ATOM      9  N   UNL     1       1.801  10.923  18.079  0.00  0.00    +0.000 NA
ATOM     10  H   UNL     1       1.846  11.074  17.076  0.00  0.00    +0.000 HD
BRANCH   9  11
ATOM     11  C   UNL     1       1.753  12.172  18.820  0.00  0.00    +0.000 C 
ATOM     12  C   UNL     1       2.569  13.226  18.076  0.00  0.00    +0.000 C 
ENDBRANCH   9  11
ENDBRANCH   8   9
BRANCH   8  13
ATOM     13  C   UNL     1      -0.431  10.679  19.063  0.00  0.00    +0.000 C 
BRANCH  13  14
ATOM     14  C   UNL     1      -1.807  10.530  18.349  0.00  0.00    +0.000 C 
ATOM     15  C   UNL     1      -2.468  11.859  18.004  0.00  0.00    +0.000 C 
ATOM     16  C   UNL     1      -1.708   9.764  17.018  0.00  0.00    +0.000 C 
ENDBRANCH  13  14
ENDBRANCH   8  13
ENDBRANCH   5   8
ENDBRANCH   1   2
BRANCH   1  19
ATOM     17  C   UNL     1       5.330   5.514  18.573  0.00  0.00    +0.000 C 
ATOM     18  O   UNL     1       5.333   5.153  19.741  0.00  0.00    +0.000 OA
ATOM     19  N   UNL     1       4.177   5.646  17.853  0.00  0.00    +0.000 N 
ATOM     20  H   UNL     1       4.188   6.055  16.918  0.00  0.00    +0.000 HD
BRANCH  17  21
ATOM     21  C   UNL     1       6.629   5.934  17.879  0.00  0.00    +0.000 C 
BRANCH  21  22
ATOM     22  C   UNL     1       7.280   4.817  17.055  0.00  0.00    +0.000 C 
BRANCH  22  23
ATOM     23  C   UNL     1       7.030   4.794  15.559  0.00  0.00    +0.000 C 
ATOM     24  O   UNL     1       7.773   5.417  14.782  0.00  0.00    +0.000 OA
BRANCH  23  25
ATOM     25  C   UNL     1       5.852   3.964  15.075  0.00  0.00    +0.000 C 
BRANCH  25  26
ATOM     26  S   UNL     1       5.910   3.714  13.279  0.00  0.00    +0.000 S 
ATOM     27  H   UNL     1       6.426   4.927  13.002  0.00  0.00    +0.000 HD
ENDBRANCH  25  26
ENDBRANCH  23  25
ENDBRANCH  22  23
ENDBRANCH  21  22
BRANCH  21  28
ATOM     28  C   UNL     1       6.439   7.288  17.175  0.00  0.00    +0.000 C 
BRANCH  28  29
ATOM     29  C   UNL     1       7.666   8.200  17.375  0.00  0.00    +0.000 C 
BRANCH  29  30
ATOM     30  C   UNL     1       8.442   7.972  18.660  0.00  0.00    +0.000 C 
BRANCH  30  31
ATOM     31  C   UNL     1       9.008   9.300  19.119  0.00  0.00    +0.000 C 
BRANCH  31  32
ATOM     32  C   UNL     1       8.714  10.371  18.104  0.00  0.00    +0.000 C 
BRANCH  32  34
ATOM     33  C   UNL     1      10.629  11.372  19.276  0.00  0.00    +0.000 C 
ATOM     34  C   UNL     1       9.916  11.284  17.945  0.00  0.00    +0.000 C 
ENDBRANCH  32  34
ENDBRANCH  31  32
ENDBRANCH  30  31
ENDBRANCH  29  30
ENDBRANCH  28  29
ENDBRANCH  21  28
ENDBRANCH  17  21
ENDBRANCH   1  19
BRANCH   1  35
ATOM     35  C   UNL     1       2.911   3.981  19.143  0.00  0.00    +0.000 C 
BRANCH  35  36
ATOM     36  C   UNL     1       1.637   3.383  19.798  0.00  0.00    +0.000 C 
ATOM     37  C   UNL     1       0.856   2.420  18.912  0.00  0.00    +0.000 C 
ATOM     38  C   UNL     1       1.865   2.680  21.125  0.00  0.00    +0.000 C 
ENDBRANCH  35  36
ENDBRANCH   1  35
TORSDOF 20
ENDMDL
MODEL 3
REMARK VINA RESULT:      -6.3      1.945      2.662
REMARK  Name = 
REMARK  26 active torsions:
REMARK  status: ('A' for Active; 'I' for Inactive)
REMARK    1  A    between atoms: C_1  and  C_2
REMARK    2  A    between atoms: C_2  and  C_3
REMARK    3  A    between atoms: C_3  and  C_4
REMARK    4  A    between atoms: C_4  and  C_5
REMARK    5  A    between atoms: C_5  and  C_6
REMARK    6  A    between atoms: C_6  and  C_7
REMARK    7  A    between atoms: C_7  and  C_8
REMARK    8  A    between atoms: C_8  and  C_9
REMARK    9  A    between atoms: C_8  and  C_14
REMARK   10  A    between atoms: C_9  and  C_10
REMARK   11  A    between atoms: C_10  and  C_12
REMARK   12  A    between atoms: C_12  and  S_13
REMARK   13  A    between atoms: N_16  and  C_17
REMARK   14  A    between atoms: C_17  and  C_18
REMARK   15  A    between atoms: C_17  and  C_22
REMARK   16  A    between atoms: C_18  and  C_19
REMARK   17  A    between atoms: C_19  and  C_20
REMARK   18  A    between atoms: C_19  and  C_21
REMARK   19  A    between atoms: C_25  and  C_27
REMARK   20  A    between atoms: C_27  and  C_28
REMARK   21  A    between atoms: C_27  and  N_32
REMARK   22  A    between atoms: C_28  and  C_29
REMARK   23  A    between atoms: C_29  and  C_30
REMARK   24  A    between atoms: C_29  and  C_31
REMARK   25  A    between atoms: N_32  and  C_33
REMARK   26  A    between atoms: C_33  and  C_34
REMARK                            x       y       z     vdW  Elec       q    Type
REMARK                         _______ _______ _______ _____ _____    ______ ____
ROOT
ATOM      1  C   UNL     1       2.708   6.485  18.596  0.00  0.00    +0.000 C 
ENDROOT
BRANCH   1   2
ATOM      2  C   UNL     1       2.282   7.962  18.377  0.00  0.00    +0.000 C 
ATOM      3  O   UNL     1       2.755   8.576  17.415  0.00  0.00    +0.000 OA
ATOM      4  N   UNL     1       1.327   8.483  19.234  0.00  0.00    +0.000 N 
ATOM      5  C   UNL     1       0.854   9.800  19.139  0.00  0.00    +0.000 C 
ATOM      6  O   UNL     1       1.285  10.623  18.352  0.00  0.00    +0.000 OA
ATOM      7  H   UNL     1       1.088   7.960  20.059  0.00  0.00    +0.000 HD
BRANCH   5   8
ATOM      8  C   UNL     1      -0.276  10.224  20.148  0.00  0.00    +0.000 C 
BRANCH   8   9
ATOM      9  N   UNL     1      -1.542  10.513  19.447  0.00  0.00    +0.000 NA
ATOM     10  H   UNL     1      -2.344  10.310  20.036  0.00  0.00    +0.000 HD
BRANCH   9  11
ATOM     11  C   UNL     1      -1.641  11.819  18.818  0.00  0.00    +0.000 C 
ATOM     12  C   UNL     1      -2.103  11.645  17.373  0.00  0.00    +0.000 C 
ENDBRANCH   9  11
ENDBRANCH   8   9
BRANCH   8  13
ATOM     13  C   UNL     1       0.075  11.462  21.025  0.00  0.00    +0.000 C 
BRANCH  13  14
ATOM     14  C   UNL     1      -0.443  11.446  22.495  0.00  0.00    +0.000 C 
ATOM     15  C   UNL     1      -1.780  12.152  22.682  0.00  0.00    +0.000 C 
ATOM     16  C   UNL     1      -0.651  10.021  23.037  0.00  0.00    +0.000 C 
ENDBRANCH  13  14
ENDBRANCH   8  13
ENDBRANCH   5   8
ENDBRANCH   1   2
BRANCH   1  19
ATOM     17  C   UNL     1       4.665   5.322  17.640  0.00  0.00    +0.000 C 
ATOM     18  O   UNL     1       3.957   4.460  17.143  0.00  0.00    +0.000 OA
ATOM     19  N   UNL     1       4.153   6.355  18.373  0.00  0.00    +0.000 N 
ATOM     20  H   UNL     1       4.768   6.999  18.871  0.00  0.00    +0.000 HD
BRANCH  17  21
ATOM     21  C   UNL     1       6.192   5.234  17.546  0.00  0.00    +0.000 C 
BRANCH  21  22
ATOM     22  C   UNL     1       6.690   4.265  16.467  0.00  0.00    +0.000 C 
BRANCH  22  23
ATOM     23  C   UNL     1       6.758   4.763  15.036  0.00  0.00    +0.000 C 
ATOM     24  O   UNL     1       7.720   5.447  14.648  0.00  0.00    +0.000 OA
BRANCH  23  25
ATOM     25  C   UNL     1       5.613   4.367  14.118  0.00  0.00    +0.000 C 
BRANCH  25  26
ATOM     26  S   UNL     1       6.223   3.631  12.576  0.00  0.00    +0.000 S 
ATOM     27  H   UNL     1       7.332   4.392  12.507  0.00  0.00    +0.000 HD
ENDBRANCH  25  26
ENDBRANCH  23  25
ENDBRANCH  22  23
ENDBRANCH  21  22
BRANCH  21  28
ATOM     28  C   UNL     1       6.804   6.645  17.541  0.00  0.00    +0.000 C 
BRANCH  28  29
ATOM     29  C   UNL     1       8.060   6.714  18.433  0.00  0.00    +0.000 C 
BRANCH  29  30
ATOM     30  C   UNL     1       8.455   8.106  18.891  0.00  0.00    +0.000 C 
BRANCH  30  31
ATOM     31  C   UNL     1       8.404   9.035  17.696  0.00  0.00    +0.000 C 
BRANCH  31  32
ATOM     32  C   UNL     1       8.331  10.467  18.152  0.00  0.00    +0.000 C 
BRANCH  32  34
ATOM     33  C   UNL     1      10.415  11.187  19.239  0.00  0.00    +0.000 C 
ATOM     34  C   UNL     1       9.665  11.155  17.926  0.00  0.00    +0.000 C 
ENDBRANCH  32  34
ENDBRANCH  31  32
ENDBRANCH  30  31
ENDBRANCH  29  30
ENDBRANCH  28  29
ENDBRANCH  21  28
ENDBRANCH  17  21
ENDBRANCH   1  19
BRANCH   1  35
ATOM     35  C   UNL     1       2.330   5.846  19.940  0.00  0.00    +0.000 C 
BRANCH  35  36
ATOM     36  C   UNL     1       1.424   4.587  19.995  0.00  0.00    +0.000 C 
ATOM     37  C   UNL     1       1.298   3.834  18.676  0.00  0.00    +0.000 C 
ATOM     38  C   UNL     1       1.803   3.567  21.055  0.00  0.00    +0.000 C 
ENDBRANCH  35  36
ENDBRANCH   1  35
TORSDOF 20
ENDMDL
MODEL 4
REMARK VINA RESULT:      -6.3      1.498      1.864
REMARK  Name = 
REMARK  26 active torsions:
REMARK  status: ('A' for Active; 'I' for Inactive)
REMARK    1  A    between atoms: C_1  and  C_2
REMARK    2  A    between atoms: C_2  and  C_3
REMARK    3  A    between atoms: C_3  and  C_4
REMARK    4  A    between atoms: C_4  and  C_5
REMARK    5  A    between atoms: C_5  and  C_6
REMARK    6  A    between atoms: C_6  and  C_7
REMARK    7  A    between atoms: C_7  and  C_8
REMARK    8  A    between atoms: C_8  and  C_9
REMARK    9  A    between atoms: C_8  and  C_14
REMARK   10  A    between atoms: C_9  and  C_10
REMARK   11  A    between atoms: C_10  and  C_12
REMARK   12  A    between atoms: C_12  and  S_13
REMARK   13  A    between atoms: N_16  and  C_17
REMARK   14  A    between atoms: C_17  and  C_18
REMARK   15  A    between atoms: C_17  and  C_22
REMARK   16  A    between atoms: C_18  and  C_19
REMARK   17  A    between atoms: C_19  and  C_20
REMARK   18  A    between atoms: C_19  and  C_21
REMARK   19  A    between atoms: C_25  and  C_27
REMARK   20  A    between atoms: C_27  and  C_28
REMARK   21  A    between atoms: C_27  and  N_32
REMARK   22  A    between atoms: C_28  and  C_29
REMARK   23  A    between atoms: C_29  and  C_30
REMARK   24  A    between atoms: C_29  and  C_31
REMARK   25  A    between atoms: N_32  and  C_33
REMARK   26  A    between atoms: C_33  and  C_34
REMARK                            x       y       z     vdW  Elec       q    Type
REMARK                         _______ _______ _______ _____ _____    ______ ____
ROOT
ATOM      1  C   UNL     1       2.425   6.138  19.595  0.00  0.00    +0.000 C 
ENDROOT
BRANCH   1   2
ATOM      2  C   UNL     1       1.816   7.475  20.097  0.00  0.00    +0.000 C 
ATOM      3  O   UNL     1       1.834   7.713  21.310  0.00  0.00    +0.000 OA
ATOM      4  N   UNL     1       1.356   8.365  19.141  0.00  0.00    +0.000 N 
ATOM      5  C   UNL     1       0.789   9.607  19.464  0.00  0.00    +0.000 C 
ATOM      6  O   UNL     1       0.582   9.985  20.602  0.00  0.00    +0.000 OA
ATOM      7  H   UNL     1       1.266   8.043  18.192  0.00  0.00    +0.000 HD
BRANCH   5   8
ATOM      8  C   UNL     1       0.372  10.532  18.262  0.00  0.00    +0.000 C 
BRANCH   8   9
ATOM      9  N   UNL     1       1.120  11.803  18.276  0.00  0.00    +0.000 NA
ATOM     10  H   UNL     1       1.666  11.919  17.428  0.00  0.00    +0.000 HD
BRANCH   9  11
ATOM     11  C   UNL     1       0.351  12.994  18.600  0.00  0.00    +0.000 C 
ATOM     12  C   UNL     1       0.853  13.568  19.922  0.00  0.00    +0.000 C 
ENDBRANCH   9  11
ENDBRANCH   8   9
BRANCH   8  13
ATOM     13  C   UNL     1      -1.147  10.874  18.211  0.00  0.00    +0.000 C 
BRANCH  13  14
ATOM     14  C   UNL     1      -2.013  10.058  17.204  0.00  0.00    +0.000 C 
ATOM     15  C   UNL     1      -3.296   9.500  17.809  0.00  0.00    +0.000 C 
ATOM     16  C   UNL     1      -2.460  10.892  15.991  0.00  0.00    +0.000 C 
ENDBRANCH  13  14
ENDBRANCH   8  13
ENDBRANCH   5   8
ENDBRANCH   1   2
BRANCH   1  19
ATOM     17  C   UNL     1       4.065   5.759  17.789  0.00  0.00    +0.000 C 
ATOM     18  O   UNL     1       3.339   4.937  17.251  0.00  0.00    +0.000 OA
ATOM     19  N   UNL     1       3.712   6.402  18.941  0.00  0.00    +0.000 N 
ATOM     20  H   UNL     1       4.378   6.999  19.433  0.00  0.00    +0.000 HD
BRANCH  17  21
ATOM     21  C   UNL     1       5.467   6.044  17.242  0.00  0.00    +0.000 C 
BRANCH  21  22
ATOM     22  C   UNL     1       5.626   5.727  15.751  0.00  0.00    +0.000 C 
BRANCH  22  23
ATOM     23  C   UNL     1       6.592   4.628  15.352  0.00  0.00    +0.000 C 
ATOM     24  O   UNL     1       7.754   4.614  15.792  0.00  0.00    +0.000 OA
BRANCH  23  25
ATOM     25  C   UNL     1       6.059   3.555  14.416  0.00  0.00    +0.000 C 
BRANCH  25  26
ATOM     26  S   UNL     1       6.521   3.888  12.693  0.00  0.00    +0.000 S 
ATOM     27  H   UNL     1       5.594   4.845  12.501  0.00  0.00    +0.000 HD
ENDBRANCH  25  26
ENDBRANCH  23  25
ENDBRANCH  22  23
ENDBRANCH  21  22
BRANCH  21  28
ATOM     28  C   UNL     1       5.945   7.430  17.707  0.00  0.00    +0.000 C 
BRANCH  28  29
ATOM     29  C   UNL     1       7.485   7.518  17.713  0.00  0.00    +0.000 C 
BRANCH  29  30
ATOM     30  C   UNL     1       8.056   8.907  17.489  0.00  0.00    +0.000 C 
BRANCH  30  31
ATOM     31  C   UNL     1       8.829   9.311  18.728  0.00  0.00    +0.000 C 
BRANCH  31  32
ATOM     32  C   UNL     1       9.028  10.802  18.755  0.00  0.00    +0.000 C 
BRANCH  32  34
ATOM     33  C   UNL     1      10.352  12.591  17.710  0.00  0.00    +0.000 C 
ATOM     34  C   UNL     1      10.391  11.157  18.190  0.00  0.00    +0.000 C 
ENDBRANCH  32  34
ENDBRANCH  31  32
ENDBRANCH  30  31
ENDBRANCH  29  30
ENDBRANCH  28  29
ENDBRANCH  21  28
ENDBRANCH  17  21
ENDBRANCH   1  19
BRANCH   1  35
ATOM     35  C   UNL     1       2.588   5.017  20.633  0.00  0.00    +0.000 C 
BRANCH  35  36
ATOM     36  C   UNL     1       2.162   3.562  20.303  0.00  0.00    +0.000 C 
ATOM     37  C   UNL     1       3.306   2.635  19.911  0.00  0.00    +0.000 C 
ATOM     38  C   UNL     1       1.376   2.858  21.397  0.00  0.00    +0.000 C 
ENDBRANCH  35  36
ENDBRANCH   1  35
TORSDOF 20
ENDMDL
MODEL 5
REMARK VINA RESULT:      -6.2      2.643      5.227
REMARK  Name = 
REMARK  26 active torsions:
REMARK  status: ('A' for Active; 'I' for Inactive)
REMARK    1  A    between atoms: C_1  and  C_2
REMARK    2  A    between atoms: C_2  and  C_3
REMARK    3  A    between atoms: C_3  and  C_4
REMARK    4  A    between atoms: C_4  and  C_5
REMARK    5  A    between atoms: C_5  and  C_6
REMARK    6  A    between atoms: C_6  and  C_7
REMARK    7  A    between atoms: C_7  and  C_8
REMARK    8  A    between atoms: C_8  and  C_9
REMARK    9  A    between atoms: C_8  and  C_14
REMARK   10  A    between atoms: C_9  and  C_10
REMARK   11  A    between atoms: C_10  and  C_12
REMARK   12  A    between atoms: C_12  and  S_13
REMARK   13  A    between atoms: N_16  and  C_17
REMARK   14  A    between atoms: C_17  and  C_18
REMARK   15  A    between atoms: C_17  and  C_22
REMARK   16  A    between atoms: C_18  and  C_19
REMARK   17  A    between atoms: C_19  and  C_20
REMARK   18  A    between atoms: C_19  and  C_21
REMARK   19  A    between atoms: C_25  and  C_27
REMARK   20  A    between atoms: C_27  and  C_28
REMARK   21  A    between atoms: C_27  and  N_32
REMARK   22  A    between atoms: C_28  and  C_29
REMARK   23  A    between atoms: C_29  and  C_30
REMARK   24  A    between atoms: C_29  and  C_31
REMARK   25  A    between atoms: N_32  and  C_33
REMARK   26  A    between atoms: C_33  and  C_34
REMARK                            x       y       z     vdW  Elec       q    Type
REMARK                         _______ _______ _______ _____ _____    ______ ____
ROOT
ATOM      1  C   UNL     1       2.504   5.237  18.622  0.00  0.00    +0.000 C 
ENDROOT
BRANCH   1   2
ATOM      2  C   UNL     1       2.303   6.244  19.786  0.00  0.00    +0.000 C 
ATOM      3  O   UNL     1       2.797   5.980  20.887  0.00  0.00    +0.000 OA
ATOM      4  N   UNL     1       1.643   7.427  19.497  0.00  0.00    +0.000 N 
ATOM      5  C   UNL     1       1.402   8.420  20.458  0.00  0.00    +0.000 C 
ATOM      6  O   UNL     1       1.680   8.308  21.638  0.00  0.00    +0.000 OA
ATOM      7  H   UNL     1       1.168   7.508  18.614  0.00  0.00    +0.000 HD
BRANCH   5   8
ATOM      8  C   UNL     1       0.695   9.735  19.961  0.00  0.00    +0.000 C 
BRANCH   8   9
ATOM      9  N   UNL     1      -0.474  10.067  20.798  0.00  0.00    +0.000 NA
ATOM     10  H   UNL     1      -0.917   9.229  21.161  0.00  0.00    +0.000 HD
BRANCH   9  11
ATOM     11  C   UNL     1      -0.257  11.064  21.832  0.00  0.00    +0.000 C 
ATOM     12  C   UNL     1      -0.947  10.611  23.116  0.00  0.00    +0.000 C 
ENDBRANCH   9  11
ENDBRANCH   8   9
BRANCH   8  13
ATOM     13  C   UNL     1       0.222   9.689  18.478  0.00  0.00    +0.000 C 
BRANCH  13  14
ATOM     14  C   UNL     1      -1.177  10.304  18.172  0.00  0.00    +0.000 C 
ATOM     15  C   UNL     1      -1.164  11.821  18.030  0.00  0.00    +0.000 C 
ATOM     16  C   UNL     1      -1.788   9.773  16.863  0.00  0.00    +0.000 C 
ENDBRANCH  13  14
ENDBRANCH   8  13
ENDBRANCH   5   8
ENDBRANCH   1   2
BRANCH   1  19
ATOM     17  C   UNL     1       4.799   5.632  17.804  0.00  0.00    +0.000 C 
ATOM     18  O   UNL     1       5.281   5.025  18.749  0.00  0.00    +0.000 OA
ATOM     19  N   UNL     1       3.452   5.794  17.650  0.00  0.00    +0.000 N 
ATOM     20  H   UNL     1       3.078   6.398  16.918  0.00  0.00    +0.000 HD
BRANCH  17  21
ATOM     21  C   UNL     1       5.700   6.331  16.781  0.00  0.00    +0.000 C 
BRANCH  21  22
ATOM     22  C   UNL     1       7.195   6.234  17.104  0.00  0.00    +0.000 C 
BRANCH  22  23
ATOM     23  C   UNL     1       7.786   7.249  18.066  0.00  0.00    +0.000 C 
ATOM     24  O   UNL     1       8.300   6.884  19.136  0.00  0.00    +0.000 OA
BRANCH  23  25
ATOM     25  C   UNL     1       7.730   8.707  17.639  0.00  0.00    +0.000 C 
BRANCH  25  26
ATOM     26  S   UNL     1       8.863   9.729  18.622  0.00  0.00    +0.000 S 
ATOM     27  H   UNL     1       8.007   9.912  19.645  0.00  0.00    +0.000 HD
ENDBRANCH  25  26
ENDBRANCH  23  25
ENDBRANCH  22  23
ENDBRANCH  21  22
BRANCH  21  28
ATOM     28  C   UNL     1       5.278   5.944  15.353  0.00  0.00    +0.000 C 
BRANCH  28  29
ATOM     29  C   UNL     1       5.133   4.416  15.207  0.00  0.00    +0.000 C 
BRANCH  29  30
ATOM     30  C   UNL     1       6.257   3.726  14.456  0.00  0.00    +0.000 C 
BRANCH  30  31
ATOM     31  C   UNL     1       6.612   4.568  13.247  0.00  0.00    +0.000 C 
BRANCH  31  32
ATOM     32  C   UNL     1       6.708   3.703  12.019  0.00  0.00    +0.000 C 
BRANCH  32  34
ATOM     33  C   UNL     1       4.377   3.312  11.345  0.00  0.00    +0.000 C 
ATOM     34  C   UNL     1       5.582   2.686  12.009  0.00  0.00    +0.000 C 
ENDBRANCH  32  34
ENDBRANCH  31  32
ENDBRANCH  30  31
ENDBRANCH  29  30
ENDBRANCH  28  29
ENDBRANCH  21  28
ENDBRANCH  17  21
ENDBRANCH   1  19
BRANCH   1  35
ATOM     35  C   UNL     1       2.929   3.811  19.004  0.00  0.00    +0.000 C 
BRANCH  35  36
ATOM     36  C   UNL     1       1.874   2.752  19.423  0.00  0.00    +0.000 C 
ATOM     37  C   UNL     1       1.511   2.763  20.903  0.00  0.00    +0.000 C 
ATOM     38  C   UNL     1       0.570   2.802  18.645  0.00  0.00    +0.000 C 
ENDBRANCH  35  36
ENDBRANCH   1  35
TORSDOF 20
ENDMDL
MODEL 6
REMARK VINA RESULT:      -6.2      2.514      5.314
REMARK  Name = 
REMARK  26 active torsions:
REMARK  status: ('A' for Active; 'I' for Inactive)
REMARK    1  A    between atoms: C_1  and  C_2
REMARK    2  A    between atoms: C_2  and  C_3
REMARK    3  A    between atoms: C_3  and  C_4
REMARK    4  A    between atoms: C_4  and  C_5
REMARK    5  A    between atoms: C_5  and  C_6
REMARK    6  A    between atoms: C_6  and  C_7
REMARK    7  A    between atoms: C_7  and  C_8
REMARK    8  A    between atoms: C_8  and  C_9
REMARK    9  A    between atoms: C_8  and  C_14
REMARK   10  A    between atoms: C_9  and  C_10
REMARK   11  A    between atoms: C_10  and  C_12
REMARK   12  A    between atoms: C_12  and  S_13
REMARK   13  A    between atoms: N_16  and  C_17
REMARK   14  A    between atoms: C_17  and  C_18
REMARK   15  A    between atoms: C_17  and  C_22
REMARK   16  A    between atoms: C_18  and  C_19
REMARK   17  A    between atoms: C_19  and  C_20
REMARK   18  A    between atoms: C_19  and  C_21
REMARK   19  A    between atoms: C_25  and  C_27
REMARK   20  A    between atoms: C_27  and  C_28
REMARK   21  A    between atoms: C_27  and  N_32
REMARK   22  A    between atoms: C_28  and  C_29
REMARK   23  A    between atoms: C_29  and  C_30
REMARK   24  A    between atoms: C_29  and  C_31
REMARK   25  A    between atoms: N_32  and  C_33
REMARK   26  A    between atoms: C_33  and  C_34
REMARK                            x       y       z     vdW  Elec       q    Type
REMARK                         _______ _______ _______ _____ _____    ______ ____
ROOT
ATOM      1  C   UNL     1       2.618   6.323  18.923  0.00  0.00    +0.000 C 
ENDROOT
BRANCH   1   2
ATOM      2  C   UNL     1       2.029   7.555  19.662  0.00  0.00    +0.000 C 
ATOM      3  O   UNL     1       2.224   7.663  20.877  0.00  0.00    +0.000 OA
ATOM      4  N   UNL     1       1.382   8.509  18.895  0.00  0.00    +0.000 N 
ATOM      5  C   UNL     1       0.811   9.668  19.440  0.00  0.00    +0.000 C 
ATOM      6  O   UNL     1       0.766   9.909  20.633  0.00  0.00    +0.000 OA
ATOM      7  H   UNL     1       1.160   8.285  17.939  0.00  0.00    +0.000 HD
BRANCH   5   8
ATOM      8  C   UNL     1       0.165  10.686  18.429  0.00  0.00    +0.000 C 
BRANCH   8   9
ATOM      9  N   UNL     1       0.789  12.019  18.535  0.00  0.00    +0.000 NA
ATOM     10  H   UNL     1       1.040  12.382  17.621  0.00  0.00    +0.000 HD
BRANCH   9  11
ATOM     11  C   UNL     1       0.073  12.998  19.336  0.00  0.00    +0.000 C 
ATOM     12  C   UNL     1       0.166  14.363  18.656  0.00  0.00    +0.000 C 
ENDBRANCH   9  11
ENDBRANCH   8   9
BRANCH   8  13
ATOM     13  C   UNL     1      -1.373  10.866  18.592  0.00  0.00    +0.000 C 
BRANCH  13  14
ATOM     14  C   UNL     1      -2.196  11.063  17.283  0.00  0.00    +0.000 C 
ATOM     15  C   UNL     1      -2.409   9.777  16.493  0.00  0.00    +0.000 C 
ATOM     16  C   UNL     1      -3.605  11.624  17.544  0.00  0.00    +0.000 C 
ENDBRANCH  13  14
ENDBRANCH   8  13
ENDBRANCH   5   8
ENDBRANCH   1   2
BRANCH   1  19
ATOM     17  C   UNL     1       4.366   5.912  17.228  0.00  0.00    +0.000 C 
ATOM     18  O   UNL     1       3.901   4.814  16.960  0.00  0.00    +0.000 OA
ATOM     19  N   UNL     1       3.815   6.727  18.175  0.00  0.00    +0.000 N 
ATOM     20  H   UNL     1       4.282   7.587  18.461  0.00  0.00    +0.000 HD
BRANCH  17  21
ATOM     21  C   UNL     1       5.664   6.393  16.573  0.00  0.00    +0.000 C 
BRANCH  21  22
ATOM     22  C   UNL     1       6.932   5.954  17.313  0.00  0.00    +0.000 C 
BRANCH  22  23
ATOM     23  C   UNL     1       7.703   7.001  18.095  0.00  0.00    +0.000 C 
ATOM     24  O   UNL     1       8.323   6.694  19.127  0.00  0.00    +0.000 OA
BRANCH  23  25
ATOM     25  C   UNL     1       7.688   8.416  17.540  0.00  0.00    +0.000 C 
BRANCH  25  26
ATOM     26  S   UNL     1       8.734   9.525  18.524  0.00  0.00    +0.000 S 
ATOM     27  H   UNL     1       9.496   8.545  19.045  0.00  0.00    +0.000 HD
ENDBRANCH  25  26
ENDBRANCH  23  25
ENDBRANCH  22  23
ENDBRANCH  21  22
BRANCH  21  28
ATOM     28  C   UNL     1       5.622   6.125  15.058  0.00  0.00    +0.000 C 
BRANCH  28  29
ATOM     29  C   UNL     1       6.430   4.864  14.691  0.00  0.00    +0.000 C 
BRANCH  29  30
ATOM     30  C   UNL     1       5.655   3.791  13.948  0.00  0.00    +0.000 C 
BRANCH  30  31
ATOM     31  C   UNL     1       6.227   3.670  12.550  0.00  0.00    +0.000 C 
BRANCH  31  32
ATOM     32  C   UNL     1       5.257   2.953  11.650  0.00  0.00    +0.000 C 
BRANCH  32  34
ATOM     33  C   UNL     1       7.238   1.628  11.047  0.00  0.00    +0.000 C 
ATOM     34  C   UNL     1       5.759   1.552  11.354  0.00  0.00    +0.000 C 
ENDBRANCH  32  34
ENDBRANCH  31  32
ENDBRANCH  30  31
ENDBRANCH  29  30
ENDBRANCH  28  29
ENDBRANCH  21  28
ENDBRANCH  17  21
ENDBRANCH   1  19
BRANCH   1  35
ATOM     35  C   UNL     1       2.933   5.086  19.778  0.00  0.00    +0.000 C 
BRANCH  35  36
ATOM     36  C   UNL     1       2.069   3.801  19.664  0.00  0.00    +0.000 C 
ATOM     37  C   UNL     1       1.084   3.591  20.807  0.00  0.00    +0.000 C 
ATOM     38  C   UNL     1       1.284   3.667  18.370  0.00  0.00    +0.000 C 
ENDBRANCH  35  36
ENDBRANCH   1  35
TORSDOF 20
ENDMDL
MODEL 7
REMARK VINA RESULT:      -6.2      3.213      8.331
REMARK  Name = 
REMARK  26 active torsions:
REMARK  status: ('A' for Active; 'I' for Inactive)
REMARK    1  A    between atoms: C_1  and  C_2
REMARK    2  A    between atoms: C_2  and  C_3
REMARK    3  A    between atoms: C_3  and  C_4
REMARK    4  A    between atoms: C_4  and  C_5
REMARK    5  A    between atoms: C_5  and  C_6
REMARK    6  A    between atoms: C_6  and  C_7
REMARK    7  A    between atoms: C_7  and  C_8
REMARK    8  A    between atoms: C_8  and  C_9
REMARK    9  A    between atoms: C_8  and  C_14
REMARK   10  A    between atoms: C_9  and  C_10
REMARK   11  A    between atoms: C_10  and  C_12
REMARK   12  A    between atoms: C_12  and  S_13
REMARK   13  A    between atoms: N_16  and  C_17
REMARK   14  A    between atoms: C_17  and  C_18
REMARK   15  A    between atoms: C_17  and  C_22
REMARK   16  A    between atoms: C_18  and  C_19
REMARK   17  A    between atoms: C_19  and  C_20
REMARK   18  A    between atoms: C_19  and  C_21
REMARK   19  A    between atoms: C_25  and  C_27
REMARK   20  A    between atoms: C_27  and  C_28
REMARK   21  A    between atoms: C_27  and  N_32
REMARK   22  A    between atoms: C_28  and  C_29
REMARK   23  A    between atoms: C_29  and  C_30
REMARK   24  A    between atoms: C_29  and  C_31
REMARK   25  A    between atoms: N_32  and  C_33
REMARK   26  A    between atoms: C_33  and  C_34
REMARK                            x       y       z     vdW  Elec       q    Type
REMARK                         _______ _______ _______ _____ _____    ______ ____
ROOT
ATOM      1  C   UNL     1       2.700   5.313  19.139  0.00  0.00    +0.000 C 
ENDROOT
BRANCH   1   2
ATOM      2  C   UNL     1       4.215   5.142  19.433  0.00  0.00    +0.000 C 
ATOM      3  O   UNL     1       4.555   4.668  20.522  0.00  0.00    +0.000 OA
ATOM      4  N   UNL     1       5.101   5.462  18.418  0.00  0.00    +0.000 N 
ATOM      5  C   UNL     1       6.493   5.348  18.556  0.00  0.00    +0.000 C 
ATOM      6  O   UNL     1       7.051   5.032  19.591  0.00  0.00    +0.000 OA
ATOM      7  H   UNL     1       4.751   5.955  17.614  0.00  0.00    +0.000 HD
BRANCH   5   8
ATOM      8  C   UNL     1       7.363   5.690  17.291  0.00  0.00    +0.000 C 
BRANCH   8   9
ATOM      9  N   UNL     1       6.987   6.997  16.717  0.00  0.00    +0.000 NA
ATOM     10  H   UNL     1       6.154   6.921  16.143  0.00  0.00    +0.000 HD
BRANCH   9  11
ATOM     11  C   UNL     1       6.909   8.107  17.652  0.00  0.00    +0.000 C 
ATOM     12  C   UNL     1       8.320   8.617  17.940  0.00  0.00    +0.000 C 
ENDBRANCH   9  11
ENDBRANCH   8   9
BRANCH   8  13
ATOM     13  C   UNL     1       7.288   4.630  16.152  0.00  0.00    +0.000 C 
BRANCH  13  14
ATOM     14  C   UNL     1       6.354   4.962  14.950  0.00  0.00    +0.000 C 
ATOM     15  C   UNL     1       6.939   4.585  13.594  0.00  0.00    +0.000 C 
ATOM     16  C   UNL     1       5.000   4.234  15.030  0.00  0.00    +0.000 C 
ENDBRANCH  13  14
ENDBRANCH   8  13
ENDBRANCH   5   8
ENDBRANCH   1   2
BRANCH   1  19
ATOM     17  C   UNL     1       1.675   7.173  20.397  0.00  0.00    +0.000 C 
ATOM     18  O   UNL     1       1.363   6.430  21.315  0.00  0.00    +0.000 OA
ATOM     19  N   UNL     1       2.330   6.726  19.285  0.00  0.00    +0.000 N 
ATOM     20  H   UNL     1       2.480   7.339  18.484  0.00  0.00    +0.000 HD
BRANCH  17  21
ATOM     21  C   UNL     1       1.258   8.647  20.406  0.00  0.00    +0.000 C 
BRANCH  21  22
ATOM     22  C   UNL     1       1.252   9.297  19.018  0.00  0.00    +0.000 C 
BRANCH  22  23
ATOM     23  C   UNL     1       0.575  10.646  18.863  0.00  0.00    +0.000 C 
ATOM     24  O   UNL     1      -0.506  10.748  18.259  0.00  0.00    +0.000 OA
BRANCH  23  25
ATOM     25  C   UNL     1       1.274  11.839  19.496  0.00  0.00    +0.000 C 
BRANCH  25  26
ATOM     26  S   UNL     1       2.292  12.729  18.286  0.00  0.00    +0.000 S 
ATOM     27  H   UNL     1       1.252  13.193  17.568  0.00  0.00    +0.000 HD
ENDBRANCH  25  26
ENDBRANCH  23  25
ENDBRANCH  22  23
ENDBRANCH  21  22
BRANCH  21  28
ATOM     28  C   UNL     1      -0.009   8.833  21.259  0.00  0.00    +0.000 C 
BRANCH  28  29
ATOM     29  C   UNL     1       0.267   9.726  22.485  0.00  0.00    +0.000 C 
BRANCH  29  30
ATOM     30  C   UNL     1      -0.966  10.275  23.179  0.00  0.00    +0.000 C 
BRANCH  30  31
ATOM     31  C   UNL     1      -1.082  11.750  22.852  0.00  0.00    +0.000 C 
BRANCH  31  32
ATOM     32  C   UNL     1      -2.519  12.189  22.932  0.00  0.00    +0.000 C 
BRANCH  32  34
ATOM     33  C   UNL     1      -3.707  13.602  24.557  0.00  0.00    +0.000 C 
ATOM     34  C   UNL     1      -2.605  13.586  23.522  0.00  0.00    +0.000 C 
ENDBRANCH  32  34
ENDBRANCH  31  32
ENDBRANCH  30  31
ENDBRANCH  29  30
ENDBRANCH  28  29
ENDBRANCH  21  28
ENDBRANCH  17  21
ENDBRANCH   1  19
BRANCH   1  35
ATOM     35  C   UNL     1       2.191   4.779  17.792  0.00  0.00    +0.000 C 
BRANCH  35  36
ATOM     36  C   UNL     1       1.768   3.293  17.635  0.00  0.00    +0.000 C 
ATOM     37  C   UNL     1       2.925   2.307  17.535  0.00  0.00    +0.000 C 
ATOM     38  C   UNL     1       0.833   2.774  18.714  0.00  0.00    +0.000 C 
ENDBRANCH  35  36
ENDBRANCH   1  35
TORSDOF 20
ENDMDL
MODEL 8
REMARK VINA RESULT:      -6.1      1.647      2.220
REMARK  Name = 
REMARK  26 active torsions:
REMARK  status: ('A' for Active; 'I' for Inactive)
REMARK    1  A    between atoms: C_1  and  C_2
REMARK    2  A    between atoms: C_2  and  C_3
REMARK    3  A    between atoms: C_3  and  C_4
REMARK    4  A    between atoms: C_4  and  C_5
REMARK    5  A    between atoms: C_5  and  C_6
REMARK    6  A    between atoms: C_6  and  C_7
REMARK    7  A    between atoms: C_7  and  C_8
REMARK    8  A    between atoms: C_8  and  C_9
REMARK    9  A    between atoms: C_8  and  C_14
REMARK   10  A    between atoms: C_9  and  C_10
REMARK   11  A    between atoms: C_10  and  C_12
REMARK   12  A    between atoms: C_12  and  S_13
REMARK   13  A    between atoms: N_16  and  C_17
REMARK   14  A    between atoms: C_17  and  C_18
REMARK   15  A    between atoms: C_17  and  C_22
REMARK   16  A    between atoms: C_18  and  C_19
REMARK   17  A    between atoms: C_19  and  C_20
REMARK   18  A    between atoms: C_19  and  C_21
REMARK   19  A    between atoms: C_25  and  C_27
REMARK   20  A    between atoms: C_27  and  C_28
REMARK   21  A    between atoms: C_27  and  N_32
REMARK   22  A    between atoms: C_28  and  C_29
REMARK   23  A    between atoms: C_29  and  C_30
REMARK   24  A    between atoms: C_29  and  C_31
REMARK   25  A    between atoms: N_32  and  C_33
REMARK   26  A    between atoms: C_33  and  C_34
REMARK                            x       y       z     vdW  Elec       q    Type
REMARK                         _______ _______ _______ _____ _____    ______ ____
ROOT
ATOM      1  C   UNL     1       2.600   5.864  18.175  0.00  0.00    +0.000 C 
ENDROOT
BRANCH   1   2
ATOM      2  C   UNL     1       2.675   7.405  18.001  0.00  0.00    +0.000 C 
ATOM      3  O   UNL     1       3.564   7.875  17.283  0.00  0.00    +0.000 OA
ATOM      4  N   UNL     1       1.684   8.163  18.602  0.00  0.00    +0.000 N 
ATOM      5  C   UNL     1       1.637   9.562  18.518  0.00  0.00    +0.000 C 
ATOM      6  O   UNL     1       2.490  10.241  17.976  0.00  0.00    +0.000 OA
ATOM      7  H   UNL     1       1.075   7.715  19.266  0.00  0.00    +0.000 HD
BRANCH   5   8
ATOM      8  C   UNL     1       0.414  10.275  19.203  0.00  0.00    +0.000 C 
BRANCH   8   9
ATOM      9  N   UNL     1       0.530  10.247  20.674  0.00  0.00    +0.000 NA
ATOM     10  H   UNL     1       1.417   9.850  20.966  0.00  0.00    +0.000 HD
BRANCH   9  11
ATOM     11  C   UNL     1       0.233  11.493  21.362  0.00  0.00    +0.000 C 
ATOM     12  C   UNL     1      -0.816  11.230  22.440  0.00  0.00    +0.000 C 
ENDBRANCH   9  11
ENDBRANCH   8   9
BRANCH   8  13
ATOM     13  C   UNL     1      -0.974   9.679  18.824  0.00  0.00    +0.000 C 
BRANCH  13  14
ATOM     14  C   UNL     1      -2.069  10.692  18.373  0.00  0.00    +0.000 C 
ATOM     15  C   UNL     1      -1.518  12.058  17.981  0.00  0.00    +0.000 C 
ATOM     16  C   UNL     1      -2.865  10.203  17.149  0.00  0.00    +0.000 C 
ENDBRANCH  13  14
ENDBRANCH   8  13
ENDBRANCH   5   8
ENDBRANCH   1   2
BRANCH   1  19
ATOM     17  C   UNL     1       4.905   4.993  18.322  0.00  0.00    +0.000 C 
ATOM     18  O   UNL     1       4.974   5.269  19.510  0.00  0.00    +0.000 OA
ATOM     19  N   UNL     1       3.789   5.245  17.576  0.00  0.00    +0.000 N 
ATOM     20  H   UNL     1       3.793   5.111  16.565  0.00  0.00    +0.000 HD
BRANCH  17  21
ATOM     21  C   UNL     1       6.119   4.428  17.577  0.00  0.00    +0.000 C 
BRANCH  21  22
ATOM     22  C   UNL     1       5.817   3.997  16.138  0.00  0.00    +0.000 C 
BRANCH  22  23
ATOM     23  C   UNL     1       5.990   5.023  15.033  0.00  0.00    +0.000 C 
ATOM     24  O   UNL     1       5.379   6.103  15.069  0.00  0.00    +0.000 OA
BRANCH  23  25
ATOM     25  C   UNL     1       6.953   4.665  13.913  0.00  0.00    +0.000 C 
BRANCH  25  26
ATOM     26  S   UNL     1       6.166   3.590  12.680  0.00  0.00    +0.000 S 
ATOM     27  H   UNL     1       5.514   2.829  13.579  0.00  0.00    +0.000 HD
ENDBRANCH  25  26
ENDBRANCH  23  25
ENDBRANCH  22  23
ENDBRANCH  21  22
BRANCH  21  28
ATOM     28  C   UNL     1       7.337   5.345  17.781  0.00  0.00    +0.000 C 
BRANCH  28  29
ATOM     29  C   UNL     1       6.903   6.801  18.046  0.00  0.00    +0.000 C 
BRANCH  29  30
ATOM     30  C   UNL     1       7.736   7.863  17.351  0.00  0.00    +0.000 C 
BRANCH  30  31
ATOM     31  C   UNL     1       8.482   8.653  18.407  0.00  0.00    +0.000 C 
BRANCH  31  32
ATOM     32  C   UNL     1       8.322  10.129  18.165  0.00  0.00    +0.000 C 
BRANCH  32  34
ATOM     33  C   UNL     1       9.944  11.161  19.697  0.00  0.00    +0.000 C 
ATOM     34  C   UNL     1       9.670  10.821  18.249  0.00  0.00    +0.000 C 
ENDBRANCH  32  34
ENDBRANCH  31  32
ENDBRANCH  30  31
ENDBRANCH  29  30
ENDBRANCH  28  29
ENDBRANCH  21  28
ENDBRANCH  17  21
ENDBRANCH   1  19
BRANCH   1  35
ATOM     35  C   UNL     1       2.402   5.336  19.603  0.00  0.00    +0.000 C 
BRANCH  35  36
ATOM     36  C   UNL     1       1.332   4.254  19.910  0.00  0.00    +0.000 C 
ATOM     37  C   UNL     1       1.161   3.199  18.823  0.00  0.00    +0.000 C 
ATOM     38  C   UNL     1       1.523   3.513  21.222  0.00  0.00    +0.000 C 
ENDBRANCH  35  36
ENDBRANCH   1  35
TORSDOF 20
ENDMDL
MODEL 9
REMARK VINA RESULT:      -6.1      3.065      5.714
REMARK  Name = 
REMARK  26 active torsions:
REMARK  status: ('A' for Active; 'I' for Inactive)
REMARK    1  A    between atoms: C_1  and  C_2
REMARK    2  A    between atoms: C_2  and  C_3
REMARK    3  A    between atoms: C_3  and  C_4
REMARK    4  A    between atoms: C_4  and  C_5
REMARK    5  A    between atoms: C_5  and  C_6
REMARK    6  A    between atoms: C_6  and  C_7
REMARK    7  A    between atoms: C_7  and  C_8
REMARK    8  A    between atoms: C_8  and  C_9
REMARK    9  A    between atoms: C_8  and  C_14
REMARK   10  A    between atoms: C_9  and  C_10
REMARK   11  A    between atoms: C_10  and  C_12
REMARK   12  A    between atoms: C_12  and  S_13
REMARK   13  A    between atoms: N_16  and  C_17
REMARK   14  A    between atoms: C_17  and  C_18
REMARK   15  A    between atoms: C_17  and  C_22
REMARK   16  A    between atoms: C_18  and  C_19
REMARK   17  A    between atoms: C_19  and  C_20
REMARK   18  A    between atoms: C_19  and  C_21
REMARK   19  A    between atoms: C_25  and  C_27
REMARK   20  A    between atoms: C_27  and  C_28
REMARK   21  A    between atoms: C_27  and  N_32
REMARK   22  A    between atoms: C_28  and  C_29
REMARK   23  A    between atoms: C_29  and  C_30
REMARK   24  A    between atoms: C_29  and  C_31
REMARK   25  A    between atoms: N_32  and  C_33
REMARK   26  A    between atoms: C_33  and  C_34
REMARK                            x       y       z     vdW  Elec       q    Type
REMARK                         _______ _______ _______ _____ _____    ______ ____
ROOT
ATOM      1  C   UNL     1       2.513   6.560  18.590  0.00  0.00    +0.000 C 
ENDROOT
BRANCH   1   2
ATOM      2  C   UNL     1       2.295   8.067  18.286  0.00  0.00    +0.000 C 
ATOM      3  O   UNL     1       2.799   8.542  17.263  0.00  0.00    +0.000 OA
ATOM      4  N   UNL     1       1.475   8.778  19.147  0.00  0.00    +0.000 N 
ATOM      5  C   UNL     1       1.194  10.142  18.981  0.00  0.00    +0.000 C 
ATOM      6  O   UNL     1       1.696  10.841  18.119  0.00  0.00    +0.000 OA
ATOM      7  H   UNL     1       1.208   8.350  20.017  0.00  0.00    +0.000 HD
BRANCH   5   8
ATOM      8  C   UNL     1       0.195  10.793  20.006  0.00  0.00    +0.000 C 
BRANCH   8   9
ATOM      9  N   UNL     1       0.912  11.547  21.052  0.00  0.00    +0.000 NA
ATOM     10  H   UNL     1       1.918  11.451  20.952  0.00  0.00    +0.000 HD
BRANCH   9  11
ATOM     11  C   UNL     1       0.510  12.933  21.230  0.00  0.00    +0.000 C 
ATOM     12  C   UNL     1       0.192  13.540  19.866  0.00  0.00    +0.000 C 
ENDBRANCH   9  11
ENDBRANCH   8   9
BRANCH   8  13
ATOM     13  C   UNL     1      -0.751   9.779  20.715  0.00  0.00    +0.000 C 
BRANCH  13  14
ATOM     14  C   UNL     1      -0.336   9.318  22.144  0.00  0.00    +0.000 C 
ATOM     15  C   UNL     1       1.172   9.228  22.347  0.00  0.00    +0.000 C 
ATOM     16  C   UNL     1      -0.842  10.266  23.246  0.00  0.00    +0.000 C 
ENDBRANCH  13  14
ENDBRANCH   8  13
ENDBRANCH   5   8
ENDBRANCH   1   2
BRANCH   1  19
ATOM     17  C   UNL     1       3.963   5.071  17.259  0.00  0.00    +0.000 C 
ATOM     18  O   UNL     1       3.007   4.401  16.897  0.00  0.00    +0.000 OA
ATOM     19  N   UNL     1       3.829   6.146  18.089  0.00  0.00    +0.000 N 
ATOM     20  H   UNL     1       4.649   6.621  18.468  0.00  0.00    +0.000 HD
BRANCH  17  21
ATOM     21  C   UNL     1       5.391   4.673  16.869  0.00  0.00    +0.000 C 
BRANCH  21  22
ATOM     22  C   UNL     1       6.240   4.183  18.047  0.00  0.00    +0.000 C 
BRANCH  22  23
ATOM     23  C   UNL     1       7.650   4.727  18.186  0.00  0.00    +0.000 C 
ATOM     24  O   UNL     1       8.623   4.084  17.757  0.00  0.00    +0.000 OA
BRANCH  23  25
ATOM     25  C   UNL     1       7.796   6.085  18.851  0.00  0.00    +0.000 C 
BRANCH  25  26
ATOM     26  S   UNL     1       7.568   7.435  17.659  0.00  0.00    +0.000 S 
ATOM     27  H   UNL     1       6.298   7.704  18.020  0.00  0.00    +0.000 HD
ENDBRANCH  25  26
ENDBRANCH  23  25
ENDBRANCH  22  23
ENDBRANCH  21  22
BRANCH  21  28
ATOM     28  C   UNL     1       5.367   3.780  15.617  0.00  0.00    +0.000 C 
BRANCH  28  29
ATOM     29  C   UNL     1       6.290   4.337  14.514  0.00  0.00    +0.000 C 
BRANCH  29  30
ATOM     30  C   UNL     1       6.229   3.605  13.186  0.00  0.00    +0.000 C 
BRANCH  30  31
ATOM     31  C   UNL     1       4.778   3.507  12.760  0.00  0.00    +0.000 C 
BRANCH  31  32
ATOM     32  C   UNL     1       4.647   3.786  11.287  0.00  0.00    +0.000 C 
BRANCH  32  34
ATOM     33  C   UNL     1       2.886   4.015   9.586  0.00  0.00    +0.000 C 
ATOM     34  C   UNL     1       3.362   3.180  10.754  0.00  0.00    +0.000 C 
ENDBRANCH  32  34
ENDBRANCH  31  32
ENDBRANCH  30  31
ENDBRANCH  29  30
ENDBRANCH  28  29
ENDBRANCH  21  28
ENDBRANCH  17  21
ENDBRANCH   1  19
BRANCH   1  35
ATOM     35  C   UNL     1       2.349   6.117  20.051  0.00  0.00    +0.000 C 
BRANCH  35  36
ATOM     36  C   UNL     1       1.966   4.653  20.399  0.00  0.00    +0.000 C 
ATOM     37  C   UNL     1       0.958   4.015  19.451  0.00  0.00    +0.000 C 
ATOM     38  C   UNL     1       3.137   3.692  20.515  0.00  0.00    +0.000 C 
ENDBRANCH  35  36
ENDBRANCH   1  35
TORSDOF 20
ENDMDL
