MODEL 1
REMARK VINA RESULT:      -7.6      0.000      0.000
REMARK  Name = 
REMARK  3 active torsions:
REMARK  status: ('A' for Active; 'I' for Inactive)
REMARK    1  A    between atoms: C_1  and  N_2
REMARK    2  A    between atoms: C_3  and  C_4
REMARK    3  A    between atoms: C_5  and  C_6
REMARK                            x       y       z     vdW  Elec       q    Type
REMARK                         _______ _______ _______ _____ _____    ______ ____
ROOT
ATOM      1  C   UNL     1       7.835   5.574  19.726  0.00  0.00    +0.000 C 
ATOM      2  N   UNL     1       7.357   6.160  18.495  0.00  0.00    +0.000 N 
ATOM      3  C   UNL     1       7.647   7.394  17.936  0.00  0.00    +0.000 A 
ATOM      4  N   UNL     1       6.992   7.536  16.796  0.00  0.00    +0.000 NA
ATOM      5  C   UNL     1       6.289   6.377  16.599  0.00  0.00    +0.000 A 
ATOM      6  C   UNL     1       5.455   6.005  15.536  0.00  0.00    +0.000 A 
ATOM      7  C   UNL     1       4.844   4.743  15.564  0.00  0.00    +0.000 A 
ATOM      8  C   UNL     1       5.062   3.871  16.632  0.00  0.00    +0.000 A 
ATOM      9  C   UNL     1       5.893   4.227  17.700  0.00  0.00    +0.000 A 
ATOM     10  C   UNL     1       6.494   5.492  17.648  0.00  0.00    +0.000 A 
ENDROOT
BRANCH   3  11
ATOM     11  C   UNL     1       8.556   8.305  18.545  0.00  0.00    +0.000 C 
ATOM     12  C   UNL     1       8.520   9.613  18.229  0.00  0.00    +0.000 C 
BRANCH  12  13
ATOM     13  C   UNL     1       9.473  10.622  18.732  0.00  0.00    +0.000 A 
ATOM     14  C   UNL     1       9.514  10.876  20.110  0.00  0.00    +0.000 A 
ATOM     15  C   UNL     1      10.367  11.852  20.636  0.00  0.00    +0.000 A 
ATOM     16  C   UNL     1      11.200  12.578  19.789  0.00  0.00    +0.000 A 
ATOM     17  C   UNL     1      11.199  12.312  18.423  0.00  0.00    +0.000 A 
ATOM     18  C   UNL     1      10.348  11.333  17.899  0.00  0.00    +0.000 A 
ENDBRANCH  12  13
ENDBRANCH   3  11
TORSDOF 2
ENDMDL
MODEL 2
REMARK VINA RESULT:      -7.6      0.108      1.139
REMARK  Name = 
REMARK  3 active torsions:
REMARK  status: ('A' for Active; 'I' for Inactive)
REMARK    1  A    between atoms: C_1  and  N_2
REMARK    2  A    between atoms: C_3  and  C_4
REMARK    3  A    between atoms: C_5  and  C_6
REMARK                            x       y       z     vdW  Elec       q    Type
REMARK                         _______ _______ _______ _____ _____    ______ ____
ROOT
ATOM      1  C   UNL     1       7.958   5.539  19.668  0.00  0.00    +0.000 C 
ATOM      2  N   UNL     1       7.440   6.162  18.473  0.00  0.00    +0.000 N 
ATOM      3  C   UNL     1       7.683   7.426  17.963  0.00  0.00    +0.000 A 
ATOM      4  N   UNL     1       7.002   7.597  16.841  0.00  0.00    +0.000 NA
ATOM      5  C   UNL     1       6.331   6.426  16.607  0.00  0.00    +0.000 A 
ATOM      6  C   UNL     1       5.488   6.074  15.543  0.00  0.00    +0.000 A 
ATOM      7  C   UNL     1       4.916   4.794  15.529  0.00  0.00    +0.000 A 
ATOM      8  C   UNL     1       5.179   3.885  16.554  0.00  0.00    +0.000 A 
ATOM      9  C   UNL     1       6.019   4.221  17.621  0.00  0.00    +0.000 A 
ATOM     10  C   UNL     1       6.581   5.504  17.614  0.00  0.00    +0.000 A 
ENDROOT
BRANCH   3  11
ATOM     11  C   UNL     1       8.576   8.338  18.594  0.00  0.00    +0.000 C 
ATOM     12  C   UNL     1       8.545   9.646  18.280  0.00  0.00    +0.000 C 
BRANCH  12  13
ATOM     13  C   UNL     1       9.483  10.656  18.806  0.00  0.00    +0.000 A 
ATOM     14  C   UNL     1      10.300  11.348  17.900  0.00  0.00    +0.000 A 
ATOM     15  C   UNL     1      11.238  12.285  18.347  0.00  0.00    +0.000 A 
ATOM     16  C   UNL     1      11.360  12.552  19.708  0.00  0.00    +0.000 A 
ATOM     17  C   UNL     1      10.530  11.902  20.618  0.00  0.00    +0.000 A 
ATOM     18  C   UNL     1       9.590  10.968  20.168  0.00  0.00    +0.000 A 
ENDBRANCH  12  13
ENDBRANCH   3  11
TORSDOF 2
ENDMDL
MODEL 3
REMARK VINA RESULT:      -7.4      5.351      7.475
REMARK  Name = 
REMARK  3 active torsions:
REMARK  status: ('A' for Active; 'I' for Inactive)
REMARK    1  A    between atoms: C_1  and  N_2
REMARK    2  A    between atoms: C_3  and  C_4
REMARK    3  A    between atoms: C_5  and  C_6
REMARK                            x       y       z     vdW  Elec       q    Type
REMARK                         _______ _______ _______ _____ _____    ______ ____
ROOT
ATOM      1  C   UNL     1       5.204   5.442  18.911  0.00  0.00    +0.000 C 
ATOM      2  N   UNL     1       4.305   4.347  18.629  0.00  0.00    +0.000 N 
ATOM      3  C   UNL     1       4.283   3.482  17.548  0.00  0.00    +0.000 A 
ATOM      4  N   UNL     1       3.288   2.621  17.681  0.00  0.00    +0.000 NA
ATOM      5  C   UNL     1       2.672   2.912  18.870  0.00  0.00    +0.000 A 
ATOM      6  C   UNL     1       1.581   2.287  19.491  0.00  0.00    +0.000 A 
ATOM      7  C   UNL     1       1.135   2.777  20.726  0.00  0.00    +0.000 A 
ATOM      8  C   UNL     1       1.763   3.867  21.328  0.00  0.00    +0.000 A 
ATOM      9  C   UNL     1       2.854   4.500  20.723  0.00  0.00    +0.000 A 
ATOM     10  C   UNL     1       3.284   3.992  19.489  0.00  0.00    +0.000 A 
ENDROOT
BRANCH   3  11
ATOM     11  C   UNL     1       5.248   3.552  16.503  0.00  0.00    +0.000 C 
ATOM     12  C   UNL     1       5.000   4.277  15.397  0.00  0.00    +0.000 C 
BRANCH  12  13
ATOM     13  C   UNL     1       5.890   4.343  14.221  0.00  0.00    +0.000 A 
ATOM     14  C   UNL     1       5.598   3.532  13.115  0.00  0.00    +0.000 A 
ATOM     15  C   UNL     1       6.432   3.522  11.992  0.00  0.00    +0.000 A 
ATOM     16  C   UNL     1       7.561   4.336  11.956  0.00  0.00    +0.000 A 
ATOM     17  C   UNL     1       7.843   5.176  13.030  0.00  0.00    +0.000 A 
ATOM     18  C   UNL     1       7.007   5.187  14.151  0.00  0.00    +0.000 A 
ENDBRANCH  12  13
ENDBRANCH   3  11
TORSDOF 2
ENDMDL
MODEL 4
REMARK VINA RESULT:      -7.4      5.848      7.428
REMARK  Name = 
REMARK  3 active torsions:
REMARK  status: ('A' for Active; 'I' for Inactive)
REMARK    1  A    between atoms: C_1  and  N_2
REMARK    2  A    between atoms: C_3  and  C_4
REMARK    3  A    between atoms: C_5  and  C_6
REMARK                            x       y       z     vdW  Elec       q    Type
REMARK                         _______ _______ _______ _____ _____    ______ ____
ROOT
ATOM      1  C   UNL     1       2.978   6.473  17.906  0.00  0.00    +0.000 C 
ATOM      2  N   UNL     1       3.439   5.168  18.320  0.00  0.00    +0.000 N 
ATOM      3  C   UNL     1       4.396   4.349  17.744  0.00  0.00    +0.000 A 
ATOM      4  N   UNL     1       4.513   3.233  18.445  0.00  0.00    +0.000 NA
ATOM      5  C   UNL     1       3.643   3.337  19.498  0.00  0.00    +0.000 A 
ATOM      6  C   UNL     1       3.393   2.440  20.546  0.00  0.00    +0.000 A 
ATOM      7  C   UNL     1       2.444   2.784  21.519  0.00  0.00    +0.000 A 
ATOM      8  C   UNL     1       1.758   3.996  21.446  0.00  0.00    +0.000 A 
ATOM      9  C   UNL     1       1.996   4.903  20.408  0.00  0.00    +0.000 A 
ATOM     10  C   UNL     1       2.950   4.539  19.448  0.00  0.00    +0.000 A 
ENDROOT
BRANCH   3  11
ATOM     11  C   UNL     1       5.129   4.739  16.588  0.00  0.00    +0.000 C 
ATOM     12  C   UNL     1       5.213   3.916  15.527  0.00  0.00    +0.000 C 
BRANCH  12  13
ATOM     13  C   UNL     1       6.019   4.184  14.320  0.00  0.00    +0.000 A 
ATOM     14  C   UNL     1       5.688   3.516  13.132  0.00  0.00    +0.000 A 
ATOM     15  C   UNL     1       6.445   3.699  11.970  0.00  0.00    +0.000 A 
ATOM     16  C   UNL     1       7.535   4.565  11.978  0.00  0.00    +0.000 A 
ATOM     17  C   UNL     1       7.853   5.266  13.138  0.00  0.00    +0.000 A 
ATOM     18  C   UNL     1       7.093   5.084  14.299  0.00  0.00    +0.000 A 
ENDBRANCH  12  13
ENDBRANCH   3  11
TORSDOF 2
ENDMDL
MODEL 5
REMARK VINA RESULT:      -7.3      5.370      7.443
REMARK  Name = 
REMARK  3 active torsions:
REMARK  status: ('A' for Active; 'I' for Inactive)
REMARK    1  A    between atoms: C_1  and  N_2
REMARK    2  A    between atoms: C_3  and  C_4
REMARK    3  A    between atoms: C_5  and  C_6
REMARK                            x       y       z     vdW  Elec       q    Type
REMARK                         _______ _______ _______ _____ _____    ______ ____
ROOT
ATOM      1  C   UNL     1       5.304   5.314  18.895  0.00  0.00    +0.000 C 
ATOM      2  N   UNL     1       4.288   4.335  18.587  0.00  0.00    +0.000 N 
ATOM      3  C   UNL     1       4.168   3.507  17.483  0.00  0.00    +0.000 A 
ATOM      4  N   UNL     1       3.082   2.760  17.597  0.00  0.00    +0.000 NA
ATOM      5  C   UNL     1       2.505   3.086  18.796  0.00  0.00    +0.000 A 
ATOM      6  C   UNL     1       1.351   2.571  19.405  0.00  0.00    +0.000 A 
ATOM      7  C   UNL     1       0.964   3.074  20.655  0.00  0.00    +0.000 A 
ATOM      8  C   UNL     1       1.712   4.070  21.284  0.00  0.00    +0.000 A 
ATOM      9  C   UNL     1       2.866   4.593  20.690  0.00  0.00    +0.000 A 
ATOM     10  C   UNL     1       3.235   4.074  19.442  0.00  0.00    +0.000 A 
ENDROOT
BRANCH   3  11
ATOM     11  C   UNL     1       5.133   3.497  16.436  0.00  0.00    +0.000 C 
ATOM     12  C   UNL     1       4.996   4.317  15.378  0.00  0.00    +0.000 C 
BRANCH  12  13
ATOM     13  C   UNL     1       5.887   4.322  14.202  0.00  0.00    +0.000 A 
ATOM     14  C   UNL     1       7.011   5.160  14.216  0.00  0.00    +0.000 A 
ATOM     15  C   UNL     1       7.865   5.237  13.110  0.00  0.00    +0.000 A 
ATOM     16  C   UNL     1       7.612   4.463  11.981  0.00  0.00    +0.000 A 
ATOM     17  C   UNL     1       6.522   3.596  11.966  0.00  0.00    +0.000 A 
ATOM     18  C   UNL     1       5.671   3.518  13.073  0.00  0.00    +0.000 A 
ENDBRANCH  12  13
ENDBRANCH   3  11
TORSDOF 2
ENDMDL
MODEL 6
REMARK VINA RESULT:      -7.3      5.978      7.465
REMARK  Name = 
REMARK  3 active torsions:
REMARK  status: ('A' for Active; 'I' for Inactive)
REMARK    1  A    between atoms: C_1  and  N_2
REMARK    2  A    between atoms: C_3  and  C_4
REMARK    3  A    between atoms: C_5  and  C_6
REMARK                            x       y       z     vdW  Elec       q    Type
REMARK                         _______ _______ _______ _____ _____    ______ ____
ROOT
ATOM      1  C   UNL     1       3.723   1.501  18.148  0.00  0.00    +0.000 C 
ATOM      2  N   UNL     1       3.579   2.934  18.257  0.00  0.00    +0.000 N 
ATOM      3  C   UNL     1       4.063   3.933  17.429  0.00  0.00    +0.000 A 
ATOM      4  N   UNL     1       3.703   5.117  17.895  0.00  0.00    +0.000 NA
ATOM      5  C   UNL     1       2.959   4.887  19.022  0.00  0.00    +0.000 A 
ATOM      6  C   UNL     1       2.323   5.797  19.878  0.00  0.00    +0.000 A 
ATOM      7  C   UNL     1       1.608   5.305  20.978  0.00  0.00    +0.000 A 
ATOM      8  C   UNL     1       1.529   3.933  21.219  0.00  0.00    +0.000 A 
ATOM      9  C   UNL     1       2.156   3.011  20.374  0.00  0.00    +0.000 A 
ATOM     10  C   UNL     1       2.863   3.527  19.280  0.00  0.00    +0.000 A 
ENDROOT
BRANCH   3  11
ATOM     11  C   UNL     1       4.802   3.643  16.247  0.00  0.00    +0.000 C 
ATOM     12  C   UNL     1       5.353   4.640  15.529  0.00  0.00    +0.000 C 
BRANCH  12  13
ATOM     13  C   UNL     1       6.058   4.457  14.246  0.00  0.00    +0.000 A 
ATOM     14  C   UNL     1       7.214   5.213  14.003  0.00  0.00    +0.000 A 
ATOM     15  C   UNL     1       7.897   5.112  12.786  0.00  0.00    +0.000 A 
ATOM     16  C   UNL     1       7.439   4.240  11.802  0.00  0.00    +0.000 A 
ATOM     17  C   UNL     1       6.316   3.453  12.042  0.00  0.00    +0.000 A 
ATOM     18  C   UNL     1       5.636   3.553  13.261  0.00  0.00    +0.000 A 
ENDBRANCH  12  13
ENDBRANCH   3  11
TORSDOF 2
ENDMDL
MODEL 7
REMARK VINA RESULT:      -7.1      6.039      7.516
REMARK  Name = 
REMARK  3 active torsions:
REMARK  status: ('A' for Active; 'I' for Inactive)
REMARK    1  A    between atoms: C_1  and  N_2
REMARK    2  A    between atoms: C_3  and  C_4
REMARK    3  A    between atoms: C_5  and  C_6
REMARK                            x       y       z     vdW  Elec       q    Type
REMARK                         _______ _______ _______ _____ _____    ______ ____
ROOT
ATOM      1  C   UNL     1       3.768   1.700  17.813  0.00  0.00    +0.000 C 
ATOM      2  N   UNL     1       3.677   3.097  18.172  0.00  0.00    +0.000 N 
ATOM      3  C   UNL     1       4.349   4.187  17.644  0.00  0.00    +0.000 A 
ATOM      4  N   UNL     1       3.970   5.292  18.264  0.00  0.00    +0.000 NA
ATOM      5  C   UNL     1       3.027   4.922  19.186  0.00  0.00    +0.000 A 
ATOM      6  C   UNL     1       2.293   5.710  20.085  0.00  0.00    +0.000 A 
ATOM      7  C   UNL     1       1.370   5.085  20.935  0.00  0.00    +0.000 A 
ATOM      8  C   UNL     1       1.183   3.703  20.890  0.00  0.00    +0.000 A 
ATOM      9  C   UNL     1       1.905   2.903  19.998  0.00  0.00    +0.000 A 
ATOM     10  C   UNL     1       2.821   3.549  19.156  0.00  0.00    +0.000 A 
ENDROOT
BRANCH   3  11
ATOM     11  C   UNL     1       5.272   4.058  16.567  0.00  0.00    +0.000 C 
ATOM     12  C   UNL     1       4.970   4.549  15.351  0.00  0.00    +0.000 C 
BRANCH  12  13
ATOM     13  C   UNL     1       5.813   4.390  14.150  0.00  0.00    +0.000 A 
ATOM     14  C   UNL     1       5.368   3.538  13.129  0.00  0.00    +0.000 A 
ATOM     15  C   UNL     1       6.147   3.316  11.988  0.00  0.00    +0.000 A 
ATOM     16  C   UNL     1       7.376   3.956  11.849  0.00  0.00    +0.000 A 
ATOM     17  C   UNL     1       7.814   4.835  12.836  0.00  0.00    +0.000 A 
ATOM     18  C   UNL     1       7.032   5.058  13.975  0.00  0.00    +0.000 A 
ENDBRANCH  12  13
ENDBRANCH   3  11
TORSDOF 2
ENDMDL
MODEL 8
REMARK VINA RESULT:      -7.0      4.549      7.750
REMARK  Name = 
REMARK  3 active torsions:
REMARK  status: ('A' for Active; 'I' for Inactive)
REMARK    1  A    between atoms: C_1  and  N_2
REMARK    2  A    between atoms: C_3  and  C_4
REMARK    3  A    between atoms: C_5  and  C_6
REMARK                            x       y       z     vdW  Elec       q    Type
REMARK                         _______ _______ _______ _____ _____    ______ ____
ROOT
ATOM      1  C   UNL     1       7.069   5.965  16.742  0.00  0.00    +0.000 C 
ATOM      2  N   UNL     1       6.482   5.027  15.814  0.00  0.00    +0.000 N 
ATOM      3  C   UNL     1       5.460   4.113  16.014  0.00  0.00    +0.000 A 
ATOM      4  N   UNL     1       5.230   3.445  14.896  0.00  0.00    +0.000 NA
ATOM      5  C   UNL     1       6.091   3.943  13.955  0.00  0.00    +0.000 A 
ATOM      6  C   UNL     1       6.242   3.597  12.605  0.00  0.00    +0.000 A 
ATOM      7  C   UNL     1       7.206   4.266  11.838  0.00  0.00    +0.000 A 
ATOM      8  C   UNL     1       8.004   5.259  12.407  0.00  0.00    +0.000 A 
ATOM      9  C   UNL     1       7.865   5.617  13.753  0.00  0.00    +0.000 A 
ATOM     10  C   UNL     1       6.894   4.936  14.499  0.00  0.00    +0.000 A 
ENDROOT
BRANCH   3  11
ATOM     11  C   UNL     1       4.782   3.997  17.261  0.00  0.00    +0.000 C 
ATOM     12  C   UNL     1       3.446   3.842  17.296  0.00  0.00    +0.000 C 
BRANCH  12  13
ATOM     13  C   UNL     1       2.639   3.803  18.531  0.00  0.00    +0.000 A 
ATOM     14  C   UNL     1       3.017   4.623  19.604  0.00  0.00    +0.000 A 
ATOM     15  C   UNL     1       2.314   4.594  20.813  0.00  0.00    +0.000 A 
ATOM     16  C   UNL     1       1.214   3.754  20.958  0.00  0.00    +0.000 A 
ATOM     17  C   UNL     1       0.801   2.963  19.890  0.00  0.00    +0.000 A 
ATOM     18  C   UNL     1       1.503   2.995  18.680  0.00  0.00    +0.000 A 
ENDBRANCH  12  13
ENDBRANCH   3  11
TORSDOF 2
ENDMDL
MODEL 9
REMARK VINA RESULT:      -7.0      4.538      7.848
REMARK  Name = 
REMARK  3 active torsions:
REMARK  status: ('A' for Active; 'I' for Inactive)
REMARK    1  A    between atoms: C_1  and  N_2
REMARK    2  A    between atoms: C_3  and  C_4
REMARK    3  A    between atoms: C_5  and  C_6
REMARK                            x       y       z     vdW  Elec       q    Type
REMARK                         _______ _______ _______ _____ _____    ______ ____
ROOT
ATOM      1  C   UNL     1       6.785   6.135  16.776  0.00  0.00    +0.000 C 
ATOM      2  N   UNL     1       6.159   5.195  15.876  0.00  0.00    +0.000 N 
ATOM      3  C   UNL     1       5.037   4.406  16.066  0.00  0.00    +0.000 A 
ATOM      4  N   UNL     1       4.806   3.684  14.983  0.00  0.00    +0.000 NA
ATOM      5  C   UNL     1       5.770   4.023  14.071  0.00  0.00    +0.000 A 
ATOM      6  C   UNL     1       5.965   3.566  12.760  0.00  0.00    +0.000 A 
ATOM      7  C   UNL     1       7.038   4.078  12.017  0.00  0.00    +0.000 A 
ATOM      8  C   UNL     1       7.900   5.024  12.572  0.00  0.00    +0.000 A 
ATOM      9  C   UNL     1       7.719   5.492  13.878  0.00  0.00    +0.000 A 
ATOM     10  C   UNL     1       6.638   4.968  14.600  0.00  0.00    +0.000 A 
ENDROOT
BRANCH   3  11
ATOM     11  C   UNL     1       4.277   4.450  17.270  0.00  0.00    +0.000 C 
ATOM     12  C   UNL     1       3.920   3.310  17.889  0.00  0.00    +0.000 C 
BRANCH  12  13
ATOM     13  C   UNL     1       3.059   3.242  19.086  0.00  0.00    +0.000 A 
ATOM     14  C   UNL     1       1.776   3.804  19.021  0.00  0.00    +0.000 A 
ATOM     15  C   UNL     1       0.935   3.806  20.139  0.00  0.00    +0.000 A 
ATOM     16  C   UNL     1       1.362   3.231  21.333  0.00  0.00    +0.000 A 
ATOM     17  C   UNL     1       2.618   2.634  21.402  0.00  0.00    +0.000 A 
ATOM     18  C   UNL     1       3.457   2.630  20.283  0.00  0.00    +0.000 A 
ENDBRANCH  12  13
ENDBRANCH   3  11
TORSDOF 2
ENDMDL
