MODEL 1
REMARK VINA RESULT:      -6.8      0.000      0.000
REMARK  Name = 
REMARK  5 active torsions:
REMARK  status: ('A' for Active; 'I' for Inactive)
REMARK    1  A    between atoms: C_1  and  O_2
REMARK    2  A    between atoms: O_2  and  C_3
REMARK    3  A    between atoms: C_5  and  C_6
REMARK    4  A    between atoms: C_8  and  N_9
REMARK    5  A    between atoms: C_10  and  C_11
REMARK                            x       y       z     vdW  Elec       q    Type
REMARK                         _______ _______ _______ _____ _____    ______ ____
ROOT
ATOM      1  N   UNL     1       2.142   6.174  20.245  0.00  0.00    +0.000 NA
ATOM      2  C   UNL     1       2.197   7.396  19.820  0.00  0.00    +0.000 C 
ENDROOT
BRANCH   2   3
ATOM      3  C   UNL     1       1.362   8.462  20.419  0.00  0.00    +0.000 A 
ATOM      4  C   UNL     1       1.108   8.433  21.800  0.00  0.00    +0.000 A 
ATOM      5  C   UNL     1       0.317   9.419  22.394  0.00  0.00    +0.000 A 
ATOM      6  C   UNL     1      -0.224  10.436  21.611  0.00  0.00    +0.000 A 
ATOM      7 CL   UNL     1      -1.204  11.647  22.340  0.00  0.00    +0.000 Cl
ATOM      8  C   UNL     1       0.022  10.480  20.240  0.00  0.00    +0.000 A 
ATOM      9  C   UNL     1       0.815   9.495  19.641  0.00  0.00    +0.000 A 
ATOM     10 CL   UNL     1       1.069   9.623  17.937  0.00  0.00    +0.000 Cl
ENDBRANCH   2   3
BRANCH   1  16
ATOM     11  C   UNL     1       4.948   4.455  19.015  0.00  0.00    +0.000 A 
ATOM     12  N   UNL     1       4.421   3.423  18.361  0.00  0.00    +0.000 NA
ATOM     13  C   UNL     1       3.092   3.369  18.382  0.00  0.00    +0.000 A 
ATOM     14  C   UNL     1       2.431   2.212  17.704  0.00  0.00    +0.000 C 
ATOM     15  N   UNL     1       2.309   4.253  18.997  0.00  0.00    +0.000 NA
ATOM     16  C   UNL     1       2.958   5.232  19.615  0.00  0.00    +0.000 A 
ATOM     17  N   UNL     1       4.273   5.397  19.656  0.00  0.00    +0.000 NA
BRANCH  11  19
ATOM     18  C   UNL     1       6.935   4.714  17.810  0.00  0.00    +0.000 C 
ATOM     19  O   UNL     1       6.320   4.588  19.086  0.00  0.00    +0.000 OA
ENDBRANCH  11  19
ENDBRANCH   1  16
TORSDOF 3
ENDMDL
MODEL 2
REMARK VINA RESULT:      -6.7      4.737      6.807
REMARK  Name = 
REMARK  5 active torsions:
REMARK  status: ('A' for Active; 'I' for Inactive)
REMARK    1  A    between atoms: C_1  and  O_2
REMARK    2  A    between atoms: O_2  and  C_3
REMARK    3  A    between atoms: C_5  and  C_6
REMARK    4  A    between atoms: C_8  and  N_9
REMARK    5  A    between atoms: C_10  and  C_11
REMARK                            x       y       z     vdW  Elec       q    Type
REMARK                         _______ _______ _______ _____ _____    ______ ____
ROOT
ATOM      1  N   UNL     1       5.842   4.361  15.981  0.00  0.00    +0.000 NA
ATOM      2  C   UNL     1       4.601   4.059  16.198  0.00  0.00    +0.000 C 
ENDROOT
BRANCH   2   3
ATOM      3  C   UNL     1       4.036   4.045  17.567  0.00  0.00    +0.000 A 
ATOM      4  C   UNL     1       3.816   2.811  18.199  0.00  0.00    +0.000 A 
ATOM      5  C   UNL     1       3.276   2.763  19.487  0.00  0.00    +0.000 A 
ATOM      6  C   UNL     1       2.954   3.947  20.146  0.00  0.00    +0.000 A 
ATOM      7 CL   UNL     1       2.283   3.890  21.728  0.00  0.00    +0.000 Cl
ATOM      8  C   UNL     1       3.170   5.179  19.532  0.00  0.00    +0.000 A 
ATOM      9  C   UNL     1       3.711   5.231  18.242  0.00  0.00    +0.000 A 
ATOM     10 CL   UNL     1       3.945   6.799  17.554  0.00  0.00    +0.000 Cl
ENDBRANCH   2   3
BRANCH   1  16
ATOM     11  C   UNL     1       6.221   3.571  12.579  0.00  0.00    +0.000 A 
ATOM     12  N   UNL     1       7.236   4.339  12.190  0.00  0.00    +0.000 NA
ATOM     13  C   UNL     1       7.747   5.113  13.145  0.00  0.00    +0.000 A 
ATOM     14  C   UNL     1       8.864   6.035  12.771  0.00  0.00    +0.000 C 
ATOM     15  N   UNL     1       7.311   5.152  14.402  0.00  0.00    +0.000 NA
ATOM     16  C   UNL     1       6.292   4.340  14.660  0.00  0.00    +0.000 A 
ATOM     17  N   UNL     1       5.706   3.520  13.798  0.00  0.00    +0.000 NA
BRANCH  11  19
ATOM     18  C   UNL     1       4.265   3.166  11.364  0.00  0.00    +0.000 C 
ATOM     19  O   UNL     1       5.593   2.755  11.660  0.00  0.00    +0.000 OA
ENDBRANCH  11  19
ENDBRANCH   1  16
TORSDOF 3
ENDMDL
MODEL 3
REMARK VINA RESULT:      -6.6      3.900      7.473
REMARK  Name = 
REMARK  5 active torsions:
REMARK  status: ('A' for Active; 'I' for Inactive)
REMARK    1  A    between atoms: C_1  and  O_2
REMARK    2  A    between atoms: O_2  and  C_3
REMARK    3  A    between atoms: C_5  and  C_6
REMARK    4  A    between atoms: C_8  and  N_9
REMARK    5  A    between atoms: C_10  and  C_11
REMARK                            x       y       z     vdW  Elec       q    Type
REMARK                         _______ _______ _______ _____ _____    ______ ____
ROOT
ATOM      1  N   UNL     1       1.917   8.504  18.066  0.00  0.00    +0.000 NA
ATOM      2  C   UNL     1       2.428   7.463  18.644  0.00  0.00    +0.000 C 
ENDROOT
BRANCH   2   3
ATOM      3  C   UNL     1       3.293   6.515  17.904  0.00  0.00    +0.000 A 
ATOM      4  C   UNL     1       4.406   7.011  17.208  0.00  0.00    +0.000 A 
ATOM      5  C   UNL     1       5.237   6.145  16.494  0.00  0.00    +0.000 A 
ATOM      6  C   UNL     1       4.958   4.780  16.473  0.00  0.00    +0.000 A 
ATOM      7 CL   UNL     1       5.976   3.712  15.589  0.00  0.00    +0.000 Cl
ATOM      8  C   UNL     1       3.859   4.273  17.163  0.00  0.00    +0.000 A 
ATOM      9  C   UNL     1       3.024   5.138  17.880  0.00  0.00    +0.000 A 
ATOM     10 CL   UNL     1       1.683   4.427  18.706  0.00  0.00    +0.000 Cl
ENDBRANCH   2   3
BRANCH   1  16
ATOM     11  C   UNL     1       0.486  10.220  20.777  0.00  0.00    +0.000 A 
ATOM     12  N   UNL     1      -0.507  10.911  20.222  0.00  0.00    +0.000 NA
ATOM     13  C   UNL     1      -0.632  10.749  18.907  0.00  0.00    +0.000 A 
ATOM     14  C   UNL     1      -1.700  11.527  18.207  0.00  0.00    +0.000 C 
ATOM     15  N   UNL     1       0.151   9.970  18.163  0.00  0.00    +0.000 NA
ATOM     16  C   UNL     1       1.105   9.338  18.837  0.00  0.00    +0.000 A 
ATOM     17  N   UNL     1       1.322   9.412  20.142  0.00  0.00    +0.000 NA
BRANCH  11  19
ATOM     18  C   UNL     1      -0.098   9.498  22.923  0.00  0.00    +0.000 C 
ATOM     19  O   UNL     1       0.727  10.343  22.130  0.00  0.00    +0.000 OA
ENDBRANCH  11  19
ENDBRANCH   1  16
TORSDOF 3
ENDMDL
MODEL 4
REMARK VINA RESULT:      -6.5      2.670      3.507
REMARK  Name = 
REMARK  5 active torsions:
REMARK  status: ('A' for Active; 'I' for Inactive)
REMARK    1  A    between atoms: C_1  and  O_2
REMARK    2  A    between atoms: O_2  and  C_3
REMARK    3  A    between atoms: C_5  and  C_6
REMARK    4  A    between atoms: C_8  and  N_9
REMARK    5  A    between atoms: C_10  and  C_11
REMARK                            x       y       z     vdW  Elec       q    Type
REMARK                         _______ _______ _______ _____ _____    ______ ____
ROOT
ATOM      1  N   UNL     1       4.370   7.106  17.122  0.00  0.00    +0.000 NA
ATOM      2  C   UNL     1       3.603   6.879  18.142  0.00  0.00    +0.000 C 
ENDROOT
BRANCH   2   3
ATOM      3  C   UNL     1       2.554   7.841  18.550  0.00  0.00    +0.000 A 
ATOM      4  C   UNL     1       2.287   8.946  17.727  0.00  0.00    +0.000 A 
ATOM      5  C   UNL     1       1.309   9.877  18.087  0.00  0.00    +0.000 A 
ATOM      6  C   UNL     1       0.596   9.706  19.272  0.00  0.00    +0.000 A 
ATOM      7 CL   UNL     1      -0.602  10.854  19.722  0.00  0.00    +0.000 Cl
ATOM      8  C   UNL     1       0.848   8.612  20.097  0.00  0.00    +0.000 A 
ATOM      9  C   UNL     1       1.826   7.677  19.738  0.00  0.00    +0.000 A 
ATOM     10 CL   UNL     1       2.076   6.351  20.818  0.00  0.00    +0.000 Cl
ENDBRANCH   2   3
BRANCH   1  16
ATOM     11  C   UNL     1       7.113   4.921  17.337  0.00  0.00    +0.000 A 
ATOM     12  N   UNL     1       7.158   4.356  16.132  0.00  0.00    +0.000 NA
ATOM     13  C   UNL     1       6.213   4.765  15.289  0.00  0.00    +0.000 A 
ATOM     14  C   UNL     1       6.176   4.141  13.930  0.00  0.00    +0.000 C 
ATOM     15  N   UNL     1       5.275   5.663  15.581  0.00  0.00    +0.000 NA
ATOM     16  C   UNL     1       5.339   6.148  16.816  0.00  0.00    +0.000 A 
ATOM     17  N   UNL     1       6.234   5.827  17.739  0.00  0.00    +0.000 NA
BRANCH  11  19
ATOM     18  C   UNL     1       8.075   5.439  19.404  0.00  0.00    +0.000 C 
ATOM     19  O   UNL     1       8.025   4.543  18.300  0.00  0.00    +0.000 OA
ENDBRANCH  11  19
ENDBRANCH   1  16
TORSDOF 3
ENDMDL
MODEL 5
REMARK VINA RESULT:      -6.5      4.105      7.599
REMARK  Name = 
REMARK  5 active torsions:
REMARK  status: ('A' for Active; 'I' for Inactive)
REMARK    1  A    between atoms: C_1  and  O_2
REMARK    2  A    between atoms: O_2  and  C_3
REMARK    3  A    between atoms: C_5  and  C_6
REMARK    4  A    between atoms: C_8  and  N_9
REMARK    5  A    between atoms: C_10  and  C_11
REMARK                            x       y       z     vdW  Elec       q    Type
REMARK                         _______ _______ _______ _____ _____    ______ ____
ROOT
ATOM      1  N   UNL     1       2.152   8.431  18.129  0.00  0.00    +0.000 NA
ATOM      2  C   UNL     1       2.479   7.264  18.587  0.00  0.00    +0.000 C 
ENDROOT
BRANCH   2   3
ATOM      3  C   UNL     1       3.367   6.356  17.826  0.00  0.00    +0.000 A 
ATOM      4  C   UNL     1       4.497   6.888  17.186  0.00  0.00    +0.000 A 
ATOM      5  C   UNL     1       5.350   6.059  16.453  0.00  0.00    +0.000 A 
ATOM      6  C   UNL     1       5.076   4.696  16.357  0.00  0.00    +0.000 A 
ATOM      7 CL   UNL     1       6.120   3.676  15.450  0.00  0.00    +0.000 Cl
ATOM      8  C   UNL     1       3.959   4.154  16.991  0.00  0.00    +0.000 A 
ATOM      9  C   UNL     1       3.103   4.981  17.726  0.00  0.00    +0.000 A 
ATOM     10 CL   UNL     1       1.742   4.228  18.478  0.00  0.00    +0.000 Cl
ENDBRANCH   2   3
BRANCH   1  16
ATOM     11  C   UNL     1      -0.119  10.901  19.168  0.00  0.00    +0.000 A 
ATOM     12  N   UNL     1      -0.253  10.676  20.473  0.00  0.00    +0.000 NA
ATOM     13  C   UNL     1       0.463   9.655  20.938  0.00  0.00    +0.000 A 
ATOM     14  C   UNL     1       0.330   9.316  22.389  0.00  0.00    +0.000 C 
ATOM     15  N   UNL     1       1.260   8.889  20.196  0.00  0.00    +0.000 NA
ATOM     16  C   UNL     1       1.302   9.217  18.910  0.00  0.00    +0.000 A 
ATOM     17  N   UNL     1       0.645  10.214  18.333  0.00  0.00    +0.000 NA
BRANCH  11  19
ATOM     18  C   UNL     1      -1.872  11.439  17.716  0.00  0.00    +0.000 C 
ATOM     19  O   UNL     1      -0.844  11.915  18.575  0.00  0.00    +0.000 OA
ENDBRANCH  11  19
ENDBRANCH   1  16
TORSDOF 3
ENDMDL
MODEL 6
REMARK VINA RESULT:      -6.5      1.644      2.155
REMARK  Name = 
REMARK  5 active torsions:
REMARK  status: ('A' for Active; 'I' for Inactive)
REMARK    1  A    between atoms: C_1  and  O_2
REMARK    2  A    between atoms: O_2  and  C_3
REMARK    3  A    between atoms: C_5  and  C_6
REMARK    4  A    between atoms: C_8  and  N_9
REMARK    5  A    between atoms: C_10  and  C_11
REMARK                            x       y       z     vdW  Elec       q    Type
REMARK                         _______ _______ _______ _____ _____    ______ ____
ROOT
ATOM      1  N   UNL     1       2.450   6.445  18.590  0.00  0.00    +0.000 NA
ATOM      2  C   UNL     1       2.484   7.461  19.392  0.00  0.00    +0.000 C 
ENDROOT
BRANCH   2   3
ATOM      3  C   UNL     1       1.512   8.573  19.274  0.00  0.00    +0.000 A 
ATOM      4  C   UNL     1       1.170   9.045  17.997  0.00  0.00    +0.000 A 
ATOM      5  C   UNL     1       0.264  10.098  17.852  0.00  0.00    +0.000 A 
ATOM      6  C   UNL     1      -0.302  10.683  18.982  0.00  0.00    +0.000 A 
ATOM      7 CL   UNL     1      -1.413  11.985  18.806  0.00  0.00    +0.000 Cl
ATOM      8  C   UNL     1       0.025  10.223  20.256  0.00  0.00    +0.000 A 
ATOM      9  C   UNL     1       0.932   9.168  20.405  0.00  0.00    +0.000 A 
ATOM     10 CL   UNL     1       1.284   8.660  22.019  0.00  0.00    +0.000 Cl
ENDBRANCH   2   3
BRANCH   1  16
ATOM     11  C   UNL     1       5.454   4.771  19.306  0.00  0.00    +0.000 A 
ATOM     12  N   UNL     1       5.174   3.497  19.039  0.00  0.00    +0.000 NA
ATOM     13  C   UNL     1       3.930   3.275  18.620  0.00  0.00    +0.000 A 
ATOM     14  C   UNL     1       3.531   1.861  18.342  0.00  0.00    +0.000 C 
ATOM     15  N   UNL     1       3.004   4.219  18.466  0.00  0.00    +0.000 NA
ATOM     16  C   UNL     1       3.410   5.447  18.768  0.00  0.00    +0.000 A 
ATOM     17  N   UNL     1       4.620   5.793  19.185  0.00  0.00    +0.000 NA
BRANCH  11  19
ATOM     18  C   UNL     1       7.484   5.833  18.838  0.00  0.00    +0.000 C 
ATOM     19  O   UNL     1       6.705   5.108  19.781  0.00  0.00    +0.000 OA
ENDBRANCH  11  19
ENDBRANCH   1  16
TORSDOF 3
ENDMDL
MODEL 7
REMARK VINA RESULT:      -6.5      1.449      2.190
REMARK  Name = 
REMARK  5 active torsions:
REMARK  status: ('A' for Active; 'I' for Inactive)
REMARK    1  A    between atoms: C_1  and  O_2
REMARK    2  A    between atoms: O_2  and  C_3
REMARK    3  A    between atoms: C_5  and  C_6
REMARK    4  A    between atoms: C_8  and  N_9
REMARK    5  A    between atoms: C_10  and  C_11
REMARK                            x       y       z     vdW  Elec       q    Type
REMARK                         _______ _______ _______ _____ _____    ______ ____
ROOT
ATOM      1  N   UNL     1       2.464   6.776  19.908  0.00  0.00    +0.000 NA
ATOM      2  C   UNL     1       1.930   7.866  19.455  0.00  0.00    +0.000 C 
ENDROOT
BRANCH   2   3
ATOM      3  C   UNL     1       1.141   8.763  20.330  0.00  0.00    +0.000 A 
ATOM      4  C   UNL     1       1.244   8.619  21.722  0.00  0.00    +0.000 A 
ATOM      5  C   UNL     1       0.506   9.443  22.575  0.00  0.00    +0.000 A 
ATOM      6  C   UNL     1      -0.337  10.414  22.038  0.00  0.00    +0.000 A 
ATOM      7 CL   UNL     1      -1.252  11.425  23.086  0.00  0.00    +0.000 Cl
ATOM      8  C   UNL     1      -0.447  10.571  20.658  0.00  0.00    +0.000 A 
ATOM      9  C   UNL     1       0.291   9.747  19.801  0.00  0.00    +0.000 A 
ATOM     10 CL   UNL     1       0.096  10.007  18.104  0.00  0.00    +0.000 Cl
ENDBRANCH   2   3
BRANCH   1  16
ATOM     11  C   UNL     1       3.979   4.032  18.323  0.00  0.00    +0.000 A 
ATOM     12  N   UNL     1       4.600   4.575  17.279  0.00  0.00    +0.000 NA
ATOM     13  C   UNL     1       4.456   5.894  17.170  0.00  0.00    +0.000 A 
ATOM     14  C   UNL     1       5.090   6.569  15.996  0.00  0.00    +0.000 C 
ATOM     15  N   UNL     1       3.756   6.651  18.012  0.00  0.00    +0.000 NA
ATOM     16  C   UNL     1       3.184   5.986  19.009  0.00  0.00    +0.000 A 
ATOM     17  N   UNL     1       3.262   4.681  19.227  0.00  0.00    +0.000 NA
BRANCH  11  19
ATOM     18  C   UNL     1       2.924   1.979  17.946  0.00  0.00    +0.000 C 
ATOM     19  O   UNL     1       4.034   2.666  18.511  0.00  0.00    +0.000 OA
ENDBRANCH  11  19
ENDBRANCH   1  16
TORSDOF 3
ENDMDL
MODEL 8
REMARK VINA RESULT:      -6.4      1.372      1.438
REMARK  Name = 
REMARK  5 active torsions:
REMARK  status: ('A' for Active; 'I' for Inactive)
REMARK    1  A    between atoms: C_1  and  O_2
REMARK    2  A    between atoms: O_2  and  C_3
REMARK    3  A    between atoms: C_5  and  C_6
REMARK    4  A    between atoms: C_8  and  N_9
REMARK    5  A    between atoms: C_10  and  C_11
REMARK                            x       y       z     vdW  Elec       q    Type
REMARK                         _______ _______ _______ _____ _____    ______ ____
ROOT
ATOM      1  N   UNL     1       2.089   6.442  20.218  0.00  0.00    +0.000 NA
ATOM      2  C   UNL     1       2.051   7.686  19.861  0.00  0.00    +0.000 C 
ENDROOT
BRANCH   2   3
ATOM      3  C   UNL     1       1.196   8.668  20.567  0.00  0.00    +0.000 A 
ATOM      4  C   UNL     1       1.107   8.610  21.967  0.00  0.00    +0.000 A 
ATOM      5  C   UNL     1       0.303   9.516  22.662  0.00  0.00    +0.000 A 
ATOM      6  C   UNL     1      -0.416  10.482  21.961  0.00  0.00    +0.000 A 
ATOM      7 CL   UNL     1      -1.412  11.593  22.814  0.00  0.00    +0.000 Cl
ATOM      8  C   UNL     1      -0.334  10.554  20.572  0.00  0.00    +0.000 A 
ATOM      9  C   UNL     1       0.471   9.648  19.872  0.00  0.00    +0.000 A 
ATOM     10 CL   UNL     1       0.514   9.806  18.151  0.00  0.00    +0.000 Cl
ENDBRANCH   2   3
BRANCH   1  16
ATOM     11  C   UNL     1       4.108   5.077  17.688  0.00  0.00    +0.000 A 
ATOM     12  N   UNL     1       4.443   3.880  18.166  0.00  0.00    +0.000 NA
ATOM     13  C   UNL     1       3.947   3.601  19.369  0.00  0.00    +0.000 A 
ATOM     14  C   UNL     1       4.316   2.291  19.987  0.00  0.00    +0.000 C 
ATOM     15  N   UNL     1       3.173   4.421  20.077  0.00  0.00    +0.000 NA
ATOM     16  C   UNL     1       2.916   5.585  19.489  0.00  0.00    +0.000 A 
ATOM     17  N   UNL     1       3.344   5.971  18.296  0.00  0.00    +0.000 NA
BRANCH  11  19
ATOM     18  C   UNL     1       5.317   6.707  16.527  0.00  0.00    +0.000 C 
ATOM     19  O   UNL     1       4.598   5.482  16.464  0.00  0.00    +0.000 OA
ENDBRANCH  11  19
ENDBRANCH   1  16
TORSDOF 3
ENDMDL
MODEL 9
REMARK VINA RESULT:      -6.4      4.131      5.603
REMARK  Name = 
REMARK  5 active torsions:
REMARK  status: ('A' for Active; 'I' for Inactive)
REMARK    1  A    between atoms: C_1  and  O_2
REMARK    2  A    between atoms: O_2  and  C_3
REMARK    3  A    between atoms: C_5  and  C_6
REMARK    4  A    between atoms: C_8  and  N_9
REMARK    5  A    between atoms: C_10  and  C_11
REMARK                            x       y       z     vdW  Elec       q    Type
REMARK                         _______ _______ _______ _____ _____    ______ ____
ROOT
ATOM      1  N   UNL     1       4.650   3.832  17.417  0.00  0.00    +0.000 NA
ATOM      2  C   UNL     1       4.586   4.360  18.599  0.00  0.00    +0.000 C 
ENDROOT
BRANCH   2   3
ATOM      3  C   UNL     1       3.641   3.856  19.621  0.00  0.00    +0.000 A 
ATOM      4  C   UNL     1       3.925   2.645  20.272  0.00  0.00    +0.000 A 
ATOM      5  C   UNL     1       3.049   2.138  21.236  0.00  0.00    +0.000 A 
ATOM      6  C   UNL     1       1.887   2.839  21.551  0.00  0.00    +0.000 A 
ATOM      7 CL   UNL     1       0.805   2.213  22.731  0.00  0.00    +0.000 Cl
ATOM      8  C   UNL     1       1.595   4.044  20.915  0.00  0.00    +0.000 A 
ATOM      9  C   UNL     1       2.470   4.556  19.950  0.00  0.00    +0.000 A 
ATOM     10 CL   UNL     1       2.030   6.054  19.210  0.00  0.00    +0.000 Cl
ENDBRANCH   2   3
BRANCH   1  16
ATOM     11  C   UNL     1       7.140   5.840  15.965  0.00  0.00    +0.000 A 
ATOM     12  N   UNL     1       7.235   5.372  14.723  0.00  0.00    +0.000 NA
ATOM     13  C   UNL     1       6.418   4.358  14.445  0.00  0.00    +0.000 A 
ATOM     14  C   UNL     1       6.500   3.752  13.080  0.00  0.00    +0.000 C 
ATOM     15  N   UNL     1       5.558   3.821  15.308  0.00  0.00    +0.000 NA
ATOM     16  C   UNL     1       5.564   4.378  16.514  0.00  0.00    +0.000 A 
ATOM     17  N   UNL     1       6.321   5.392  16.905  0.00  0.00    +0.000 NA
BRANCH  11  19
ATOM     18  C   UNL     1       7.558   7.465  17.594  0.00  0.00    +0.000 C 
ATOM     19  O   UNL     1       7.967   6.868  16.370  0.00  0.00    +0.000 OA
ENDBRANCH  11  19
ENDBRANCH   1  16
TORSDOF 3
ENDMDL
