MODEL 1
REMARK VINA RESULT:      -7.8      0.000      0.000
REMARK  Name = 
REMARK  13 active torsions:
REMARK  status: ('A' for Active; 'I' for Inactive)
REMARK    1  A    between atoms: C_2  and  C_3
REMARK    2  A    between atoms: C_3  and  C_4
REMARK    3  A    between atoms: C_7  and  O_8
REMARK    4  A    between atoms: C_9  and  O_10
REMARK    5  A    between atoms: N_12  and  C_13
REMARK    6  A    between atoms: C_13  and  C_14
REMARK    7  A    between atoms: C_14  and  C_15
REMARK    8  A    between atoms: C_15  and  C_16
REMARK    9  A    between atoms: C_16  and  N_17
REMARK   10  A    between atoms: C_18  and  C_20
REMARK   11  A    between atoms: C_20  and  C_21
REMARK   12  A    between atoms: C_24  and  O_25
REMARK   13  A    between atoms: C_26  and  O_27
REMARK                            x       y       z     vdW  Elec       q    Type
REMARK                         _______ _______ _______ _____ _____    ______ ____
ROOT
ATOM      1  C   UNL     1       7.822   6.300  18.842  0.00  0.00    +0.000 C 
ENDROOT
BRANCH   1   2
ATOM      2  C   UNL     1       7.967   7.638  18.113  0.00  0.00    +0.000 C 
BRANCH   2   5
ATOM      3  O   UNL     1       8.148  10.431  17.681  0.00  0.00    +0.000 OA
ATOM      4  C   UNL     1       8.821   9.916  18.571  0.00  0.00    +0.000 C 
ATOM      5  N   UNL     1       8.808   8.564  18.843  0.00  0.00    +0.000 N 
ATOM      6  H   UNL     1       9.325   8.216  19.639  0.00  0.00    +0.000 HD
BRANCH   4   7
ATOM      7  C   UNL     1       9.732  10.728  19.480  0.00  0.00    +0.000 C 
BRANCH   7   8
ATOM      8  C   UNL     1      10.313  11.982  18.863  0.00  0.00    +0.000 A 
ATOM      9  C   UNL     1      10.057  13.260  19.392  0.00  0.00    +0.000 A 
ATOM     10  C   UNL     1      10.564  14.411  18.776  0.00  0.00    +0.000 A 
ATOM     11  C   UNL     1      11.317  14.287  17.616  0.00  0.00    +0.000 A 
ATOM     12  C   UNL     1      11.563  13.030  17.074  0.00  0.00    +0.000 A 
ATOM     13  C   UNL     1      11.062  11.883  17.678  0.00  0.00    +0.000 A 
BRANCH  11  14
ATOM     14  O   UNL     1      11.830  15.374  16.964  0.00  0.00    +0.000 OA
ATOM     15  H   UNL     1      11.291  15.529  16.169  0.00  0.00    +0.000 HD
ENDBRANCH  11  14
BRANCH  12  16
ATOM     16  O   UNL     1      12.301  12.916  15.930  0.00  0.00    +0.000 OA
ATOM     17  H   UNL     1      11.683  12.522  15.281  0.00  0.00    +0.000 HD
ENDBRANCH  12  16
ENDBRANCH   7   8
ENDBRANCH   4   7
ENDBRANCH   2   5
ENDBRANCH   1   2
BRANCH   1  18
ATOM     18  C   UNL     1       7.123   5.237  17.989  0.00  0.00    +0.000 C 
BRANCH  18  19
ATOM     19  C   UNL     1       6.158   5.851  16.977  0.00  0.00    +0.000 C 
BRANCH  19  20
ATOM     20  N   UNL     1       4.836   5.277  17.074  0.00  0.00    +0.000 N 
ATOM     21  C   UNL     1       4.562   4.040  16.523  0.00  0.00    +0.000 C 
ATOM     22  O   UNL     1       5.382   3.397  15.874  0.00  0.00    +0.000 OA
ATOM     23  H   UNL     1       4.128   5.760  17.612  0.00  0.00    +0.000 HD
BRANCH  21  24
ATOM     24  C   UNL     1       3.167   3.525  16.794  0.00  0.00    +0.000 C 
BRANCH  24  25
ATOM     25  C   UNL     1       2.860   3.344  18.261  0.00  0.00    +0.000 A 
ATOM     26  C   UNL     1       1.721   3.934  18.844  0.00  0.00    +0.000 A 
ATOM     27  C   UNL     1       1.500   3.857  20.223  0.00  0.00    +0.000 A 
ATOM     28  C   UNL     1       2.423   3.193  21.021  0.00  0.00    +0.000 A 
ATOM     29  C   UNL     1       3.536   2.586  20.449  0.00  0.00    +0.000 A 
ATOM     30  C   UNL     1       3.759   2.648  19.081  0.00  0.00    +0.000 A 
BRANCH  28  31
ATOM     31  O   UNL     1       2.292   3.129  22.380  0.00  0.00    +0.000 OA
ATOM     32  H   UNL     1       2.788   3.873  22.764  0.00  0.00    +0.000 HD
ENDBRANCH  28  31
BRANCH  29  33
ATOM     33  O   UNL     1       4.448   1.947  21.238  0.00  0.00    +0.000 OA
ATOM     34  H   UNL     1       4.086   2.029  22.142  0.00  0.00    +0.000 HD
ENDBRANCH  29  33
ENDBRANCH  24  25
ENDBRANCH  21  24
ENDBRANCH  19  20
ENDBRANCH  18  19
ENDBRANCH   1  18
TORSDOF 13
ENDMDL
MODEL 2
REMARK VINA RESULT:      -7.7      4.564      7.928
REMARK  Name = 
REMARK  13 active torsions:
REMARK  status: ('A' for Active; 'I' for Inactive)
REMARK    1  A    between atoms: C_2  and  C_3
REMARK    2  A    between atoms: C_3  and  C_4
REMARK    3  A    between atoms: C_7  and  O_8
REMARK    4  A    between atoms: C_9  and  O_10
REMARK    5  A    between atoms: N_12  and  C_13
REMARK    6  A    between atoms: C_13  and  C_14
REMARK    7  A    between atoms: C_14  and  C_15
REMARK    8  A    between atoms: C_15  and  C_16
REMARK    9  A    between atoms: C_16  and  N_17
REMARK   10  A    between atoms: C_18  and  C_20
REMARK   11  A    between atoms: C_20  and  C_21
REMARK   12  A    between atoms: C_24  and  O_25
REMARK   13  A    between atoms: C_26  and  O_27
REMARK                            x       y       z     vdW  Elec       q    Type
REMARK                         _______ _______ _______ _____ _____    ______ ____
ROOT
ATOM      1  C   UNL     1       2.035   2.530  20.920  0.00  0.00    +0.000 C 
ENDROOT
BRANCH   1   2
ATOM      2  C   UNL     1       1.020   3.353  20.123  0.00  0.00    +0.000 C 
BRANCH   2   5
ATOM      3  O   UNL     1       1.818   5.782  21.339  0.00  0.00    +0.000 OA
ATOM      4  C   UNL     1       2.010   5.622  20.136  0.00  0.00    +0.000 C 
ATOM      5  N   UNL     1       1.641   4.479  19.457  0.00  0.00    +0.000 N 
ATOM      6  H   UNL     1       1.899   4.378  18.484  0.00  0.00    +0.000 HD
BRANCH   4   7
ATOM      7  C   UNL     1       2.693   6.670  19.270  0.00  0.00    +0.000 C 
BRANCH   7   8
ATOM      8  C   UNL     1       1.969   7.995  19.164  0.00  0.00    +0.000 A 
ATOM      9  C   UNL     1       1.896   8.709  17.954  0.00  0.00    +0.000 A 
ATOM     10  C   UNL     1       1.264   9.957  17.889  0.00  0.00    +0.000 A 
ATOM     11  C   UNL     1       0.716  10.503  19.043  0.00  0.00    +0.000 A 
ATOM     12  C   UNL     1       0.796   9.814  20.248  0.00  0.00    +0.000 A 
ATOM     13  C   UNL     1       1.423   8.576  20.321  0.00  0.00    +0.000 A 
BRANCH  11  14
ATOM     14  O   UNL     1       0.095  11.722  19.044  0.00  0.00    +0.000 OA
ATOM     15  H   UNL     1       0.621  12.326  18.493  0.00  0.00    +0.000 HD
ENDBRANCH  11  14
BRANCH  12  16
ATOM     16  O   UNL     1       0.258  10.359  21.379  0.00  0.00    +0.000 OA
ATOM     17  H   UNL     1       0.767   9.954  22.110  0.00  0.00    +0.000 HD
ENDBRANCH  12  16
ENDBRANCH   7   8
ENDBRANCH   4   7
ENDBRANCH   2   5
ENDBRANCH   1   2
BRANCH   1  18
ATOM     18  C   UNL     1       3.419   2.503  20.263  0.00  0.00    +0.000 C 
BRANCH  18  19
ATOM     19  C   UNL     1       3.392   1.833  18.890  0.00  0.00    +0.000 C 
BRANCH  19  20
ATOM     20  N   UNL     1       4.414   2.356  18.014  0.00  0.00    +0.000 N 
ATOM     21  C   UNL     1       4.153   3.430  17.186  0.00  0.00    +0.000 C 
ATOM     22  O   UNL     1       3.047   3.952  17.092  0.00  0.00    +0.000 OA
ATOM     23  H   UNL     1       5.349   1.971  18.065  0.00  0.00    +0.000 HD
BRANCH  21  24
ATOM     24  C   UNL     1       5.348   3.929  16.407  0.00  0.00    +0.000 C 
BRANCH  24  25
ATOM     25  C   UNL     1       6.148   4.986  17.129  0.00  0.00    +0.000 A 
ATOM     26  C   UNL     1       6.528   6.179  16.484  0.00  0.00    +0.000 A 
ATOM     27  C   UNL     1       7.362   7.104  17.120  0.00  0.00    +0.000 A 
ATOM     28  C   UNL     1       7.823   6.832  18.402  0.00  0.00    +0.000 A 
ATOM     29  C   UNL     1       7.432   5.667  19.055  0.00  0.00    +0.000 A 
ATOM     30  C   UNL     1       6.596   4.749  18.436  0.00  0.00    +0.000 A 
BRANCH  28  31
ATOM     31  O   UNL     1       8.684   7.669  19.056  0.00  0.00    +0.000 OA
ATOM     32  H   UNL     1       8.388   8.582  18.901  0.00  0.00    +0.000 HD
ENDBRANCH  28  31
BRANCH  29  33
ATOM     33  O   UNL     1       7.899   5.396  20.308  0.00  0.00    +0.000 OA
ATOM     34  H   UNL     1       8.825   5.710  20.296  0.00  0.00    +0.000 HD
ENDBRANCH  29  33
ENDBRANCH  24  25
ENDBRANCH  21  24
ENDBRANCH  19  20
ENDBRANCH  18  19
ENDBRANCH   1  18
TORSDOF 13
ENDMDL
MODEL 3
REMARK VINA RESULT:      -7.3      4.533      8.136
REMARK  Name = 
REMARK  13 active torsions:
REMARK  status: ('A' for Active; 'I' for Inactive)
REMARK    1  A    between atoms: C_2  and  C_3
REMARK    2  A    between atoms: C_3  and  C_4
REMARK    3  A    between atoms: C_7  and  O_8
REMARK    4  A    between atoms: C_9  and  O_10
REMARK    5  A    between atoms: N_12  and  C_13
REMARK    6  A    between atoms: C_13  and  C_14
REMARK    7  A    between atoms: C_14  and  C_15
REMARK    8  A    between atoms: C_15  and  C_16
REMARK    9  A    between atoms: C_16  and  N_17
REMARK   10  A    between atoms: C_18  and  C_20
REMARK   11  A    between atoms: C_20  and  C_21
REMARK   12  A    between atoms: C_24  and  O_25
REMARK   13  A    between atoms: C_26  and  O_27
REMARK                            x       y       z     vdW  Elec       q    Type
REMARK                         _______ _______ _______ _____ _____    ______ ____
ROOT
ATOM      1  C   UNL     1       2.684   2.330  21.255  0.00  0.00    +0.000 C 
ENDROOT
BRANCH   1   2
ATOM      2  C   UNL     1       1.871   3.556  21.676  0.00  0.00    +0.000 C 
BRANCH   2   5
ATOM      3  O   UNL     1       1.112   4.826  19.262  0.00  0.00    +0.000 OA
ATOM      4  C   UNL     1       1.984   5.337  19.961  0.00  0.00    +0.000 C 
ATOM      5  N   UNL     1       2.428   4.783  21.143  0.00  0.00    +0.000 N 
ATOM      6  H   UNL     1       3.091   5.293  21.710  0.00  0.00    +0.000 HD
BRANCH   4   7
ATOM      7  C   UNL     1       2.658   6.652  19.596  0.00  0.00    +0.000 C 
BRANCH   7   8
ATOM      8  C   UNL     1       1.827   7.894  19.837  0.00  0.00    +0.000 A 
ATOM      9  C   UNL     1       1.238   8.166  21.085  0.00  0.00    +0.000 A 
ATOM     10  C   UNL     1       0.432   9.295  21.272  0.00  0.00    +0.000 A 
ATOM     11  C   UNL     1       0.199  10.150  20.203  0.00  0.00    +0.000 A 
ATOM     12  C   UNL     1       0.763   9.884  18.960  0.00  0.00    +0.000 A 
ATOM     13  C   UNL     1       1.562   8.764  18.766  0.00  0.00    +0.000 A 
BRANCH  11  14
ATOM     14  O   UNL     1      -0.587  11.264  20.322  0.00  0.00    +0.000 OA
ATOM     15  H   UNL     1      -1.125  11.337  19.515  0.00  0.00    +0.000 HD
ENDBRANCH  11  14
BRANCH  12  16
ATOM     16  O   UNL     1       0.527  10.727  17.911  0.00  0.00    +0.000 OA
ATOM     17  H   UNL     1      -0.263  11.238  18.184  0.00  0.00    +0.000 HD
ENDBRANCH  12  16
ENDBRANCH   7   8
ENDBRANCH   4   7
ENDBRANCH   2   5
ENDBRANCH   1   2
BRANCH   1  18
ATOM     18  C   UNL     1       3.825   2.680  20.294  0.00  0.00    +0.000 C 
BRANCH  18  19
ATOM     19  C   UNL     1       3.597   2.107  18.896  0.00  0.00    +0.000 C 
BRANCH  19  20
ATOM     20  N   UNL     1       4.542   2.630  17.938  0.00  0.00    +0.000 N 
ATOM     21  C   UNL     1       4.171   3.622  17.050  0.00  0.00    +0.000 C 
ATOM     22  O   UNL     1       3.029   4.062  16.974  0.00  0.00    +0.000 OA
ATOM     23  H   UNL     1       5.502   2.312  17.969  0.00  0.00    +0.000 HD
BRANCH  21  24
ATOM     24  C   UNL     1       5.294   4.140  16.181  0.00  0.00    +0.000 C 
BRANCH  24  25
ATOM     25  C   UNL     1       6.277   5.020  16.915  0.00  0.00    +0.000 A 
ATOM     26  C   UNL     1       7.056   4.514  17.974  0.00  0.00    +0.000 A 
ATOM     27  C   UNL     1       7.881   5.359  18.724  0.00  0.00    +0.000 A 
ATOM     28  C   UNL     1       7.923   6.713  18.417  0.00  0.00    +0.000 A 
ATOM     29  C   UNL     1       7.176   7.215  17.355  0.00  0.00    +0.000 A 
ATOM     30  C   UNL     1       6.362   6.383  16.600  0.00  0.00    +0.000 A 
BRANCH  28  31
ATOM     31  O   UNL     1       8.668   7.599  19.144  0.00  0.00    +0.000 OA
ATOM     32  H   UNL     1       9.329   7.093  19.646  0.00  0.00    +0.000 HD
ENDBRANCH  28  31
BRANCH  29  33
ATOM     33  O   UNL     1       7.208   8.548  17.066  0.00  0.00    +0.000 OA
ATOM     34  H   UNL     1       8.116   8.704  16.739  0.00  0.00    +0.000 HD
ENDBRANCH  29  33
ENDBRANCH  24  25
ENDBRANCH  21  24
ENDBRANCH  19  20
ENDBRANCH  18  19
ENDBRANCH   1  18
TORSDOF 13
ENDMDL
MODEL 4
REMARK VINA RESULT:      -7.2      6.873     10.740
REMARK  Name = 
REMARK  13 active torsions:
REMARK  status: ('A' for Active; 'I' for Inactive)
REMARK    1  A    between atoms: C_2  and  C_3
REMARK    2  A    between atoms: C_3  and  C_4
REMARK    3  A    between atoms: C_7  and  O_8
REMARK    4  A    between atoms: C_9  and  O_10
REMARK    5  A    between atoms: N_12  and  C_13
REMARK    6  A    between atoms: C_13  and  C_14
REMARK    7  A    between atoms: C_14  and  C_15
REMARK    8  A    between atoms: C_15  and  C_16
REMARK    9  A    between atoms: C_16  and  N_17
REMARK   10  A    between atoms: C_18  and  C_20
REMARK   11  A    between atoms: C_20  and  C_21
REMARK   12  A    between atoms: C_24  and  O_25
REMARK   13  A    between atoms: C_26  and  O_27
REMARK                            x       y       z     vdW  Elec       q    Type
REMARK                         _______ _______ _______ _____ _____    ______ ____
ROOT
ATOM      1  C   UNL     1       0.844   7.903  21.335  0.00  0.00    +0.000 C 
ENDROOT
BRANCH   1   2
ATOM      2  C   UNL     1       1.492   8.572  20.121  0.00  0.00    +0.000 C 
BRANCH   2   5
ATOM      3  O   UNL     1       2.217   8.737  17.389  0.00  0.00    +0.000 OA
ATOM      4  C   UNL     1       2.687   7.837  18.081  0.00  0.00    +0.000 C 
ATOM      5  N   UNL     1       2.379   7.670  19.416  0.00  0.00    +0.000 N 
ATOM      6  H   UNL     1       2.860   6.957  19.948  0.00  0.00    +0.000 HD
BRANCH   4   7
ATOM      7  C   UNL     1       3.674   6.816  17.536  0.00  0.00    +0.000 C 
BRANCH   7   8
ATOM      8  C   UNL     1       3.349   5.370  17.846  0.00  0.00    +0.000 A 
ATOM      9  C   UNL     1       2.063   4.837  17.647  0.00  0.00    +0.000 A 
ATOM     10  C   UNL     1       1.771   3.510  17.987  0.00  0.00    +0.000 A 
ATOM     11  C   UNL     1       2.765   2.716  18.544  0.00  0.00    +0.000 A 
ATOM     12  C   UNL     1       4.036   3.236  18.760  0.00  0.00    +0.000 A 
ATOM     13  C   UNL     1       4.333   4.552  18.427  0.00  0.00    +0.000 A 
BRANCH  11  14
ATOM     14  O   UNL     1       2.537   1.416  18.905  0.00  0.00    +0.000 OA
ATOM     15  H   UNL     1       3.399   0.998  19.076  0.00  0.00    +0.000 HD
ENDBRANCH  11  14
BRANCH  12  16
ATOM     16  O   UNL     1       5.007   2.450  19.312  0.00  0.00    +0.000 OA
ATOM     17  H   UNL     1       5.824   2.985  19.237  0.00  0.00    +0.000 HD
ENDBRANCH  12  16
ENDBRANCH   7   8
ENDBRANCH   4   7
ENDBRANCH   2   5
ENDBRANCH   1   2
BRANCH   1  18
ATOM     18  C   UNL     1      -0.082   8.850  22.106  0.00  0.00    +0.000 C 
BRANCH  18  19
ATOM     19  C   UNL     1       0.246  10.318  21.843  0.00  0.00    +0.000 C 
BRANCH  19  20
ATOM     20  N   UNL     1      -0.890  11.040  21.318  0.00  0.00    +0.000 N 
ATOM     21  C   UNL     1      -0.748  11.894  20.242  0.00  0.00    +0.000 C 
ATOM     22  O   UNL     1       0.334  12.142  19.720  0.00  0.00    +0.000 OA
ATOM     23  H   UNL     1      -1.808  10.859  21.704  0.00  0.00    +0.000 HD
BRANCH  21  24
ATOM     24  C   UNL     1      -2.041  12.496  19.742  0.00  0.00    +0.000 C 
BRANCH  24  25
ATOM     25  C   UNL     1      -2.626  11.779  18.549  0.00  0.00    +0.000 A 
ATOM     26  C   UNL     1      -1.805  11.053  17.664  0.00  0.00    +0.000 A 
ATOM     27  C   UNL     1      -2.334  10.484  16.500  0.00  0.00    +0.000 A 
ATOM     28  C   UNL     1      -3.684  10.648  16.218  0.00  0.00    +0.000 A 
ATOM     29  C   UNL     1      -4.505  11.342  17.102  0.00  0.00    +0.000 A 
ATOM     30  C   UNL     1      -3.992  11.900  18.264  0.00  0.00    +0.000 A 
BRANCH  28  31
ATOM     31  O   UNL     1      -4.250  10.163  15.072  0.00  0.00    +0.000 OA
ATOM     32  H   UNL     1      -4.127   9.199  15.062  0.00  0.00    +0.000 HD
ENDBRANCH  28  31
BRANCH  29  33
ATOM     33  O   UNL     1      -5.828  11.514  16.814  0.00  0.00    +0.000 OA
ATOM     34  H   UNL     1      -6.253  10.691  17.127  0.00  0.00    +0.000 HD
ENDBRANCH  29  33
ENDBRANCH  24  25
ENDBRANCH  21  24
ENDBRANCH  19  20
ENDBRANCH  18  19
ENDBRANCH   1  18
TORSDOF 13
ENDMDL
MODEL 5
REMARK VINA RESULT:      -7.2      5.337      8.647
REMARK  Name = 
REMARK  13 active torsions:
REMARK  status: ('A' for Active; 'I' for Inactive)
REMARK    1  A    between atoms: C_2  and  C_3
REMARK    2  A    between atoms: C_3  and  C_4
REMARK    3  A    between atoms: C_7  and  O_8
REMARK    4  A    between atoms: C_9  and  O_10
REMARK    5  A    between atoms: N_12  and  C_13
REMARK    6  A    between atoms: C_13  and  C_14
REMARK    7  A    between atoms: C_14  and  C_15
REMARK    8  A    between atoms: C_15  and  C_16
REMARK    9  A    between atoms: C_16  and  N_17
REMARK   10  A    between atoms: C_18  and  C_20
REMARK   11  A    between atoms: C_20  and  C_21
REMARK   12  A    between atoms: C_24  and  O_25
REMARK   13  A    between atoms: C_26  and  O_27
REMARK                            x       y       z     vdW  Elec       q    Type
REMARK                         _______ _______ _______ _____ _____    ______ ____
ROOT
ATOM      1  C   UNL     1       2.292   4.970  20.557  0.00  0.00    +0.000 C 
ENDROOT
BRANCH   1   2
ATOM      2  C   UNL     1       2.271   6.283  19.771  0.00  0.00    +0.000 C 
BRANCH   2   5
ATOM      3  O   UNL     1       0.017   7.501  20.978  0.00  0.00    +0.000 OA
ATOM      4  C   UNL     1       1.137   7.956  21.201  0.00  0.00    +0.000 C 
ATOM      5  N   UNL     1       2.289   7.437  20.646  0.00  0.00    +0.000 N 
ATOM      6  H   UNL     1       3.185   7.808  20.932  0.00  0.00    +0.000 HD
BRANCH   4   7
ATOM      7  C   UNL     1       1.369   9.137  22.132  0.00  0.00    +0.000 C 
BRANCH   7   8
ATOM      8  C   UNL     1       0.300  10.207  22.100  0.00  0.00    +0.000 A 
ATOM      9  C   UNL     1      -0.662  10.330  23.119  0.00  0.00    +0.000 A 
ATOM     10  C   UNL     1      -1.673  11.296  23.045  0.00  0.00    +0.000 A 
ATOM     11  C   UNL     1      -1.735  12.133  21.939  0.00  0.00    +0.000 A 
ATOM     12  C   UNL     1      -0.800  12.011  20.917  0.00  0.00    +0.000 A 
ATOM     13  C   UNL     1       0.205  11.054  20.982  0.00  0.00    +0.000 A 
BRANCH  11  14
ATOM     14  O   UNL     1      -2.705  13.089  21.805  0.00  0.00    +0.000 OA
ATOM     15  H   UNL     1      -2.380  13.759  21.179  0.00  0.00    +0.000 HD
ENDBRANCH  11  14
BRANCH  12  16
ATOM     16  O   UNL     1      -0.869  12.836  19.830  0.00  0.00    +0.000 OA
ATOM     17  H   UNL     1      -1.586  12.456  19.283  0.00  0.00    +0.000 HD
ENDBRANCH  12  16
ENDBRANCH   7   8
ENDBRANCH   4   7
ENDBRANCH   2   5
ENDBRANCH   1   2
BRANCH   1  18
ATOM     18  C   UNL     1       0.936   4.258  20.554  0.00  0.00    +0.000 C 
BRANCH  18  19
ATOM     19  C   UNL     1       1.032   2.835  20.008  0.00  0.00    +0.000 C 
BRANCH  19  20
ATOM     20  N   UNL     1       2.307   2.584  19.378  0.00  0.00    +0.000 N 
ATOM     21  C   UNL     1       2.512   2.900  18.049  0.00  0.00    +0.000 C 
ATOM     22  O   UNL     1       1.629   3.338  17.319  0.00  0.00    +0.000 OA
ATOM     23  H   UNL     1       3.073   2.237  19.941  0.00  0.00    +0.000 HD
BRANCH  21  24
ATOM     24  C   UNL     1       3.925   2.676  17.560  0.00  0.00    +0.000 C 
BRANCH  24  25
ATOM     25  C   UNL     1       4.745   3.941  17.469  0.00  0.00    +0.000 A 
ATOM     26  C   UNL     1       5.474   4.416  18.576  0.00  0.00    +0.000 A 
ATOM     27  C   UNL     1       6.141   5.645  18.521  0.00  0.00    +0.000 A 
ATOM     28  C   UNL     1       6.073   6.401  17.359  0.00  0.00    +0.000 A 
ATOM     29  C   UNL     1       5.376   5.925  16.252  0.00  0.00    +0.000 A 
ATOM     30  C   UNL     1       4.720   4.704  16.293  0.00  0.00    +0.000 A 
BRANCH  28  31
ATOM     31  O   UNL     1       6.657   7.633  17.260  0.00  0.00    +0.000 OA
ATOM     32  H   UNL     1       7.452   7.634  17.821  0.00  0.00    +0.000 HD
ENDBRANCH  28  31
BRANCH  29  33
ATOM     33  O   UNL     1       5.299   6.679  15.116  0.00  0.00    +0.000 OA
ATOM     34  H   UNL     1       5.285   6.023  14.391  0.00  0.00    +0.000 HD
ENDBRANCH  29  33
ENDBRANCH  24  25
ENDBRANCH  21  24
ENDBRANCH  19  20
ENDBRANCH  18  19
ENDBRANCH   1  18
TORSDOF 13
ENDMDL
MODEL 6
REMARK VINA RESULT:      -7.2      6.003      8.713
REMARK  Name = 
REMARK  13 active torsions:
REMARK  status: ('A' for Active; 'I' for Inactive)
REMARK    1  A    between atoms: C_2  and  C_3
REMARK    2  A    between atoms: C_3  and  C_4
REMARK    3  A    between atoms: C_7  and  O_8
REMARK    4  A    between atoms: C_9  and  O_10
REMARK    5  A    between atoms: N_12  and  C_13
REMARK    6  A    between atoms: C_13  and  C_14
REMARK    7  A    between atoms: C_14  and  C_15
REMARK    8  A    between atoms: C_15  and  C_16
REMARK    9  A    between atoms: C_16  and  N_17
REMARK   10  A    between atoms: C_18  and  C_20
REMARK   11  A    between atoms: C_20  and  C_21
REMARK   12  A    between atoms: C_24  and  O_25
REMARK   13  A    between atoms: C_26  and  O_27
REMARK                            x       y       z     vdW  Elec       q    Type
REMARK                         _______ _______ _______ _____ _____    ______ ____
ROOT
ATOM      1  C   UNL     1       2.670   6.747  18.041  0.00  0.00    +0.000 C 
ENDROOT
BRANCH   1   2
ATOM      2  C   UNL     1       2.199   7.620  19.207  0.00  0.00    +0.000 C 
BRANCH   2   5
ATOM      3  O   UNL     1       0.547   9.333  20.741  0.00  0.00    +0.000 OA
ATOM      4  C   UNL     1       0.798   9.627  19.575  0.00  0.00    +0.000 C 
ATOM      5  N   UNL     1       1.580   8.847  18.749  0.00  0.00    +0.000 N 
ATOM      6  H   UNL     1       1.813   9.185  17.825  0.00  0.00    +0.000 HD
BRANCH   4   7
ATOM      7  C   UNL     1       0.280  10.901  18.924  0.00  0.00    +0.000 C 
BRANCH   7   8
ATOM      8  C   UNL     1      -1.143  10.835  18.412  0.00  0.00    +0.000 A 
ATOM      9  C   UNL     1      -1.529   9.937  17.400  0.00  0.00    +0.000 A 
ATOM     10  C   UNL     1      -2.839   9.927  16.906  0.00  0.00    +0.000 A 
ATOM     11  C   UNL     1      -3.765  10.829  17.414  0.00  0.00    +0.000 A 
ATOM     12  C   UNL     1      -3.391  11.732  18.403  0.00  0.00    +0.000 A 
ATOM     13  C   UNL     1      -2.093  11.750  18.897  0.00  0.00    +0.000 A 
BRANCH  11  14
ATOM     14  O   UNL     1      -5.057  10.873  16.965  0.00  0.00    +0.000 OA
ATOM     15  H   UNL     1      -5.037  11.094  16.018  0.00  0.00    +0.000 HD
ENDBRANCH  11  14
BRANCH  12  16
ATOM     16  O   UNL     1      -4.306  12.619  18.895  0.00  0.00    +0.000 OA
ATOM     17  H   UNL     1      -4.661  12.183  19.696  0.00  0.00    +0.000 HD
ENDBRANCH  12  16
ENDBRANCH   7   8
ENDBRANCH   4   7
ENDBRANCH   2   5
ENDBRANCH   1   2
BRANCH   1  18
ATOM     18  C   UNL     1       3.961   7.266  17.400  0.00  0.00    +0.000 C 
BRANCH  18  19
ATOM     19  C   UNL     1       5.116   6.278  17.550  0.00  0.00    +0.000 C 
BRANCH  19  20
ATOM     20  N   UNL     1       4.654   4.958  17.913  0.00  0.00    +0.000 N 
ATOM     21  C   UNL     1       4.622   3.940  16.980  0.00  0.00    +0.000 C 
ATOM     22  O   UNL     1       4.911   4.103  15.798  0.00  0.00    +0.000 OA
ATOM     23  H   UNL     1       4.419   4.768  18.879  0.00  0.00    +0.000 HD
BRANCH  21  24
ATOM     24  C   UNL     1       4.214   2.594  17.531  0.00  0.00    +0.000 C 
BRANCH  24  25
ATOM     25  C   UNL     1       3.374   2.677  18.783  0.00  0.00    +0.000 A 
ATOM     26  C   UNL     1       3.957   2.559  20.060  0.00  0.00    +0.000 A 
ATOM     27  C   UNL     1       3.162   2.525  21.210  0.00  0.00    +0.000 A 
ATOM     28  C   UNL     1       1.781   2.602  21.083  0.00  0.00    +0.000 A 
ATOM     29  C   UNL     1       1.200   2.744  19.826  0.00  0.00    +0.000 A 
ATOM     30  C   UNL     1       1.981   2.790  18.680  0.00  0.00    +0.000 A 
BRANCH  28  31
ATOM     31  O   UNL     1       0.947   2.520  22.163  0.00  0.00    +0.000 OA
ATOM     32  H   UNL     1       1.386   1.977  22.839  0.00  0.00    +0.000 HD
ENDBRANCH  28  31
BRANCH  29  33
ATOM     33  O   UNL     1      -0.158   2.805  19.703  0.00  0.00    +0.000 OA
ATOM     34  H   UNL     1      -0.491   2.634  20.606  0.00  0.00    +0.000 HD
ENDBRANCH  29  33
ENDBRANCH  24  25
ENDBRANCH  21  24
ENDBRANCH  19  20
ENDBRANCH  18  19
ENDBRANCH   1  18
TORSDOF 13
ENDMDL
MODEL 7
REMARK VINA RESULT:      -7.2      3.406     11.218
REMARK  Name = 
REMARK  13 active torsions:
REMARK  status: ('A' for Active; 'I' for Inactive)
REMARK    1  A    between atoms: C_2  and  C_3
REMARK    2  A    between atoms: C_3  and  C_4
REMARK    3  A    between atoms: C_7  and  O_8
REMARK    4  A    between atoms: C_9  and  O_10
REMARK    5  A    between atoms: N_12  and  C_13
REMARK    6  A    between atoms: C_13  and  C_14
REMARK    7  A    between atoms: C_14  and  C_15
REMARK    8  A    between atoms: C_15  and  C_16
REMARK    9  A    between atoms: C_16  and  N_17
REMARK   10  A    between atoms: C_18  and  C_20
REMARK   11  A    between atoms: C_20  and  C_21
REMARK   12  A    between atoms: C_24  and  O_25
REMARK   13  A    between atoms: C_26  and  O_27
REMARK                            x       y       z     vdW  Elec       q    Type
REMARK                         _______ _______ _______ _____ _____    ______ ____
ROOT
ATOM      1  C   UNL     1       8.314   8.265  18.217  0.00  0.00    +0.000 C 
ENDROOT
BRANCH   1   2
ATOM      2  C   UNL     1       7.525   7.308  17.319  0.00  0.00    +0.000 C 
BRANCH   2   5
ATOM      3  O   UNL     1       5.310   6.606  15.701  0.00  0.00    +0.000 OA
ATOM      4  C   UNL     1       5.139   6.797  16.903  0.00  0.00    +0.000 C 
ATOM      5  N   UNL     1       6.155   7.156  17.764  0.00  0.00    +0.000 N 
ATOM      6  H   UNL     1       5.963   7.221  18.754  0.00  0.00    +0.000 HD
BRANCH   4   7
ATOM      7  C   UNL     1       3.781   6.639  17.570  0.00  0.00    +0.000 C 
BRANCH   7   8
ATOM      8  C   UNL     1       3.371   5.215  17.876  0.00  0.00    +0.000 A 
ATOM      9  C   UNL     1       2.044   4.773  17.724  0.00  0.00    +0.000 A 
ATOM     10  C   UNL     1       1.676   3.464  18.060  0.00  0.00    +0.000 A 
ATOM     11  C   UNL     1       2.634   2.597  18.567  0.00  0.00    +0.000 A 
ATOM     12  C   UNL     1       3.945   3.026  18.738  0.00  0.00    +0.000 A 
ATOM     13  C   UNL     1       4.318   4.324  18.408  0.00  0.00    +0.000 A 
BRANCH  11  14
ATOM     14  O   UNL     1       2.333   1.311  18.923  0.00  0.00    +0.000 OA
ATOM     15  H   UNL     1       3.170   0.838  19.075  0.00  0.00    +0.000 HD
ENDBRANCH  11  14
BRANCH  12  16
ATOM     16  O   UNL     1       4.882   2.169  19.241  0.00  0.00    +0.000 OA
ATOM     17  H   UNL     1       5.058   2.504  20.144  0.00  0.00    +0.000 HD
ENDBRANCH  12  16
ENDBRANCH   7   8
ENDBRANCH   4   7
ENDBRANCH   2   5
ENDBRANCH   1   2
BRANCH   1  18
ATOM     18  C   UNL     1       8.080   9.736  17.861  0.00  0.00    +0.000 C 
BRANCH  18  19
ATOM     19  C   UNL     1       9.237  10.629  18.307  0.00  0.00    +0.000 C 
BRANCH  19  20
ATOM     20  N   UNL     1       9.053  11.999  17.890  0.00  0.00    +0.000 N 
ATOM     21  C   UNL     1       8.945  13.013  18.822  0.00  0.00    +0.000 C 
ATOM     22  O   UNL     1       8.930  12.813  20.032  0.00  0.00    +0.000 OA
ATOM     23  H   UNL     1       9.074  12.219  16.902  0.00  0.00    +0.000 HD
BRANCH  21  24
ATOM     24  C   UNL     1       8.862  14.403  18.233  0.00  0.00    +0.000 C 
BRANCH  24  25
ATOM     25  C   UNL     1       7.507  15.050  18.391  0.00  0.00    +0.000 A 
ATOM     26  C   UNL     1       6.348  14.449  17.864  0.00  0.00    +0.000 A 
ATOM     27  C   UNL     1       5.113  15.106  17.914  0.00  0.00    +0.000 A 
ATOM     28  C   UNL     1       5.040  16.368  18.487  0.00  0.00    +0.000 A 
ATOM     29  C   UNL     1       6.177  16.958  19.032  0.00  0.00    +0.000 A 
ATOM     30  C   UNL     1       7.404  16.310  18.997  0.00  0.00    +0.000 A 
BRANCH  28  31
ATOM     31  O   UNL     1       3.876  17.084  18.519  0.00  0.00    +0.000 OA
ATOM     32  H   UNL     1       3.275  16.708  17.853  0.00  0.00    +0.000 HD
ENDBRANCH  28  31
BRANCH  29  33
ATOM     33  O   UNL     1       6.105  18.205  19.581  0.00  0.00    +0.000 OA
ATOM     34  H   UNL     1       6.950  18.629  19.334  0.00  0.00    +0.000 HD
ENDBRANCH  29  33
ENDBRANCH  24  25
ENDBRANCH  21  24
ENDBRANCH  19  20
ENDBRANCH  18  19
ENDBRANCH   1  18
TORSDOF 13
ENDMDL
MODEL 8
REMARK VINA RESULT:      -7.2      7.236     11.386
REMARK  Name = 
REMARK  13 active torsions:
REMARK  status: ('A' for Active; 'I' for Inactive)
REMARK    1  A    between atoms: C_2  and  C_3
REMARK    2  A    between atoms: C_3  and  C_4
REMARK    3  A    between atoms: C_7  and  O_8
REMARK    4  A    between atoms: C_9  and  O_10
REMARK    5  A    between atoms: N_12  and  C_13
REMARK    6  A    between atoms: C_13  and  C_14
REMARK    7  A    between atoms: C_14  and  C_15
REMARK    8  A    between atoms: C_15  and  C_16
REMARK    9  A    between atoms: C_16  and  N_17
REMARK   10  A    between atoms: C_18  and  C_20
REMARK   11  A    between atoms: C_20  and  C_21
REMARK   12  A    between atoms: C_24  and  O_25
REMARK   13  A    between atoms: C_26  and  O_27
REMARK                            x       y       z     vdW  Elec       q    Type
REMARK                         _______ _______ _______ _____ _____    ______ ____
ROOT
ATOM      1  C   UNL     1       1.300   9.366  22.312  0.00  0.00    +0.000 C 
ENDROOT
BRANCH   1   2
ATOM      2  C   UNL     1       1.543   8.611  21.002  0.00  0.00    +0.000 C 
BRANCH   2   5
ATOM      3  O   UNL     1       2.520   6.552  19.323  0.00  0.00    +0.000 OA
ATOM      4  C   UNL     1       1.799   6.260  20.274  0.00  0.00    +0.000 C 
ATOM      5  N   UNL     1       1.265   7.196  21.135  0.00  0.00    +0.000 N 
ATOM      6  H   UNL     1       0.745   6.883  21.943  0.00  0.00    +0.000 HD
BRANCH   4   7
ATOM      7  C   UNL     1       1.431   4.822  20.609  0.00  0.00    +0.000 C 
BRANCH   7   8
ATOM      8  C   UNL     1       2.183   3.763  19.832  0.00  0.00    +0.000 A 
ATOM      9  C   UNL     1       1.695   3.241  18.620  0.00  0.00    +0.000 A 
ATOM     10  C   UNL     1       2.381   2.226  17.942  0.00  0.00    +0.000 A 
ATOM     11  C   UNL     1       3.553   1.717  18.486  0.00  0.00    +0.000 A 
ATOM     12  C   UNL     1       4.037   2.213  19.691  0.00  0.00    +0.000 A 
ATOM     13  C   UNL     1       3.361   3.219  20.370  0.00  0.00    +0.000 A 
BRANCH  11  14
ATOM     14  O   UNL     1       4.262   0.719  17.876  0.00  0.00    +0.000 OA
ATOM     15  H   UNL     1       4.953   1.133  17.331  0.00  0.00    +0.000 HD
ENDBRANCH  11  14
BRANCH  12  16
ATOM     16  O   UNL     1       5.189   1.705  20.222  0.00  0.00    +0.000 OA
ATOM     17  H   UNL     1       5.579   2.454  20.717  0.00  0.00    +0.000 HD
ENDBRANCH  12  16
ENDBRANCH   7   8
ENDBRANCH   4   7
ENDBRANCH   2   5
ENDBRANCH   1   2
BRANCH   1  18
ATOM     18  C   UNL     1      -0.071   9.061  22.924  0.00  0.00    +0.000 C 
BRANCH  18  19
ATOM     19  C   UNL     1      -0.883  10.328  23.181  0.00  0.00    +0.000 C 
BRANCH  19  20
ATOM     20  N   UNL     1      -0.971  11.161  22.004  0.00  0.00    +0.000 N 
ATOM     21  C   UNL     1      -1.034  12.537  22.116  0.00  0.00    +0.000 C 
ATOM     22  O   UNL     1      -1.087  13.121  23.194  0.00  0.00    +0.000 OA
ATOM     23  H   UNL     1      -0.915  10.729  21.091  0.00  0.00    +0.000 HD
BRANCH  21  24
ATOM     24  C   UNL     1      -1.017  13.277  20.798  0.00  0.00    +0.000 C 
BRANCH  24  25
ATOM     25  C   UNL     1      -1.988  12.730  19.780  0.00  0.00    +0.000 A 
ATOM     26  C   UNL     1      -3.371  12.692  20.041  0.00  0.00    +0.000 A 
ATOM     27  C   UNL     1      -4.254  12.083  19.143  0.00  0.00    +0.000 A 
ATOM     28  C   UNL     1      -3.751  11.506  17.984  0.00  0.00    +0.000 A 
ATOM     29  C   UNL     1      -2.388  11.562  17.708  0.00  0.00    +0.000 A 
ATOM     30  C   UNL     1      -1.506  12.173  18.587  0.00  0.00    +0.000 A 
BRANCH  28  31
ATOM     31  O   UNL     1      -4.554  10.849  17.094  0.00  0.00    +0.000 OA
ATOM     32  H   UNL     1      -4.815  10.002  17.494  0.00  0.00    +0.000 HD
ENDBRANCH  28  31
BRANCH  29  33
ATOM     33  O   UNL     1      -1.896  10.980  16.576  0.00  0.00    +0.000 OA
ATOM     34  H   UNL     1      -1.622  10.086  16.862  0.00  0.00    +0.000 HD
ENDBRANCH  29  33
ENDBRANCH  24  25
ENDBRANCH  21  24
ENDBRANCH  19  20
ENDBRANCH  18  19
ENDBRANCH   1  18
TORSDOF 13
ENDMDL
MODEL 9
REMARK VINA RESULT:      -7.0      5.527      8.713
REMARK  Name = 
REMARK  13 active torsions:
REMARK  status: ('A' for Active; 'I' for Inactive)
REMARK    1  A    between atoms: C_2  and  C_3
REMARK    2  A    between atoms: C_3  and  C_4
REMARK    3  A    between atoms: C_7  and  O_8
REMARK    4  A    between atoms: C_9  and  O_10
REMARK    5  A    between atoms: N_12  and  C_13
REMARK    6  A    between atoms: C_13  and  C_14
REMARK    7  A    between atoms: C_14  and  C_15
REMARK    8  A    between atoms: C_15  and  C_16
REMARK    9  A    between atoms: C_16  and  N_17
REMARK   10  A    between atoms: C_18  and  C_20
REMARK   11  A    between atoms: C_20  and  C_21
REMARK   12  A    between atoms: C_24  and  O_25
REMARK   13  A    between atoms: C_26  and  O_27
REMARK                            x       y       z     vdW  Elec       q    Type
REMARK                         _______ _______ _______ _____ _____    ______ ____
ROOT
ATOM      1  C   UNL     1       1.609   5.383  19.952  0.00  0.00    +0.000 C 
ENDROOT
BRANCH   1   2
ATOM      2  C   UNL     1       2.491   6.634  19.929  0.00  0.00    +0.000 C 
BRANCH   2   5
ATOM      3  O   UNL     1       1.914   8.906  18.342  0.00  0.00    +0.000 OA
ATOM      4  C   UNL     1       1.521   8.871  19.506  0.00  0.00    +0.000 C 
ATOM      5  N   UNL     1       1.767   7.813  20.357  0.00  0.00    +0.000 N 
ATOM      6  H   UNL     1       1.349   7.812  21.277  0.00  0.00    +0.000 HD
BRANCH   4   7
ATOM      7  C   UNL     1       0.702   9.994  20.127  0.00  0.00    +0.000 C 
BRANCH   7   8
ATOM      8  C   UNL     1      -0.486  10.456  19.312  0.00  0.00    +0.000 A 
ATOM      9  C   UNL     1      -0.795   9.894  18.060  0.00  0.00    +0.000 A 
ATOM     10  C   UNL     1      -1.870  10.370  17.300  0.00  0.00    +0.000 A 
ATOM     11  C   UNL     1      -2.631  11.426  17.784  0.00  0.00    +0.000 A 
ATOM     12  C   UNL     1      -2.326  12.002  19.013  0.00  0.00    +0.000 A 
ATOM     13  C   UNL     1      -1.260  11.535  19.772  0.00  0.00    +0.000 A 
BRANCH  11  14
ATOM     14  O   UNL     1      -3.687  11.941  17.083  0.00  0.00    +0.000 OA
ATOM     15  H   UNL     1      -4.084  11.219  16.567  0.00  0.00    +0.000 HD
ENDBRANCH  11  14
BRANCH  12  16
ATOM     16  O   UNL     1      -3.076  13.042  19.481  0.00  0.00    +0.000 OA
ATOM     17  H   UNL     1      -3.997  12.711  19.452  0.00  0.00    +0.000 HD
ENDBRANCH  12  16
ENDBRANCH   7   8
ENDBRANCH   4   7
ENDBRANCH   2   5
ENDBRANCH   1   2
BRANCH   1  18
ATOM     18  C   UNL     1       2.188   4.269  20.830  0.00  0.00    +0.000 C 
BRANCH  18  19
ATOM     19  C   UNL     1       2.390   2.969  20.054  0.00  0.00    +0.000 C 
BRANCH  19  20
ATOM     20  N   UNL     1       3.389   3.108  19.019  0.00  0.00    +0.000 N 
ATOM     21  C   UNL     1       3.019   3.274  17.699  0.00  0.00    +0.000 C 
ATOM     22  O   UNL     1       1.852   3.245  17.319  0.00  0.00    +0.000 OA
ATOM     23  H   UNL     1       4.365   3.154  19.281  0.00  0.00    +0.000 HD
BRANCH  21  24
ATOM     24  C   UNL     1       4.169   3.510  16.748  0.00  0.00    +0.000 C 
BRANCH  24  25
ATOM     25  C   UNL     1       5.092   4.627  17.173  0.00  0.00    +0.000 A 
ATOM     26  C   UNL     1       4.901   5.944  16.710  0.00  0.00    +0.000 A 
ATOM     27  C   UNL     1       5.822   6.951  17.017  0.00  0.00    +0.000 A 
ATOM     28  C   UNL     1       6.938   6.640  17.783  0.00  0.00    +0.000 A 
ATOM     29  C   UNL     1       7.119   5.346  18.264  0.00  0.00    +0.000 A 
ATOM     30  C   UNL     1       6.206   4.343  17.974  0.00  0.00    +0.000 A 
BRANCH  28  31
ATOM     31  O   UNL     1       7.901   7.565  18.071  0.00  0.00    +0.000 OA
ATOM     32  H   UNL     1       8.055   8.097  17.272  0.00  0.00    +0.000 HD
ENDBRANCH  28  31
BRANCH  29  33
ATOM     33  O   UNL     1       8.225   5.040  19.004  0.00  0.00    +0.000 OA
ATOM     34  H   UNL     1       8.975   5.343  18.455  0.00  0.00    +0.000 HD
ENDBRANCH  29  33
ENDBRANCH  24  25
ENDBRANCH  21  24
ENDBRANCH  19  20
ENDBRANCH  18  19
ENDBRANCH   1  18
TORSDOF 13
ENDMDL
