MODEL 1
REMARK VINA RESULT:      -7.1      0.000      0.000
REMARK  Name = 
REMARK  4 active torsions:
REMARK  status: ('A' for Active; 'I' for Inactive)
REMARK    1  A    between atoms: C_1  and  C_2
REMARK    2  A    between atoms: C_2  and  O_3
REMARK    3  A    between atoms: O_3  and  C_4
REMARK    4  A    between atoms: C_9  and  C_10
REMARK                            x       y       z     vdW  Elec       q    Type
REMARK                         _______ _______ _______ _____ _____    ______ ____
ROOT
ATOM      1  C   UNL     1       6.539   4.240  16.231  0.00  0.00    +0.000 A 
ATOM      2  N   UNL     1       7.848   4.454  16.482  0.00  0.00    +0.000 NA
ATOM      3  O   UNL     1       7.901   4.800  17.738  0.00  0.00    +0.000 OA
ATOM      4  N   UNL     1       6.722   4.825  18.298  0.00  0.00    +0.000 N 
ATOM      5  O   UNL     1       6.506   5.103  19.579  0.00  0.00    +0.000 OA
ATOM      6  C   UNL     1       5.816   4.454  17.374  0.00  0.00    +0.000 A 
ENDROOT
BRANCH   6   7
ATOM      7  C   UNL     1       4.348   4.288  17.535  0.00  0.00    +0.000 A 
ATOM      8  C   UNL     1       3.735   3.023  17.486  0.00  0.00    +0.000 A 
ATOM      9  C   UNL     1       2.350   2.905  17.662  0.00  0.00    +0.000 A 
ATOM     10  C   UNL     1       1.563   4.042  17.866  0.00  0.00    +0.000 A 
ATOM     11  C   UNL     1       2.155   5.302  17.899  0.00  0.00    +0.000 A 
ATOM     12  C   UNL     1       3.531   5.424  17.740  0.00  0.00    +0.000 A 
ENDBRANCH   6   7
BRANCH   1  13
ATOM     13  O   UNL     1       6.005   3.919  15.037  0.00  0.00    +0.000 OA
BRANCH  13  15
ATOM     14  C   UNL     1       5.729   3.478  12.754  0.00  0.00    +0.000 C 
ATOM     15  C   UNL     1       6.520   4.235  13.809  0.00  0.00    +0.000 C 
ENDBRANCH  13  15
ENDBRANCH   1  13
TORSDOF 3
ENDMDL
MODEL 2
REMARK VINA RESULT:      -7.0      0.351      1.291
REMARK  Name = 
REMARK  4 active torsions:
REMARK  status: ('A' for Active; 'I' for Inactive)
REMARK    1  A    between atoms: C_1  and  C_2
REMARK    2  A    between atoms: C_2  and  O_3
REMARK    3  A    between atoms: O_3  and  C_4
REMARK    4  A    between atoms: C_9  and  C_10
REMARK                            x       y       z     vdW  Elec       q    Type
REMARK                         _______ _______ _______ _____ _____    ______ ____
ROOT
ATOM      1  C   UNL     1       6.491   4.124  16.333  0.00  0.00    +0.000 A 
ATOM      2  N   UNL     1       7.787   4.431  16.549  0.00  0.00    +0.000 NA
ATOM      3  O   UNL     1       7.833   4.864  17.779  0.00  0.00    +0.000 OA
ATOM      4  N   UNL     1       6.662   4.855  18.354  0.00  0.00    +0.000 N 
ATOM      5  O   UNL     1       6.444   5.206  19.616  0.00  0.00    +0.000 OA
ATOM      6  C   UNL     1       5.770   4.370  17.471  0.00  0.00    +0.000 A 
ENDROOT
BRANCH   6   7
ATOM      7  C   UNL     1       4.316   4.128  17.665  0.00  0.00    +0.000 A 
ATOM      8  C   UNL     1       3.393   5.185  17.749  0.00  0.00    +0.000 A 
ATOM      9  C   UNL     1       2.027   4.916  17.912  0.00  0.00    +0.000 A 
ATOM     10  C   UNL     1       1.573   3.598  18.015  0.00  0.00    +0.000 A 
ATOM     11  C   UNL     1       2.479   2.543  17.951  0.00  0.00    +0.000 A 
ATOM     12  C   UNL     1       3.833   2.803  17.774  0.00  0.00    +0.000 A 
ENDBRANCH   6   7
BRANCH   1  13
ATOM     13  O   UNL     1       5.963   3.692  15.172  0.00  0.00    +0.000 OA
BRANCH  13  15
ATOM     14  C   UNL     1       6.136   3.564  12.840  0.00  0.00    +0.000 C 
ATOM     15  C   UNL     1       5.789   4.437  14.037  0.00  0.00    +0.000 C 
ENDBRANCH  13  15
ENDBRANCH   1  13
TORSDOF 3
ENDMDL
MODEL 3
REMARK VINA RESULT:      -6.6      1.091      1.517
REMARK  Name = 
REMARK  4 active torsions:
REMARK  status: ('A' for Active; 'I' for Inactive)
REMARK    1  A    between atoms: C_1  and  C_2
REMARK    2  A    between atoms: C_2  and  O_3
REMARK    3  A    between atoms: O_3  and  C_4
REMARK    4  A    between atoms: C_9  and  C_10
REMARK                            x       y       z     vdW  Elec       q    Type
REMARK                         _______ _______ _______ _____ _____    ______ ____
ROOT
ATOM      1  C   UNL     1       6.695   4.713  16.536  0.00  0.00    +0.000 A 
ATOM      2  N   UNL     1       7.935   4.268  16.826  0.00  0.00    +0.000 NA
ATOM      3  O   UNL     1       8.077   4.467  18.107  0.00  0.00    +0.000 OA
ATOM      4  N   UNL     1       7.020   5.009  18.648  0.00  0.00    +0.000 N 
ATOM      5  O   UNL     1       6.892   5.274  19.942  0.00  0.00    +0.000 OA
ATOM      6  C   UNL     1       6.097   5.170  17.681  0.00  0.00    +0.000 A 
ENDROOT
BRANCH   6   7
ATOM      7  C   UNL     1       4.716   5.707  17.803  0.00  0.00    +0.000 A 
ATOM      8  C   UNL     1       3.627   4.882  18.137  0.00  0.00    +0.000 A 
ATOM      9  C   UNL     1       2.343   5.429  18.262  0.00  0.00    +0.000 A 
ATOM     10  C   UNL     1       2.129   6.792  18.035  0.00  0.00    +0.000 A 
ATOM     11  C   UNL     1       3.196   7.615  17.686  0.00  0.00    +0.000 A 
ATOM     12  C   UNL     1       4.474   7.081  17.575  0.00  0.00    +0.000 A 
ENDBRANCH   6   7
BRANCH   1  13
ATOM     13  O   UNL     1       6.137   4.759  15.311  0.00  0.00    +0.000 OA
BRANCH  13  15
ATOM     14  C   UNL     1       6.114   3.674  13.237  0.00  0.00    +0.000 C 
ATOM     15  C   UNL     1       6.803   4.706  14.117  0.00  0.00    +0.000 C 
ENDBRANCH  13  15
ENDBRANCH   1  13
TORSDOF 3
ENDMDL
MODEL 4
REMARK VINA RESULT:      -6.6      1.579      3.131
REMARK  Name = 
REMARK  4 active torsions:
REMARK  status: ('A' for Active; 'I' for Inactive)
REMARK    1  A    between atoms: C_1  and  C_2
REMARK    2  A    between atoms: C_2  and  O_3
REMARK    3  A    between atoms: O_3  and  C_4
REMARK    4  A    between atoms: C_9  and  C_10
REMARK                            x       y       z     vdW  Elec       q    Type
REMARK                         _______ _______ _______ _____ _____    ______ ____
ROOT
ATOM      1  C   UNL     1       6.847   4.587  17.259  0.00  0.00    +0.000 A 
ATOM      2  N   UNL     1       7.893   4.541  16.409  0.00  0.00    +0.000 NA
ATOM      3  O   UNL     1       7.362   4.434  15.222  0.00  0.00    +0.000 OA
ATOM      4  N   UNL     1       6.058   4.405  15.260  0.00  0.00    +0.000 N 
ATOM      5  O   UNL     1       5.278   4.344  14.188  0.00  0.00    +0.000 OA
ATOM      6  C   UNL     1       5.679   4.519  16.547  0.00  0.00    +0.000 A 
ENDROOT
BRANCH   6   7
ATOM      7  C   UNL     1       4.301   4.579  17.102  0.00  0.00    +0.000 A 
ATOM      8  C   UNL     1       3.465   3.449  17.132  0.00  0.00    +0.000 A 
ATOM      9  C   UNL     1       2.179   3.540  17.682  0.00  0.00    +0.000 A 
ATOM     10  C   UNL     1       1.708   4.757  18.184  0.00  0.00    +0.000 A 
ATOM     11  C   UNL     1       2.520   5.887  18.144  0.00  0.00    +0.000 A 
ATOM     12  C   UNL     1       3.802   5.800  17.613  0.00  0.00    +0.000 A 
ENDBRANCH   6   7
BRANCH   1  13
ATOM     13  O   UNL     1       6.921   4.638  18.603  0.00  0.00    +0.000 OA
BRANCH  13  15
ATOM     14  C   UNL     1       7.780   6.807  18.403  0.00  0.00    +0.000 C 
ATOM     15  C   UNL     1       7.451   5.658  19.345  0.00  0.00    +0.000 C 
ENDBRANCH  13  15
ENDBRANCH   1  13
TORSDOF 3
ENDMDL
MODEL 5
REMARK VINA RESULT:      -6.6      1.330      1.864
REMARK  Name = 
REMARK  4 active torsions:
REMARK  status: ('A' for Active; 'I' for Inactive)
REMARK    1  A    between atoms: C_1  and  C_2
REMARK    2  A    between atoms: C_2  and  O_3
REMARK    3  A    between atoms: O_3  and  C_4
REMARK    4  A    between atoms: C_9  and  C_10
REMARK                            x       y       z     vdW  Elec       q    Type
REMARK                         _______ _______ _______ _____ _____    ______ ____
ROOT
ATOM      1  C   UNL     1       6.246   4.883  15.004  0.00  0.00    +0.000 A 
ATOM      2  N   UNL     1       7.474   5.398  14.787  0.00  0.00    +0.000 NA
ATOM      3  O   UNL     1       7.744   6.095  15.856  0.00  0.00    +0.000 OA
ATOM      4  N   UNL     1       6.775   6.062  16.730  0.00  0.00    +0.000 N 
ATOM      5  O   UNL     1       6.818   6.653  17.919  0.00  0.00    +0.000 OA
ATOM      6  C   UNL     1       5.798   5.280  16.236  0.00  0.00    +0.000 A 
ENDROOT
BRANCH   6   7
ATOM      7  C   UNL     1       4.509   4.899  16.873  0.00  0.00    +0.000 A 
ATOM      8  C   UNL     1       3.649   5.858  17.437  0.00  0.00    +0.000 A 
ATOM      9  C   UNL     1       2.434   5.462  18.010  0.00  0.00    +0.000 A 
ATOM     10  C   UNL     1       2.075   4.111  18.046  0.00  0.00    +0.000 A 
ATOM     11  C   UNL     1       2.925   3.150  17.505  0.00  0.00    +0.000 A 
ATOM     12  C   UNL     1       4.126   3.539  16.922  0.00  0.00    +0.000 A 
ENDBRANCH   6   7
BRANCH   1  13
ATOM     13  O   UNL     1       5.535   4.138  14.136  0.00  0.00    +0.000 OA
BRANCH  13  15
ATOM     14  C   UNL     1       4.757   3.433  12.043  0.00  0.00    +0.000 C 
ATOM     15  C   UNL     1       5.972   3.671  12.926  0.00  0.00    +0.000 C 
ENDBRANCH  13  15
ENDBRANCH   1  13
TORSDOF 3
ENDMDL
MODEL 6
REMARK VINA RESULT:      -6.5      1.620      3.410
REMARK  Name = 
REMARK  4 active torsions:
REMARK  status: ('A' for Active; 'I' for Inactive)
REMARK    1  A    between atoms: C_1  and  C_2
REMARK    2  A    between atoms: C_2  and  O_3
REMARK    3  A    between atoms: O_3  and  C_4
REMARK    4  A    between atoms: C_9  and  C_10
REMARK                            x       y       z     vdW  Elec       q    Type
REMARK                         _______ _______ _______ _____ _____    ______ ____
ROOT
ATOM      1  C   UNL     1       6.851   4.633  17.393  0.00  0.00    +0.000 A 
ATOM      2  N   UNL     1       7.899   4.506  16.552  0.00  0.00    +0.000 NA
ATOM      3  O   UNL     1       7.372   4.416  15.363  0.00  0.00    +0.000 OA
ATOM      4  N   UNL     1       6.068   4.475  15.390  0.00  0.00    +0.000 N 
ATOM      5  O   UNL     1       5.294   4.450  14.311  0.00  0.00    +0.000 OA
ATOM      6  C   UNL     1       5.687   4.633  16.671  0.00  0.00    +0.000 A 
ENDROOT
BRANCH   6   7
ATOM      7  C   UNL     1       4.311   4.792  17.212  0.00  0.00    +0.000 A 
ATOM      8  C   UNL     1       3.872   6.003  17.776  0.00  0.00    +0.000 A 
ATOM      9  C   UNL     1       2.562   6.121  18.257  0.00  0.00    +0.000 A 
ATOM     10  C   UNL     1       1.687   5.031  18.203  0.00  0.00    +0.000 A 
ATOM     11  C   UNL     1       2.116   3.821  17.663  0.00  0.00    +0.000 A 
ATOM     12  C   UNL     1       3.410   3.703  17.170  0.00  0.00    +0.000 A 
ENDBRANCH   6   7
BRANCH   1  13
ATOM     13  O   UNL     1       6.917   4.699  18.736  0.00  0.00    +0.000 OA
BRANCH  13  15
ATOM     14  C   UNL     1       7.884   6.829  18.640  0.00  0.00    +0.000 C 
ATOM     15  C   UNL     1       7.682   5.568  19.466  0.00  0.00    +0.000 C 
ENDBRANCH  13  15
ENDBRANCH   1  13
TORSDOF 3
ENDMDL
MODEL 7
REMARK VINA RESULT:      -6.5      1.196      1.739
REMARK  Name = 
REMARK  4 active torsions:
REMARK  status: ('A' for Active; 'I' for Inactive)
REMARK    1  A    between atoms: C_1  and  C_2
REMARK    2  A    between atoms: C_2  and  O_3
REMARK    3  A    between atoms: O_3  and  C_4
REMARK    4  A    between atoms: C_9  and  C_10
REMARK                            x       y       z     vdW  Elec       q    Type
REMARK                         _______ _______ _______ _____ _____    ______ ____
ROOT
ATOM      1  C   UNL     1       6.279   5.966  16.440  0.00  0.00    +0.000 A 
ATOM      2  N   UNL     1       7.520   6.411  16.724  0.00  0.00    +0.000 NA
ATOM      3  O   UNL     1       7.674   6.199  18.002  0.00  0.00    +0.000 OA
ATOM      4  N   UNL     1       6.620   5.655  18.546  0.00  0.00    +0.000 N 
ATOM      5  O   UNL     1       6.536   5.299  19.823  0.00  0.00    +0.000 OA
ATOM      6  C   UNL     1       5.703   5.469  17.579  0.00  0.00    +0.000 A 
ENDROOT
BRANCH   6   7
ATOM      7  C   UNL     1       4.357   4.847  17.690  0.00  0.00    +0.000 A 
ATOM      8  C   UNL     1       3.204   5.614  17.934  0.00  0.00    +0.000 A 
ATOM      9  C   UNL     1       1.950   4.994  18.012  0.00  0.00    +0.000 A 
ATOM     10  C   UNL     1       1.836   3.607  17.870  0.00  0.00    +0.000 A 
ATOM     11  C   UNL     1       2.972   2.835  17.645  0.00  0.00    +0.000 A 
ATOM     12  C   UNL     1       4.217   3.447  17.552  0.00  0.00    +0.000 A 
ENDBRANCH   6   7
BRANCH   1  13
ATOM     13  O   UNL     1       5.666   6.039  15.243  0.00  0.00    +0.000 OA
BRANCH  13  15
ATOM     14  C   UNL     1       6.562   4.062  14.366  0.00  0.00    +0.000 C 
ATOM     15  C   UNL     1       5.354   4.983  14.429  0.00  0.00    +0.000 C 
ENDBRANCH  13  15
ENDBRANCH   1  13
TORSDOF 3
ENDMDL
MODEL 8
REMARK VINA RESULT:      -6.3      3.311      4.708
REMARK  Name = 
REMARK  4 active torsions:
REMARK  status: ('A' for Active; 'I' for Inactive)
REMARK    1  A    between atoms: C_1  and  C_2
REMARK    2  A    between atoms: C_2  and  O_3
REMARK    3  A    between atoms: O_3  and  C_4
REMARK    4  A    between atoms: C_9  and  C_10
REMARK                            x       y       z     vdW  Elec       q    Type
REMARK                         _______ _______ _______ _____ _____    ______ ____
ROOT
ATOM      1  C   UNL     1       3.248   3.695  18.859  0.00  0.00    +0.000 A 
ATOM      2  N   UNL     1       4.168   2.731  19.065  0.00  0.00    +0.000 NA
ATOM      3  O   UNL     1       5.270   3.367  19.351  0.00  0.00    +0.000 OA
ATOM      4  N   UNL     1       5.115   4.663  19.337  0.00  0.00    +0.000 N 
ATOM      5  O   UNL     1       6.070   5.536  19.636  0.00  0.00    +0.000 OA
ATOM      6  C   UNL     1       3.827   4.923  19.044  0.00  0.00    +0.000 A 
ENDROOT
BRANCH   6   7
ATOM      7  C   UNL     1       3.149   6.243  18.952  0.00  0.00    +0.000 A 
ATOM      8  C   UNL     1       3.278   7.065  17.818  0.00  0.00    +0.000 A 
ATOM      9  C   UNL     1       2.607   8.293  17.760  0.00  0.00    +0.000 A 
ATOM     10  C   UNL     1       1.822   8.723  18.834  0.00  0.00    +0.000 A 
ATOM     11  C   UNL     1       1.699   7.926  19.969  0.00  0.00    +0.000 A 
ATOM     12  C   UNL     1       2.351   6.699  20.027  0.00  0.00    +0.000 A 
ENDBRANCH   6   7
BRANCH   1  13
ATOM     13  O   UNL     1       1.970   3.502  18.478  0.00  0.00    +0.000 OA
BRANCH  13  15
ATOM     14  C   UNL     1       0.955   3.274  20.575  0.00  0.00    +0.000 C 
ATOM     15  C   UNL     1       1.032   2.762  19.145  0.00  0.00    +0.000 C 
ENDBRANCH  13  15
ENDBRANCH   1  13
TORSDOF 3
ENDMDL
MODEL 9
REMARK VINA RESULT:      -6.2      3.144      4.843
REMARK  Name = 
REMARK  4 active torsions:
REMARK  status: ('A' for Active; 'I' for Inactive)
REMARK    1  A    between atoms: C_1  and  C_2
REMARK    2  A    between atoms: C_2  and  O_3
REMARK    3  A    between atoms: O_3  and  C_4
REMARK    4  A    between atoms: C_9  and  C_10
REMARK                            x       y       z     vdW  Elec       q    Type
REMARK                         _______ _______ _______ _____ _____    ______ ____
ROOT
ATOM      1  C   UNL     1       2.872   4.438  19.489  0.00  0.00    +0.000 A 
ATOM      2  N   UNL     1       2.261   3.893  20.561  0.00  0.00    +0.000 NA
ATOM      3  O   UNL     1       3.018   2.889  20.910  0.00  0.00    +0.000 OA
ATOM      4  N   UNL     1       4.060   2.757  20.135  0.00  0.00    +0.000 N 
ATOM      5  O   UNL     1       5.007   1.842  20.302  0.00  0.00    +0.000 OA
ATOM      6  C   UNL     1       4.020   3.741  19.218  0.00  0.00    +0.000 A 
ENDROOT
BRANCH   6   7
ATOM      7  C   UNL     1       5.003   4.042  18.143  0.00  0.00    +0.000 A 
ATOM      8  C   UNL     1       4.754   3.712  16.799  0.00  0.00    +0.000 A 
ATOM      9  C   UNL     1       5.696   4.029  15.811  0.00  0.00    +0.000 A 
ATOM     10  C   UNL     1       6.898   4.656  16.154  0.00  0.00    +0.000 A 
ATOM     11  C   UNL     1       7.163   4.972  17.484  0.00  0.00    +0.000 A 
ATOM     12  C   UNL     1       6.226   4.673  18.466  0.00  0.00    +0.000 A 
ENDBRANCH   6   7
BRANCH   1  13
ATOM     13  O   UNL     1       2.413   5.471  18.756  0.00  0.00    +0.000 OA
BRANCH  13  15
ATOM     14  C   UNL     1       3.402   7.341  17.753  0.00  0.00    +0.000 C 
ATOM     15  C   UNL     1       2.677   6.796  18.974  0.00  0.00    +0.000 C 
ENDBRANCH  13  15
ENDBRANCH   1  13
TORSDOF 3
ENDMDL
