MODEL 1
REMARK VINA RESULT:      -8.9      0.000      0.000
REMARK  Name = 
REMARK  6 active torsions:
REMARK  status: ('A' for Active; 'I' for Inactive)
REMARK    1  A    between atoms: N_2  and  C_3
REMARK    2  A    between atoms: C_8  and  C_9
REMARK    3  A    between atoms: C_15  and  C_17
REMARK    4  A    between atoms: C_17  and  C_18
REMARK    5  A    between atoms: C_28  and  C_29
REMARK    6  A    between atoms: C_34  and  C_35
REMARK                            x       y       z     vdW  Elec       q    Type
REMARK                         _______ _______ _______ _____ _____    ______ ____
ROOT
ATOM      1  C   UNL     1      -1.941  12.494  21.748  0.00  0.00    +0.000 C 
ATOM      2  C   UNL     1      -0.966  11.725  22.695  0.00  0.00    +0.000 C 
ATOM      3  N   UNL     1       0.068  10.884  22.081  0.00  0.00    +0.000 NA
ATOM      4  C   UNL     1       0.444   9.731  22.932  0.00  0.00    +0.000 C 
ATOM      5  C   UNL     1       1.644   8.968  22.324  0.00  0.00    +0.000 C 
ATOM      6  N   UNL     1       1.424   8.641  20.906  0.00  0.00    +0.000 N 
ATOM      7  C   UNL     1       1.579   7.340  20.463  0.00  0.00    +0.000 C 
ATOM      8  O   UNL     1       1.887   6.421  21.222  0.00  0.00    +0.000 OA
ATOM      9  C   UNL     1       0.939   9.766  20.096  0.00  0.00    +0.000 C 
ATOM     10  C   UNL     1      -0.315  10.371  20.745  0.00  0.00    +0.000 C 
ATOM     11  C   UNL     1      -0.912  11.477  19.876  0.00  0.00    +0.000 C 
ATOM     12  O   UNL     1      -2.146  11.882  20.461  0.00  0.00    +0.000 OA
ENDROOT
BRANCH   1  18
ATOM     13  C   UNL     1      -5.705  12.966  22.409  0.00  0.00    +0.000 A 
ATOM     14  C   UNL     1      -5.761  12.730  23.780  0.00  0.00    +0.000 A 
ATOM     15  F   UNL     1      -6.935  12.759  24.430  0.00  0.00    +0.000 F 
ATOM     16  C   UNL     1      -4.605  12.469  24.490  0.00  0.00    +0.000 A 
ATOM     17  C   UNL     1      -3.391  12.404  23.809  0.00  0.00    +0.000 A 
ATOM     18  C   UNL     1      -3.312  12.611  22.408  0.00  0.00    +0.000 A 
ATOM     19  C   UNL     1      -4.484  12.949  21.700  0.00  0.00    +0.000 A 
ATOM     20  C   UNL     1      -4.490  13.267  20.225  0.00  0.00    +0.000 C 
BRANCH  13  22
ATOM     21  C   UNL     1      -7.915  13.405  21.194  0.00  0.00    +0.000 C 
ATOM     22  N   UNL     1      -6.901  13.206  21.745  0.00  0.00    +0.000 NA
ENDBRANCH  13  22
ENDBRANCH   1  18
BRANCH   7  23
ATOM     23  C   UNL     1       1.333   7.052  18.984  0.00  0.00    +0.000 C 
BRANCH  23  24
ATOM     24  C   UNL     1       2.547   6.526  18.243  0.00  0.00    +0.000 A 
ATOM     25  C   UNL     1       3.579   7.407  17.889  0.00  0.00    +0.000 A 
ATOM     26  C   UNL     1       4.663   6.968  17.135  0.00  0.00    +0.000 A 
ATOM     27  C   UNL     1       4.672   5.645  16.712  0.00  0.00    +0.000 A 
ATOM     28  N   UNL     1       5.712   5.203  15.861  0.00  0.00    +0.000 N 
ATOM     29  C   UNL     1       5.844   3.973  15.280  0.00  0.00    +0.000 A 
ATOM     30  N   UNL     1       6.922   3.964  14.529  0.00  0.00    +0.000 NA
ATOM     31  N   UNL     1       7.470   5.217  14.652  0.00  0.00    +0.000 NA
ATOM     32  N   UNL     1       6.744   5.980  15.457  0.00  0.00    +0.000 NA
ATOM     33  N   UNL     1       3.705   4.760  17.057  0.00  0.00    +0.000 NA
ATOM     34  C   UNL     1       2.660   5.196  17.814  0.00  0.00    +0.000 A 
ATOM     35  C   UNL     1       1.653   4.143  18.173  0.00  0.00    +0.000 C 
ENDBRANCH  23  24
ENDBRANCH   7  23
TORSDOF 4
ENDMDL
MODEL 2
REMARK VINA RESULT:      -8.2      5.629     10.114
REMARK  Name = 
REMARK  6 active torsions:
REMARK  status: ('A' for Active; 'I' for Inactive)
REMARK    1  A    between atoms: N_2  and  C_3
REMARK    2  A    between atoms: C_8  and  C_9
REMARK    3  A    between atoms: C_15  and  C_17
REMARK    4  A    between atoms: C_17  and  C_18
REMARK    5  A    between atoms: C_28  and  C_29
REMARK    6  A    between atoms: C_34  and  C_35
REMARK                            x       y       z     vdW  Elec       q    Type
REMARK                         _______ _______ _______ _____ _____    ______ ____
ROOT
ATOM      1  C   UNL     1       1.834   7.250  18.623  0.00  0.00    +0.000 C 
ATOM      2  C   UNL     1       1.555   7.709  20.090  0.00  0.00    +0.000 C 
ATOM      3  N   UNL     1       0.885   8.999  20.291  0.00  0.00    +0.000 NA
ATOM      4  C   UNL     1       1.271   9.649  21.566  0.00  0.00    +0.000 C 
ATOM      5  C   UNL     1       0.426  10.919  21.812  0.00  0.00    +0.000 C 
ATOM      6  N   UNL     1       0.423  11.812  20.643  0.00  0.00    +0.000 N 
ATOM      7  C   UNL     1       0.758  13.147  20.789  0.00  0.00    +0.000 C 
ATOM      8  O   UNL     1       1.079  13.627  21.877  0.00  0.00    +0.000 OA
ATOM      9  C   UNL     1       0.154  11.135  19.369  0.00  0.00    +0.000 C 
ATOM     10  C   UNL     1       1.126   9.959  19.189  0.00  0.00    +0.000 C 
ATOM     11  C   UNL     1       0.948   9.293  17.825  0.00  0.00    +0.000 C 
ATOM     12  O   UNL     1       1.975   8.319  17.670  0.00  0.00    +0.000 OA
ENDROOT
BRANCH   1  18
ATOM     13  C   UNL     1       4.504   4.513  19.066  0.00  0.00    +0.000 A 
ATOM     14  C   UNL     1       5.559   5.056  18.338  0.00  0.00    +0.000 A 
ATOM     15  F   UNL     1       6.712   4.383  18.200  0.00  0.00    +0.000 F 
ATOM     16  C   UNL     1       5.433   6.300  17.750  0.00  0.00    +0.000 A 
ATOM     17  C   UNL     1       4.223   6.984  17.864  0.00  0.00    +0.000 A 
ATOM     18  C   UNL     1       3.124   6.439  18.576  0.00  0.00    +0.000 A 
ATOM     19  C   UNL     1       3.283   5.201  19.234  0.00  0.00    +0.000 A 
ATOM     20  C   UNL     1       2.203   4.578  20.083  0.00  0.00    +0.000 C 
BRANCH  13  22
ATOM     21  C   UNL     1       4.830   2.183  20.076  0.00  0.00    +0.000 C 
ATOM     22  N   UNL     1       4.683   3.251  19.620  0.00  0.00    +0.000 NA
ENDBRANCH  13  22
ENDBRANCH   1  18
BRANCH   7  23
ATOM     23  C   UNL     1       0.747  14.029  19.543  0.00  0.00    +0.000 C 
BRANCH  23  24
ATOM     24  C   UNL     1       2.103  14.593  19.170  0.00  0.00    +0.000 A 
ATOM     25  C   UNL     1       3.022  13.788  18.480  0.00  0.00    +0.000 A 
ATOM     26  C   UNL     1       4.305  14.251  18.201  0.00  0.00    +0.000 A 
ATOM     27  C   UNL     1       4.658  15.513  18.658  0.00  0.00    +0.000 A 
ATOM     28  N   UNL     1       5.986  15.964  18.473  0.00  0.00    +0.000 N 
ATOM     29  C   UNL     1       6.538  17.131  18.924  0.00  0.00    +0.000 A 
ATOM     30  N   UNL     1       7.806  17.168  18.582  0.00  0.00    +0.000 NA
ATOM     31  N   UNL     1       8.042  15.998  17.903  0.00  0.00    +0.000 NA
ATOM     32  N   UNL     1       6.945  15.258  17.831  0.00  0.00    +0.000 NA
ATOM     33  N   UNL     1       3.788  16.328  19.304  0.00  0.00    +0.000 NA
ATOM     34  C   UNL     1       2.529  15.872  19.553  0.00  0.00    +0.000 A 
ATOM     35  C   UNL     1       1.625  16.850  20.245  0.00  0.00    +0.000 C 
ENDBRANCH  23  24
ENDBRANCH   7  23
TORSDOF 4
ENDMDL
MODEL 3
REMARK VINA RESULT:      -8.1      1.267      1.665
REMARK  Name = 
REMARK  6 active torsions:
REMARK  status: ('A' for Active; 'I' for Inactive)
REMARK    1  A    between atoms: N_2  and  C_3
REMARK    2  A    between atoms: C_8  and  C_9
REMARK    3  A    between atoms: C_15  and  C_17
REMARK    4  A    between atoms: C_17  and  C_18
REMARK    5  A    between atoms: C_28  and  C_29
REMARK    6  A    between atoms: C_34  and  C_35
REMARK                            x       y       z     vdW  Elec       q    Type
REMARK                         _______ _______ _______ _____ _____    ______ ____
ROOT
ATOM      1  C   UNL     1      -1.541  12.967  21.165  0.00  0.00    +0.000 C 
ATOM      2  C   UNL     1      -0.753  12.120  22.215  0.00  0.00    +0.000 C 
ATOM      3  N   UNL     1       0.210  11.131  21.718  0.00  0.00    +0.000 NA
ATOM      4  C   UNL     1       0.363   9.976  22.633  0.00  0.00    +0.000 C 
ATOM      5  C   UNL     1       1.499   9.043  22.153  0.00  0.00    +0.000 C 
ATOM      6  N   UNL     1       1.354   8.687  20.733  0.00  0.00    +0.000 N 
ATOM      7  C   UNL     1       1.374   7.359  20.345  0.00  0.00    +0.000 C 
ATOM      8  O   UNL     1       1.498   6.441  21.157  0.00  0.00    +0.000 OA
ATOM      9  C   UNL     1       1.086   9.830  19.850  0.00  0.00    +0.000 C 
ATOM     10  C   UNL     1      -0.128  10.615  20.371  0.00  0.00    +0.000 C 
ATOM     11  C   UNL     1      -0.505  11.751  19.420  0.00  0.00    +0.000 C 
ATOM     12  O   UNL     1      -1.719  12.332  19.885  0.00  0.00    +0.000 OA
ENDROOT
BRANCH   1  18
ATOM     13  C   UNL     1      -4.525  14.547  23.015  0.00  0.00    +0.000 A 
ATOM     14  C   UNL     1      -5.572  13.760  22.543  0.00  0.00    +0.000 A 
ATOM     15  F   UNL     1      -6.835  14.006  22.922  0.00  0.00    +0.000 F 
ATOM     16  C   UNL     1      -5.320  12.711  21.679  0.00  0.00    +0.000 A 
ATOM     17  C   UNL     1      -4.012  12.478  21.258  0.00  0.00    +0.000 A 
ATOM     18  C   UNL     1      -2.933  13.284  21.702  0.00  0.00    +0.000 A 
ATOM     19  C   UNL     1      -3.185  14.308  22.639  0.00  0.00    +0.000 A 
ATOM     20  C   UNL     1      -2.094  15.165  23.232  0.00  0.00    +0.000 C 
BRANCH  13  22
ATOM     21  C   UNL     1      -5.105  16.492  24.576  0.00  0.00    +0.000 C 
ATOM     22  N   UNL     1      -4.839  15.599  23.867  0.00  0.00    +0.000 NA
ENDBRANCH  13  22
ENDBRANCH   1  18
BRANCH   7  23
ATOM     23  C   UNL     1       1.213   7.043  18.861  0.00  0.00    +0.000 C 
BRANCH  23  24
ATOM     24  C   UNL     1       2.471   6.521  18.197  0.00  0.00    +0.000 A 
ATOM     25  C   UNL     1       3.493   7.417  17.847  0.00  0.00    +0.000 A 
ATOM     26  C   UNL     1       4.620   6.977  17.159  0.00  0.00    +0.000 A 
ATOM     27  C   UNL     1       4.685   5.638  16.797  0.00  0.00    +0.000 A 
ATOM     28  N   UNL     1       5.772   5.190  16.011  0.00  0.00    +0.000 N 
ATOM     29  C   UNL     1       5.963   3.940  15.492  0.00  0.00    +0.000 A 
ATOM     30  N   UNL     1       7.073   3.930  14.789  0.00  0.00    +0.000 NA
ATOM     31  N   UNL     1       7.580   5.203  14.878  0.00  0.00    +0.000 NA
ATOM     32  N   UNL     1       6.799   5.978  15.617  0.00  0.00    +0.000 NA
ATOM     33  N   UNL     1       3.728   4.740  17.140  0.00  0.00    +0.000 NA
ATOM     34  C   UNL     1       2.640   5.178  17.832  0.00  0.00    +0.000 A 
ATOM     35  C   UNL     1       1.648   4.112  18.196  0.00  0.00    +0.000 C 
ENDBRANCH  23  24
ENDBRANCH   7  23
TORSDOF 4
ENDMDL
MODEL 4
REMARK VINA RESULT:      -8.0      5.740     10.305
REMARK  Name = 
REMARK  6 active torsions:
REMARK  status: ('A' for Active; 'I' for Inactive)
REMARK    1  A    between atoms: N_2  and  C_3
REMARK    2  A    between atoms: C_8  and  C_9
REMARK    3  A    between atoms: C_15  and  C_17
REMARK    4  A    between atoms: C_17  and  C_18
REMARK    5  A    between atoms: C_28  and  C_29
REMARK    6  A    between atoms: C_34  and  C_35
REMARK                            x       y       z     vdW  Elec       q    Type
REMARK                         _______ _______ _______ _____ _____    ______ ____
ROOT
ATOM      1  C   UNL     1       1.796   7.582  18.447  0.00  0.00    +0.000 C 
ATOM      2  C   UNL     1       1.373   7.917  19.913  0.00  0.00    +0.000 C 
ATOM      3  N   UNL     1       0.743   9.218  20.166  0.00  0.00    +0.000 NA
ATOM      4  C   UNL     1       1.010   9.724  21.533  0.00  0.00    +0.000 C 
ATOM      5  C   UNL     1       0.200  11.010  21.811  0.00  0.00    +0.000 C 
ATOM      6  N   UNL     1       0.370  12.007  20.742  0.00  0.00    +0.000 N 
ATOM      7  C   UNL     1       0.745  13.302  21.054  0.00  0.00    +0.000 C 
ATOM      8  O   UNL     1       0.961  13.660  22.212  0.00  0.00    +0.000 OA
ATOM      9  C   UNL     1       0.217  11.467  19.385  0.00  0.00    +0.000 C 
ATOM     10  C   UNL     1       1.150  10.262  19.197  0.00  0.00    +0.000 C 
ATOM     11  C   UNL     1       1.099   9.736  17.763  0.00  0.00    +0.000 C 
ATOM     12  O   UNL     1       2.093   8.726  17.625  0.00  0.00    +0.000 OA
ENDROOT
BRANCH   1  18
ATOM     13  C   UNL     1       4.302   4.713  19.003  0.00  0.00    +0.000 A 
ATOM     14  C   UNL     1       5.421   5.209  18.339  0.00  0.00    +0.000 A 
ATOM     15  F   UNL     1       6.545   4.482  18.257  0.00  0.00    +0.000 F 
ATOM     16  C   UNL     1       5.387   6.464  17.761  0.00  0.00    +0.000 A 
ATOM     17  C   UNL     1       4.208   7.205  17.817  0.00  0.00    +0.000 A 
ATOM     18  C   UNL     1       3.047   6.708  18.461  0.00  0.00    +0.000 A 
ATOM     19  C   UNL     1       3.108   5.458  19.112  0.00  0.00    +0.000 A 
ATOM     20  C   UNL     1       1.954   4.882  19.894  0.00  0.00    +0.000 C 
BRANCH  13  22
ATOM     21  C   UNL     1       4.455   2.369  20.022  0.00  0.00    +0.000 C 
ATOM     22  N   UNL     1       4.388   3.439  19.551  0.00  0.00    +0.000 NA
ENDBRANCH  13  22
ENDBRANCH   1  18
BRANCH   7  23
ATOM     23  C   UNL     1       0.915  14.296  19.908  0.00  0.00    +0.000 C 
BRANCH  23  24
ATOM     24  C   UNL     1       2.269  14.973  19.870  0.00  0.00    +0.000 A 
ATOM     25  C   UNL     1       2.499  16.110  20.659  0.00  0.00    +0.000 A 
ATOM     26  C   UNL     1       3.704  16.802  20.578  0.00  0.00    +0.000 A 
ATOM     27  C   UNL     1       4.653  16.357  19.668  0.00  0.00    +0.000 A 
ATOM     28  N   UNL     1       5.843  17.102  19.496  0.00  0.00    +0.000 N 
ATOM     29  C   UNL     1       6.846  16.871  18.597  0.00  0.00    +0.000 A 
ATOM     30  N   UNL     1       7.762  17.805  18.723  0.00  0.00    +0.000 NA
ATOM     31  N   UNL     1       7.315  18.631  19.725  0.00  0.00    +0.000 NA
ATOM     32  N   UNL     1       6.150  18.215  20.203  0.00  0.00    +0.000 NA
ATOM     33  N   UNL     1       4.475  15.249  18.907  0.00  0.00    +0.000 NA
ATOM     34  C   UNL     1       3.301  14.568  19.011  0.00  0.00    +0.000 A 
ATOM     35  C   UNL     1       3.202  13.338  18.157  0.00  0.00    +0.000 C 
ENDBRANCH  23  24
ENDBRANCH   7  23
TORSDOF 4
ENDMDL
MODEL 5
REMARK VINA RESULT:      -8.0      5.117     10.563
REMARK  Name = 
REMARK  6 active torsions:
REMARK  status: ('A' for Active; 'I' for Inactive)
REMARK    1  A    between atoms: N_2  and  C_3
REMARK    2  A    between atoms: C_8  and  C_9
REMARK    3  A    between atoms: C_15  and  C_17
REMARK    4  A    between atoms: C_17  and  C_18
REMARK    5  A    between atoms: C_28  and  C_29
REMARK    6  A    between atoms: C_34  and  C_35
REMARK                            x       y       z     vdW  Elec       q    Type
REMARK                         _______ _______ _______ _____ _____    ______ ____
ROOT
ATOM      1  C   UNL     1      -1.925  12.262  23.397  0.00  0.00    +0.000 C 
ATOM      2  C   UNL     1      -1.590  13.681  22.835  0.00  0.00    +0.000 C 
ATOM      3  N   UNL     1      -2.643  14.701  22.873  0.00  0.00    +0.000 NA
ATOM      4  C   UNL     1      -2.518  15.689  21.775  0.00  0.00    +0.000 C 
ATOM      5  C   UNL     1      -3.545  16.833  21.947  0.00  0.00    +0.000 C 
ATOM      6  N   UNL     1      -4.907  16.319  22.159  0.00  0.00    +0.000 N 
ATOM      7  C   UNL     1      -5.949  16.769  21.368  0.00  0.00    +0.000 C 
ATOM      8  O   UNL     1      -5.779  17.588  20.464  0.00  0.00    +0.000 OA
ATOM      9  C   UNL     1      -4.999  15.257  23.169  0.00  0.00    +0.000 C 
ATOM     10  C   UNL     1      -4.010  14.131  22.831  0.00  0.00    +0.000 C 
ATOM     11  C   UNL     1      -4.150  12.957  23.799  0.00  0.00    +0.000 C 
ATOM     12  O   UNL     1      -3.317  11.899  23.336  0.00  0.00    +0.000 OA
ENDROOT
BRANCH   1  18
ATOM     13  C   UNL     1      -0.308  10.179  20.592  0.00  0.00    +0.000 A 
ATOM     14  C   UNL     1       0.359   9.210  21.336  0.00  0.00    +0.000 A 
ATOM     15  F   UNL     1       1.104   8.275  20.728  0.00  0.00    +0.000 F 
ATOM     16  C   UNL     1       0.255   9.197  22.714  0.00  0.00    +0.000 A 
ATOM     17  C   UNL     1      -0.491  10.189  23.348  0.00  0.00    +0.000 A 
ATOM     18  C   UNL     1      -1.155  11.204  22.613  0.00  0.00    +0.000 A 
ATOM     19  C   UNL     1      -1.106  11.171  21.203  0.00  0.00    +0.000 A 
ATOM     20  C   UNL     1      -1.845  12.156  20.332  0.00  0.00    +0.000 C 
BRANCH  13  22
ATOM     21  C   UNL     1      -0.035  10.128  18.046  0.00  0.00    +0.000 C 
ATOM     22  N   UNL     1      -0.154  10.154  19.211  0.00  0.00    +0.000 NA
ENDBRANCH  13  22
ENDBRANCH   1  18
BRANCH   7  23
ATOM     23  C   UNL     1      -7.342  16.200  21.625  0.00  0.00    +0.000 C 
BRANCH  23  24
ATOM     24  C   UNL     1      -7.473  14.720  21.326  0.00  0.00    +0.000 A 
ATOM     25  C   UNL     1      -7.871  13.839  22.343  0.00  0.00    +0.000 A 
ATOM     26  C   UNL     1      -7.915  12.466  22.119  0.00  0.00    +0.000 A 
ATOM     27  C   UNL     1      -7.518  11.993  20.875  0.00  0.00    +0.000 A 
ATOM     28  N   UNL     1      -7.460  10.597  20.658  0.00  0.00    +0.000 N 
ATOM     29  C   UNL     1      -7.018   9.948  19.539  0.00  0.00    +0.000 A 
ATOM     30  N   UNL     1      -7.085   8.651  19.738  0.00  0.00    +0.000 NA
ATOM     31  N   UNL     1      -7.582   8.496  21.008  0.00  0.00    +0.000 NA
ATOM     32  N   UNL     1      -7.813   9.670  21.578  0.00  0.00    +0.000 NA
ATOM     33  N   UNL     1      -7.152  12.817  19.862  0.00  0.00    +0.000 NA
ATOM     34  C   UNL     1      -7.133  14.160  20.087  0.00  0.00    +0.000 A 
ATOM     35  C   UNL     1      -6.746  14.996  18.902  0.00  0.00    +0.000 C 
ENDBRANCH  23  24
ENDBRANCH   7  23
TORSDOF 4
ENDMDL
MODEL 6
REMARK VINA RESULT:      -7.7      1.027      1.193
REMARK  Name = 
REMARK  6 active torsions:
REMARK  status: ('A' for Active; 'I' for Inactive)
REMARK    1  A    between atoms: N_2  and  C_3
REMARK    2  A    between atoms: C_8  and  C_9
REMARK    3  A    between atoms: C_15  and  C_17
REMARK    4  A    between atoms: C_17  and  C_18
REMARK    5  A    between atoms: C_28  and  C_29
REMARK    6  A    between atoms: C_34  and  C_35
REMARK                            x       y       z     vdW  Elec       q    Type
REMARK                         _______ _______ _______ _____ _____    ______ ____
ROOT
ATOM      1  C   UNL     1      -1.419  12.099  20.383  0.00  0.00    +0.000 C 
ATOM      2  C   UNL     1      -0.487  11.515  21.493  0.00  0.00    +0.000 C 
ATOM      3  N   UNL     1       0.488  10.491  21.101  0.00  0.00    +0.000 NA
ATOM      4  C   UNL     1       0.798   9.548  22.201  0.00  0.00    +0.000 C 
ATOM      5  C   UNL     1       1.944   8.591  21.798  0.00  0.00    +0.000 C 
ATOM      6  N   UNL     1       1.694   7.955  20.495  0.00  0.00    +0.000 N 
ATOM      7  C   UNL     1       1.765   6.579  20.370  0.00  0.00    +0.000 C 
ATOM      8  O   UNL     1       2.020   5.847  21.327  0.00  0.00    +0.000 OA
ATOM      9  C   UNL     1       1.275   8.887  19.440  0.00  0.00    +0.000 C 
ATOM     10  C   UNL     1       0.065   9.704  19.919  0.00  0.00    +0.000 C 
ATOM     11  C   UNL     1      -0.469  10.610  18.811  0.00  0.00    +0.000 C 
ATOM     12  O   UNL     1      -1.671  11.217  19.275  0.00  0.00    +0.000 OA
ENDROOT
BRANCH   1  18
ATOM     13  C   UNL     1      -5.177  12.738  20.929  0.00  0.00    +0.000 A 
ATOM     14  C   UNL     1      -5.191  13.080  22.278  0.00  0.00    +0.000 A 
ATOM     15  F   UNL     1      -6.348  13.352  22.902  0.00  0.00    +0.000 F 
ATOM     16  C   UNL     1      -4.010  13.149  22.992  0.00  0.00    +0.000 A 
ATOM     17  C   UNL     1      -2.812  12.833  22.353  0.00  0.00    +0.000 A 
ATOM     18  C   UNL     1      -2.775  12.453  20.987  0.00  0.00    +0.000 A 
ATOM     19  C   UNL     1      -3.975  12.454  20.245  0.00  0.00    +0.000 A 
ATOM     20  C   UNL     1      -4.028  12.144  18.769  0.00  0.00    +0.000 C 
BRANCH  13  22
ATOM     21  C   UNL     1      -7.420  12.599  19.703  0.00  0.00    +0.000 C 
ATOM     22  N   UNL     1      -6.396  12.668  20.267  0.00  0.00    +0.000 NA
ENDBRANCH  13  22
ENDBRANCH   1  18
BRANCH   7  23
ATOM     23  C   UNL     1       1.492   5.968  18.998  0.00  0.00    +0.000 C 
BRANCH  23  24
ATOM     24  C   UNL     1       2.740   5.663  18.194  0.00  0.00    +0.000 A 
ATOM     25  C   UNL     1       3.721   6.652  18.036  0.00  0.00    +0.000 A 
ATOM     26  C   UNL     1       4.835   6.427  17.232  0.00  0.00    +0.000 A 
ATOM     27  C   UNL     1       4.925   5.213  16.564  0.00  0.00    +0.000 A 
ATOM     28  N   UNL     1       5.996   5.002  15.664  0.00  0.00    +0.000 N 
ATOM     29  C   UNL     1       6.204   3.916  14.860  0.00  0.00    +0.000 A 
ATOM     30  N   UNL     1       7.287   4.112  14.144  0.00  0.00    +0.000 NA
ATOM     31  N   UNL     1       7.760   5.346  14.515  0.00  0.00    +0.000 NA
ATOM     32  N   UNL     1       6.984   5.898  15.437  0.00  0.00    +0.000 NA
ATOM     33  N   UNL     1       4.008   4.226  16.714  0.00  0.00    +0.000 NA
ATOM     34  C   UNL     1       2.934   4.450  17.520  0.00  0.00    +0.000 A 
ATOM     35  C   UNL     1       1.987   3.293  17.651  0.00  0.00    +0.000 C 
ENDBRANCH  23  24
ENDBRANCH   7  23
TORSDOF 4
ENDMDL
MODEL 7
REMARK VINA RESULT:      -7.6      4.013     11.244
REMARK  Name = 
REMARK  6 active torsions:
REMARK  status: ('A' for Active; 'I' for Inactive)
REMARK    1  A    between atoms: N_2  and  C_3
REMARK    2  A    between atoms: C_8  and  C_9
REMARK    3  A    between atoms: C_15  and  C_17
REMARK    4  A    between atoms: C_17  and  C_18
REMARK    5  A    between atoms: C_28  and  C_29
REMARK    6  A    between atoms: C_34  and  C_35
REMARK                            x       y       z     vdW  Elec       q    Type
REMARK                         _______ _______ _______ _____ _____    ______ ____
ROOT
ATOM      1  C   UNL     1       2.139   7.503  20.335  0.00  0.00    +0.000 C 
ATOM      2  C   UNL     1       1.757   8.497  19.192  0.00  0.00    +0.000 C 
ATOM      3  N   UNL     1       1.086   9.747  19.565  0.00  0.00    +0.000 NA
ATOM      4  C   UNL     1       0.186  10.250  18.501  0.00  0.00    +0.000 C 
ATOM      5  C   UNL     1      -0.373  11.644  18.868  0.00  0.00    +0.000 C 
ATOM      6  N   UNL     1      -0.950  11.665  20.221  0.00  0.00    +0.000 N 
ATOM      7  C   UNL     1      -2.235  12.136  20.420  0.00  0.00    +0.000 C 
ATOM      8  O   UNL     1      -2.938  12.535  19.491  0.00  0.00    +0.000 OA
ATOM      9  C   UNL     1      -0.095  11.058  21.249  0.00  0.00    +0.000 C 
ATOM     10  C   UNL     1       0.306   9.638  20.820  0.00  0.00    +0.000 C 
ATOM     11  C   UNL     1       1.108   8.932  21.912  0.00  0.00    +0.000 C 
ATOM     12  O   UNL     1       1.311   7.581  21.509  0.00  0.00    +0.000 OA
ENDROOT
BRANCH   1  18
ATOM     13  C   UNL     1       2.711   4.211  18.421  0.00  0.00    +0.000 A 
ATOM     14  C   UNL     1       1.775   3.385  19.036  0.00  0.00    +0.000 A 
ATOM     15  F   UNL     1       1.664   2.095  18.681  0.00  0.00    +0.000 F 
ATOM     16  C   UNL     1       0.941   3.886  20.018  0.00  0.00    +0.000 A 
ATOM     17  C   UNL     1       1.080   5.216  20.410  0.00  0.00    +0.000 A 
ATOM     18  C   UNL     1       2.046   6.070  19.820  0.00  0.00    +0.000 A 
ATOM     19  C   UNL     1       2.845   5.573  18.768  0.00  0.00    +0.000 A 
ATOM     20  C   UNL     1       3.842   6.424  18.022  0.00  0.00    +0.000 C 
BRANCH  13  22
ATOM     21  C   UNL     1       4.227   3.184  16.631  0.00  0.00    +0.000 C 
ATOM     22  N   UNL     1       3.533   3.648  17.452  0.00  0.00    +0.000 NA
ENDBRANCH  13  22
ENDBRANCH   1  18
BRANCH   7  23
ATOM     23  C   UNL     1      -2.789  12.131  21.843  0.00  0.00    +0.000 C 
BRANCH  23  24
ATOM     24  C   UNL     1      -2.297  13.276  22.705  0.00  0.00    +0.000 A 
ATOM     25  C   UNL     1      -1.173  14.012  22.303  0.00  0.00    +0.000 A 
ATOM     26  C   UNL     1      -0.649  15.012  23.118  0.00  0.00    +0.000 A 
ATOM     27  C   UNL     1      -1.247  15.230  24.352  0.00  0.00    +0.000 A 
ATOM     28  N   UNL     1      -0.671  16.171  25.238  0.00  0.00    +0.000 N 
ATOM     29  C   UNL     1      -1.064  16.458  26.515  0.00  0.00    +0.000 A 
ATOM     30  N   UNL     1      -0.254  17.360  27.022  0.00  0.00    +0.000 NA
ATOM     31  N   UNL     1       0.658  17.638  26.034  0.00  0.00    +0.000 NA
ATOM     32  N   UNL     1       0.417  16.921  24.946  0.00  0.00    +0.000 NA
ATOM     33  N   UNL     1      -2.349  14.555  24.761  0.00  0.00    +0.000 NA
ATOM     34  C   UNL     1      -2.866  13.594  23.946  0.00  0.00    +0.000 A 
ATOM     35  C   UNL     1      -4.102  12.919  24.465  0.00  0.00    +0.000 C 
ENDBRANCH  23  24
ENDBRANCH   7  23
TORSDOF 4
ENDMDL
MODEL 8
REMARK VINA RESULT:      -7.5      3.435     12.090
REMARK  Name = 
REMARK  6 active torsions:
REMARK  status: ('A' for Active; 'I' for Inactive)
REMARK    1  A    between atoms: N_2  and  C_3
REMARK    2  A    between atoms: C_8  and  C_9
REMARK    3  A    between atoms: C_15  and  C_17
REMARK    4  A    between atoms: C_17  and  C_18
REMARK    5  A    between atoms: C_28  and  C_29
REMARK    6  A    between atoms: C_34  and  C_35
REMARK                            x       y       z     vdW  Elec       q    Type
REMARK                         _______ _______ _______ _____ _____    ______ ____
ROOT
ATOM      1  C   UNL     1       2.239   7.688  20.289  0.00  0.00    +0.000 C 
ATOM      2  C   UNL     1       1.654   8.600  19.162  0.00  0.00    +0.000 C 
ATOM      3  N   UNL     1       1.000   9.850  19.562  0.00  0.00    +0.000 NA
ATOM      4  C   UNL     1      -0.067  10.261  18.618  0.00  0.00    +0.000 C 
ATOM      5  C   UNL     1      -0.616  11.659  18.986  0.00  0.00    +0.000 C 
ATOM      6  N   UNL     1      -0.986  11.746  20.408  0.00  0.00    +0.000 N 
ATOM      7  C   UNL     1      -2.244  12.192  20.771  0.00  0.00    +0.000 C 
ATOM      8  O   UNL     1      -3.092  12.513  19.937  0.00  0.00    +0.000 OA
ATOM      9  C   UNL     1       0.034  11.227  21.328  0.00  0.00    +0.000 C 
ATOM     10  C   UNL     1       0.419   9.796  20.924  0.00  0.00    +0.000 C 
ATOM     11  C   UNL     1       1.401   9.181  21.921  0.00  0.00    +0.000 C 
ATOM     12  O   UNL     1       1.592   7.815  21.568  0.00  0.00    +0.000 OA
ENDROOT
BRANCH   1  18
ATOM     13  C   UNL     1       2.732   4.273  18.580  0.00  0.00    +0.000 A 
ATOM     14  C   UNL     1       1.818   3.494  19.284  0.00  0.00    +0.000 A 
ATOM     15  F   UNL     1       1.692   2.184  19.021  0.00  0.00    +0.000 F 
ATOM     16  C   UNL     1       1.023   4.064  20.260  0.00  0.00    +0.000 A 
ATOM     17  C   UNL     1       1.178   5.417  20.557  0.00  0.00    +0.000 A 
ATOM     18  C   UNL     1       2.123   6.224  19.875  0.00  0.00    +0.000 A 
ATOM     19  C   UNL     1       2.881   5.655  18.830  0.00  0.00    +0.000 A 
ATOM     20  C   UNL     1       3.851   6.450  17.992  0.00  0.00    +0.000 C 
BRANCH  13  22
ATOM     21  C   UNL     1       4.186   3.114  16.820  0.00  0.00    +0.000 C 
ATOM     22  N   UNL     1       3.516   3.643  17.621  0.00  0.00    +0.000 NA
ENDBRANCH  13  22
ENDBRANCH   1  18
BRANCH   7  23
ATOM     23  C   UNL     1      -2.580  12.258  22.258  0.00  0.00    +0.000 C 
BRANCH  23  24
ATOM     24  C   UNL     1      -3.511  13.393  22.635  0.00  0.00    +0.000 A 
ATOM     25  C   UNL     1      -4.899  13.190  22.606  0.00  0.00    +0.000 A 
ATOM     26  C   UNL     1      -5.777  14.239  22.864  0.00  0.00    +0.000 A 
ATOM     27  C   UNL     1      -5.241  15.495  23.110  0.00  0.00    +0.000 A 
ATOM     28  N   UNL     1      -6.114  16.595  23.275  0.00  0.00    +0.000 N 
ATOM     29  C   UNL     1      -5.775  17.909  23.440  0.00  0.00    +0.000 A 
ATOM     30  N   UNL     1      -6.870  18.630  23.520  0.00  0.00    +0.000 NA
ATOM     31  N   UNL     1      -7.910  17.741  23.405  0.00  0.00    +0.000 NA
ATOM     32  N   UNL     1      -7.464  16.502  23.254  0.00  0.00    +0.000 NA
ATOM     33  N   UNL     1      -3.905  15.722  23.170  0.00  0.00    +0.000 NA
ATOM     34  C   UNL     1      -3.056  14.683  22.938  0.00  0.00    +0.000 A 
ATOM     35  C   UNL     1      -1.598  15.018  23.055  0.00  0.00    +0.000 C 
ENDBRANCH  23  24
ENDBRANCH   7  23
TORSDOF 4
ENDMDL
MODEL 9
REMARK VINA RESULT:      -7.5      3.721     11.906
REMARK  Name = 
REMARK  6 active torsions:
REMARK  status: ('A' for Active; 'I' for Inactive)
REMARK    1  A    between atoms: N_2  and  C_3
REMARK    2  A    between atoms: C_8  and  C_9
REMARK    3  A    between atoms: C_15  and  C_17
REMARK    4  A    between atoms: C_17  and  C_18
REMARK    5  A    between atoms: C_28  and  C_29
REMARK    6  A    between atoms: C_34  and  C_35
REMARK                            x       y       z     vdW  Elec       q    Type
REMARK                         _______ _______ _______ _____ _____    ______ ____
ROOT
ATOM      1  C   UNL     1       2.543   7.385  19.688  0.00  0.00    +0.000 C 
ATOM      2  C   UNL     1       2.215   8.504  18.647  0.00  0.00    +0.000 C 
ATOM      3  N   UNL     1       1.494   9.691  19.119  0.00  0.00    +0.000 NA
ATOM      4  C   UNL     1       0.655  10.305  18.064  0.00  0.00    +0.000 C 
ATOM      5  C   UNL     1       0.044  11.638  18.554  0.00  0.00    +0.000 C 
ATOM      6  N   UNL     1      -0.620  11.489  19.859  0.00  0.00    +0.000 N 
ATOM      7  C   UNL     1      -1.926  11.916  20.024  0.00  0.00    +0.000 C 
ATOM      8  O   UNL     1      -2.575  12.413  19.104  0.00  0.00    +0.000 OA
ATOM      9  C   UNL     1       0.178  10.775  20.863  0.00  0.00    +0.000 C 
ATOM     10  C   UNL     1       0.636   9.423  20.297  0.00  0.00    +0.000 C 
ATOM     11  C   UNL     1       1.380   8.602  21.350  0.00  0.00    +0.000 C 
ATOM     12  O   UNL     1       1.638   7.312  20.805  0.00  0.00    +0.000 OA
ENDROOT
BRANCH   1  18
ATOM     13  C   UNL     1       3.373   4.310  17.525  0.00  0.00    +0.000 A 
ATOM     14  C   UNL     1       2.335   3.453  17.878  0.00  0.00    +0.000 A 
ATOM     15  F   UNL     1       2.265   2.216  17.363  0.00  0.00    +0.000 F 
ATOM     16  C   UNL     1       1.357   3.870  18.761  0.00  0.00    +0.000 A 
ATOM     17  C   UNL     1       1.449   5.143  19.323  0.00  0.00    +0.000 A 
ATOM     18  C   UNL     1       2.514   6.023  19.002  0.00  0.00    +0.000 A 
ATOM     19  C   UNL     1       3.469   5.619  18.045  0.00  0.00    +0.000 A 
ATOM     20  C   UNL     1       4.591   6.513  17.576  0.00  0.00    +0.000 C 
BRANCH  13  22
ATOM     21  C   UNL     1       5.142   3.418  15.902  0.00  0.00    +0.000 C 
ATOM     22  N   UNL     1       4.337   3.830  16.646  0.00  0.00    +0.000 NA
ENDBRANCH  13  22
ENDBRANCH   1  18
BRANCH   7  23
ATOM     23  C   UNL     1      -2.571  11.733  21.396  0.00  0.00    +0.000 C 
BRANCH  23  24
ATOM     24  C   UNL     1      -2.949  13.031  22.082  0.00  0.00    +0.000 A 
ATOM     25  C   UNL     1      -1.949  13.824  22.663  0.00  0.00    +0.000 A 
ATOM     26  C   UNL     1      -2.277  14.976  23.373  0.00  0.00    +0.000 A 
ATOM     27  C   UNL     1      -3.620  15.292  23.522  0.00  0.00    +0.000 A 
ATOM     28  N   UNL     1      -3.980  16.400  24.324  0.00  0.00    +0.000 N 
ATOM     29  C   UNL     1      -5.241  16.813  24.653  0.00  0.00    +0.000 A 
ATOM     30  N   UNL     1      -5.160  17.857  25.446  0.00  0.00    +0.000 NA
ATOM     31  N   UNL     1      -3.817  18.097  25.607  0.00  0.00    +0.000 NA
ATOM     32  N   UNL     1      -3.090  17.218  24.932  0.00  0.00    +0.000 NA
ATOM     33  N   UNL     1      -4.611  14.562  22.954  0.00  0.00    +0.000 NA
ATOM     34  C   UNL     1      -4.277  13.450  22.242  0.00  0.00    +0.000 A 
ATOM     35  C   UNL     1      -5.434  12.721  21.624  0.00  0.00    +0.000 C 
ENDBRANCH  23  24
ENDBRANCH   7  23
TORSDOF 4
ENDMDL
