MODEL 1
REMARK VINA RESULT:      -8.2      0.000      0.000
REMARK  Name = 
REMARK  9 active torsions:
REMARK  status: ('A' for Active; 'I' for Inactive)
REMARK    1  A    between atoms: C_1  and  C_2
REMARK    2  A    between atoms: C_2  and  O_3
REMARK    3  A    between atoms: O_3  and  C_4
REMARK    4  A    between atoms: C_7  and  C_8
REMARK    5  A    between atoms: C_14  and  C_16
REMARK    6  A    between atoms: C_21  and  C_22
REMARK    7  A    between atoms: C_24  and  O_25
REMARK    8  A    between atoms: O_25  and  C_26
REMARK    9  A    between atoms: C_26  and  C_27
REMARK                            x       y       z     vdW  Elec       q    Type
REMARK                         _______ _______ _______ _____ _____    ______ ____
ROOT
ATOM      1  C   UNL     1       4.460   4.009  18.884  0.00  0.00    +0.000 A 
ATOM      2  N   UNL     1       4.620   2.831  19.504  0.00  0.00    +0.000 NA
ATOM      3  O   UNL     1       3.697   2.820  20.530  0.00  0.00    +0.000 OA
ATOM      4  N   UNL     1       2.976   3.990  20.557  0.00  0.00    +0.000 NA
ATOM      5  C   UNL     1       3.444   4.746  19.564  0.00  0.00    +0.000 A 
ATOM      6  N   UNL     1       2.999   6.041  19.287  0.00  0.00    +0.000 N 
ATOM      7  C   UNL     1       1.999   6.660  20.020  0.00  0.00    +0.000 C 
ATOM      8  O   UNL     1       1.404   6.161  20.970  0.00  0.00    +0.000 OA
ATOM      9  H   UNL     1       3.505   6.557  18.586  0.00  0.00    +0.000 HD
ENDROOT
BRANCH   7  10
ATOM     10  C   UNL     1       1.655   8.074  19.674  0.00  0.00    +0.000 A 
ATOM     11  C   UNL     1       1.999   8.455  18.360  0.00  0.00    +0.000 A 
ATOM     12  C   UNL     1       1.798   9.756  17.904  0.00  0.00    +0.000 A 
ATOM     13  C   UNL     1       1.234  10.698  18.751  0.00  0.00    +0.000 A 
ATOM     14  C   UNL     1       0.894  10.342  20.058  0.00  0.00    +0.000 A 
ATOM     15  C   UNL     1       1.119   9.039  20.551  0.00  0.00    +0.000 A 
ATOM     16  C   UNL     1       0.825   8.792  22.003  0.00  0.00    +0.000 C 
ENDBRANCH   7  10
BRANCH   1  20
ATOM     17  C   UNL     1       6.485   5.117  15.292  0.00  0.00    +0.000 A 
ATOM     18  C   UNL     1       5.586   4.042  15.308  0.00  0.00    +0.000 A 
ATOM     19  C   UNL     1       4.958   3.652  16.495  0.00  0.00    +0.000 A 
ATOM     20  C   UNL     1       5.254   4.306  17.698  0.00  0.00    +0.000 A 
ATOM     21  C   UNL     1       6.226   5.308  17.695  0.00  0.00    +0.000 A 
ATOM     22  C   UNL     1       6.869   5.704  16.506  0.00  0.00    +0.000 A 
BRANCH  17  23
ATOM     23  O   UNL     1       6.944   5.632  14.104  0.00  0.00    +0.000 OA
BRANCH  23  25
ATOM     24  C   UNL     1       7.428   4.977  11.830  0.00  0.00    +0.000 C 
ATOM     25  C   UNL     1       7.709   4.724  13.299  0.00  0.00    +0.000 C 
ENDBRANCH  23  25
ENDBRANCH  17  23
BRANCH  22  26
ATOM     26  O   UNL     1       7.788   6.704  16.718  0.00  0.00    +0.000 OA
BRANCH  26  27
ATOM     27  C   UNL     1       7.800   7.322  18.002  0.00  0.00    +0.000 C 
ATOM     28  C   UNL     1       8.028   8.819  17.836  0.00  0.00    +0.000 C 
ENDBRANCH  26  27
ENDBRANCH  22  26
ENDBRANCH   1  20
TORSDOF 6
ENDMDL
MODEL 2
REMARK VINA RESULT:      -8.2      0.615      1.445
REMARK  Name = 
REMARK  9 active torsions:
REMARK  status: ('A' for Active; 'I' for Inactive)
REMARK    1  A    between atoms: C_1  and  C_2
REMARK    2  A    between atoms: C_2  and  O_3
REMARK    3  A    between atoms: O_3  and  C_4
REMARK    4  A    between atoms: C_7  and  C_8
REMARK    5  A    between atoms: C_14  and  C_16
REMARK    6  A    between atoms: C_21  and  C_22
REMARK    7  A    between atoms: C_24  and  O_25
REMARK    8  A    between atoms: O_25  and  C_26
REMARK    9  A    between atoms: C_26  and  C_27
REMARK                            x       y       z     vdW  Elec       q    Type
REMARK                         _______ _______ _______ _____ _____    ______ ____
ROOT
ATOM      1  C   UNL     1       4.453   3.936  19.240  0.00  0.00    +0.000 A 
ATOM      2  N   UNL     1       4.511   2.734  19.832  0.00  0.00    +0.000 NA
ATOM      3  O   UNL     1       3.478   2.718  20.746  0.00  0.00    +0.000 OA
ATOM      4  N   UNL     1       2.788   3.907  20.733  0.00  0.00    +0.000 NA
ATOM      5  C   UNL     1       3.386   4.680  19.826  0.00  0.00    +0.000 A 
ATOM      6  N   UNL     1       3.008   5.996  19.546  0.00  0.00    +0.000 N 
ATOM      7  C   UNL     1       1.947   6.620  20.183  0.00  0.00    +0.000 C 
ATOM      8  O   UNL     1       1.235   6.109  21.041  0.00  0.00    +0.000 OA
ATOM      9  H   UNL     1       3.603   6.519  18.924  0.00  0.00    +0.000 HD
ENDROOT
BRANCH   7  10
ATOM     10  C   UNL     1       1.681   8.054  19.850  0.00  0.00    +0.000 A 
ATOM     11  C   UNL     1       1.020   8.777  20.865  0.00  0.00    +0.000 A 
ATOM     12  C   UNL     1       0.648  10.108  20.686  0.00  0.00    +0.000 A 
ATOM     13  C   UNL     1       0.944  10.745  19.489  0.00  0.00    +0.000 A 
ATOM     14  C   UNL     1       1.590  10.043  18.469  0.00  0.00    +0.000 A 
ATOM     15  C   UNL     1       1.947   8.686  18.618  0.00  0.00    +0.000 A 
ATOM     16  C   UNL     1       2.533   7.994  17.421  0.00  0.00    +0.000 C 
ENDBRANCH   7  10
BRANCH   1  20
ATOM     17  C   UNL     1       6.891   5.076  15.923  0.00  0.00    +0.000 A 
ATOM     18  C   UNL     1       6.030   3.972  15.838  0.00  0.00    +0.000 A 
ATOM     19  C   UNL     1       5.266   3.573  16.939  0.00  0.00    +0.000 A 
ATOM     20  C   UNL     1       5.384   4.248  18.161  0.00  0.00    +0.000 A 
ATOM     21  C   UNL     1       6.317   5.280  18.271  0.00  0.00    +0.000 A 
ATOM     22  C   UNL     1       7.097   5.686  17.170  0.00  0.00    +0.000 A 
BRANCH  17  23
ATOM     23  O   UNL     1       7.483   5.594  14.798  0.00  0.00    +0.000 OA
BRANCH  23  25
ATOM     24  C   UNL     1       7.984   5.509  12.437  0.00  0.00    +0.000 C 
ATOM     25  C   UNL     1       7.206   4.887  13.581  0.00  0.00    +0.000 C 
ENDBRANCH  23  25
ENDBRANCH  17  23
BRANCH  22  26
ATOM     26  O   UNL     1       7.950   6.716  17.485  0.00  0.00    +0.000 OA
BRANCH  26  27
ATOM     27  C   UNL     1       7.412   8.036  17.482  0.00  0.00    +0.000 C 
ATOM     28  C   UNL     1       8.395   8.979  18.164  0.00  0.00    +0.000 C 
ENDBRANCH  26  27
ENDBRANCH  22  26
ENDBRANCH   1  20
TORSDOF 6
ENDMDL
MODEL 3
REMARK VINA RESULT:      -8.1      1.068      1.746
REMARK  Name = 
REMARK  9 active torsions:
REMARK  status: ('A' for Active; 'I' for Inactive)
REMARK    1  A    between atoms: C_1  and  C_2
REMARK    2  A    between atoms: C_2  and  O_3
REMARK    3  A    between atoms: O_3  and  C_4
REMARK    4  A    between atoms: C_7  and  C_8
REMARK    5  A    between atoms: C_14  and  C_16
REMARK    6  A    between atoms: C_21  and  C_22
REMARK    7  A    between atoms: C_24  and  O_25
REMARK    8  A    between atoms: O_25  and  C_26
REMARK    9  A    between atoms: C_26  and  C_27
REMARK                            x       y       z     vdW  Elec       q    Type
REMARK                         _______ _______ _______ _____ _____    ______ ____
ROOT
ATOM      1  C   UNL     1       3.531   4.627  19.491  0.00  0.00    +0.000 A 
ATOM      2  N   UNL     1       3.537   3.455  20.143  0.00  0.00    +0.000 NA
ATOM      3  O   UNL     1       2.628   3.597  21.172  0.00  0.00    +0.000 OA
ATOM      4  N   UNL     1       2.069   4.853  21.168  0.00  0.00    +0.000 NA
ATOM      5  C   UNL     1       2.628   5.511  20.152  0.00  0.00    +0.000 A 
ATOM      6  N   UNL     1       2.357   6.846  19.839  0.00  0.00    +0.000 N 
ATOM      7  C   UNL     1       1.454   7.613  20.557  0.00  0.00    +0.000 C 
ATOM      8  O   UNL     1       0.804   7.225  21.523  0.00  0.00    +0.000 OA
ATOM      9  H   UNL     1       2.922   7.270  19.122  0.00  0.00    +0.000 HD
ENDROOT
BRANCH   7  10
ATOM     10  C   UNL     1       1.299   9.050  20.172  0.00  0.00    +0.000 A 
ATOM     11  C   UNL     1       0.885   9.896  21.222  0.00  0.00    +0.000 A 
ATOM     12  C   UNL     1       0.638  11.251  21.011  0.00  0.00    +0.000 A 
ATOM     13  C   UNL     1       0.816  11.788  19.744  0.00  0.00    +0.000 A 
ATOM     14  C   UNL     1       1.218  10.965  18.690  0.00  0.00    +0.000 A 
ATOM     15  C   UNL     1       1.442   9.585  18.875  0.00  0.00    +0.000 A 
ATOM     16  C   UNL     1       1.759   8.769  17.654  0.00  0.00    +0.000 C 
ENDBRANCH   7  10
BRANCH   1  20
ATOM     17  C   UNL     1       5.605   5.238  15.807  0.00  0.00    +0.000 A 
ATOM     18  C   UNL     1       4.872   4.065  16.034  0.00  0.00    +0.000 A 
ATOM     19  C   UNL     1       4.231   3.846  17.257  0.00  0.00    +0.000 A 
ATOM     20  C   UNL     1       4.350   4.782  18.293  0.00  0.00    +0.000 A 
ATOM     21  C   UNL     1       5.164   5.899  18.099  0.00  0.00    +0.000 A 
ATOM     22  C   UNL     1       5.820   6.125  16.873  0.00  0.00    +0.000 A 
BRANCH  17  23
ATOM     23  O   UNL     1       6.061   5.551  14.550  0.00  0.00    +0.000 OA
BRANCH  23  25
ATOM     24  C   UNL     1       6.475   3.900  12.836  0.00  0.00    +0.000 C 
ATOM     25  C   UNL     1       7.049   4.657  14.019  0.00  0.00    +0.000 C 
ENDBRANCH  23  25
ENDBRANCH  17  23
BRANCH  22  26
ATOM     26  O   UNL     1       6.568   7.277  16.886  0.00  0.00    +0.000 OA
BRANCH  26  27
ATOM     27  C   UNL     1       7.654   7.343  17.807  0.00  0.00    +0.000 C 
ATOM     28  C   UNL     1       8.131   8.785  17.918  0.00  0.00    +0.000 C 
ENDBRANCH  26  27
ENDBRANCH  22  26
ENDBRANCH   1  20
TORSDOF 6
ENDMDL
MODEL 4
REMARK VINA RESULT:      -8.0      0.915      1.017
REMARK  Name = 
REMARK  9 active torsions:
REMARK  status: ('A' for Active; 'I' for Inactive)
REMARK    1  A    between atoms: C_1  and  C_2
REMARK    2  A    between atoms: C_2  and  O_3
REMARK    3  A    between atoms: O_3  and  C_4
REMARK    4  A    between atoms: C_7  and  C_8
REMARK    5  A    between atoms: C_14  and  C_16
REMARK    6  A    between atoms: C_21  and  C_22
REMARK    7  A    between atoms: C_24  and  O_25
REMARK    8  A    between atoms: O_25  and  C_26
REMARK    9  A    between atoms: C_26  and  C_27
REMARK                            x       y       z     vdW  Elec       q    Type
REMARK                         _______ _______ _______ _____ _____    ______ ____
ROOT
ATOM      1  C   UNL     1       3.740   3.936  19.687  0.00  0.00    +0.000 A 
ATOM      2  N   UNL     1       3.708   2.828  20.442  0.00  0.00    +0.000 NA
ATOM      3  O   UNL     1       2.746   3.060  21.404  0.00  0.00    +0.000 OA
ATOM      4  N   UNL     1       2.192   4.309  21.257  0.00  0.00    +0.000 NA
ATOM      5  C   UNL     1       2.805   4.874  20.217  0.00  0.00    +0.000 A 
ATOM      6  N   UNL     1       2.555   6.175  19.771  0.00  0.00    +0.000 N 
ATOM      7  C   UNL     1       1.618   7.002  20.368  0.00  0.00    +0.000 C 
ATOM      8  O   UNL     1       0.916   6.701  21.329  0.00  0.00    +0.000 OA
ATOM      9  H   UNL     1       3.159   6.533  19.050  0.00  0.00    +0.000 HD
ENDROOT
BRANCH   7  10
ATOM     10  C   UNL     1       1.487   8.398  19.847  0.00  0.00    +0.000 A 
ATOM     11  C   UNL     1       1.946   8.574  18.525  0.00  0.00    +0.000 A 
ATOM     12  C   UNL     1       1.948   9.827  17.916  0.00  0.00    +0.000 A 
ATOM     13  C   UNL     1       1.475  10.927  18.616  0.00  0.00    +0.000 A 
ATOM     14  C   UNL     1       1.024  10.775  19.929  0.00  0.00    +0.000 A 
ATOM     15  C   UNL     1       1.044   9.520  20.575  0.00  0.00    +0.000 A 
ATOM     16  C   UNL     1       0.645   9.487  22.023  0.00  0.00    +0.000 C 
ENDBRANCH   7  10
BRANCH   1  20
ATOM     17  C   UNL     1       6.129   4.410  16.179  0.00  0.00    +0.000 A 
ATOM     18  C   UNL     1       4.907   3.724  16.130  0.00  0.00    +0.000 A 
ATOM     19  C   UNL     1       4.148   3.530  17.288  0.00  0.00    +0.000 A 
ATOM     20  C   UNL     1       4.622   3.983  18.526  0.00  0.00    +0.000 A 
ATOM     21  C   UNL     1       5.885   4.575  18.586  0.00  0.00    +0.000 A 
ATOM     22  C   UNL     1       6.661   4.769  17.427  0.00  0.00    +0.000 A 
BRANCH  17  23
ATOM     23  O   UNL     1       6.774   4.781  15.024  0.00  0.00    +0.000 OA
BRANCH  23  25
ATOM     24  C   UNL     1       7.212   4.510  12.665  0.00  0.00    +0.000 C 
ATOM     25  C   UNL     1       6.343   4.098  13.839  0.00  0.00    +0.000 C 
ENDBRANCH  23  25
ENDBRANCH  17  23
BRANCH  22  26
ATOM     26  O   UNL     1       7.867   5.367  17.699  0.00  0.00    +0.000 OA
BRANCH  26  27
ATOM     27  C   UNL     1       7.842   6.586  18.439  0.00  0.00    +0.000 C 
ATOM     28  C   UNL     1       7.607   7.747  17.482  0.00  0.00    +0.000 C 
ENDBRANCH  26  27
ENDBRANCH  22  26
ENDBRANCH   1  20
TORSDOF 6
ENDMDL
MODEL 5
REMARK VINA RESULT:      -8.0      1.080      1.773
REMARK  Name = 
REMARK  9 active torsions:
REMARK  status: ('A' for Active; 'I' for Inactive)
REMARK    1  A    between atoms: C_1  and  C_2
REMARK    2  A    between atoms: C_2  and  O_3
REMARK    3  A    between atoms: O_3  and  C_4
REMARK    4  A    between atoms: C_7  and  C_8
REMARK    5  A    between atoms: C_14  and  C_16
REMARK    6  A    between atoms: C_21  and  C_22
REMARK    7  A    between atoms: C_24  and  O_25
REMARK    8  A    between atoms: O_25  and  C_26
REMARK    9  A    between atoms: C_26  and  C_27
REMARK                            x       y       z     vdW  Elec       q    Type
REMARK                         _______ _______ _______ _____ _____    ______ ____
ROOT
ATOM      1  C   UNL     1       3.588   4.025  19.810  0.00  0.00    +0.000 A 
ATOM      2  N   UNL     1       3.471   2.922  20.564  0.00  0.00    +0.000 NA
ATOM      3  O   UNL     1       2.473   3.198  21.476  0.00  0.00    +0.000 OA
ATOM      4  N   UNL     1       1.980   4.469  21.300  0.00  0.00    +0.000 NA
ATOM      5  C   UNL     1       2.669   5.004  20.292  0.00  0.00    +0.000 A 
ATOM      6  N   UNL     1       2.497   6.313  19.833  0.00  0.00    +0.000 N 
ATOM      7  C   UNL     1       1.567   7.181  20.381  0.00  0.00    +0.000 C 
ATOM      8  O   UNL     1       0.806   6.913  21.306  0.00  0.00    +0.000 OA
ATOM      9  H   UNL     1       3.151   6.643  19.142  0.00  0.00    +0.000 HD
ENDROOT
BRANCH   7  10
ATOM     10  C   UNL     1       1.522   8.580  19.853  0.00  0.00    +0.000 A 
ATOM     11  C   UNL     1       0.903   9.510  20.713  0.00  0.00    +0.000 A 
ATOM     12  C   UNL     1       0.729  10.842  20.341  0.00  0.00    +0.000 A 
ATOM     13  C   UNL     1       1.187  11.271  19.103  0.00  0.00    +0.000 A 
ATOM     14  C   UNL     1       1.796  10.362  18.235  0.00  0.00    +0.000 A 
ATOM     15  C   UNL     1       1.953   9.003  18.579  0.00  0.00    +0.000 A 
ATOM     16  C   UNL     1       2.515   8.088  17.529  0.00  0.00    +0.000 C 
ENDBRANCH   7  10
BRANCH   1  20
ATOM     17  C   UNL     1       6.172   4.391  16.430  0.00  0.00    +0.000 A 
ATOM     18  C   UNL     1       4.917   3.778  16.313  0.00  0.00    +0.000 A 
ATOM     19  C   UNL     1       4.092   3.618  17.430  0.00  0.00    +0.000 A 
ATOM     20  C   UNL     1       4.528   4.032  18.695  0.00  0.00    +0.000 A 
ATOM     21  C   UNL     1       5.818   4.549  18.824  0.00  0.00    +0.000 A 
ATOM     22  C   UNL     1       6.661   4.707  17.706  0.00  0.00    +0.000 A 
BRANCH  17  23
ATOM     23  O   UNL     1       6.894   4.734  15.313  0.00  0.00    +0.000 OA
BRANCH  23  25
ATOM     24  C   UNL     1       7.256   4.687  12.926  0.00  0.00    +0.000 C 
ATOM     25  C   UNL     1       6.406   4.189  14.079  0.00  0.00    +0.000 C 
ENDBRANCH  23  25
ENDBRANCH  17  23
BRANCH  22  26
ATOM     26  O   UNL     1       7.885   5.232  18.045  0.00  0.00    +0.000 OA
BRANCH  26  27
ATOM     27  C   UNL     1       7.900   6.526  18.644  0.00  0.00    +0.000 C 
ATOM     28  C   UNL     1       7.629   7.576  17.575  0.00  0.00    +0.000 C 
ENDBRANCH  26  27
ENDBRANCH  22  26
ENDBRANCH   1  20
TORSDOF 6
ENDMDL
MODEL 6
REMARK VINA RESULT:      -8.0      1.952      7.403
REMARK  Name = 
REMARK  9 active torsions:
REMARK  status: ('A' for Active; 'I' for Inactive)
REMARK    1  A    between atoms: C_1  and  C_2
REMARK    2  A    between atoms: C_2  and  O_3
REMARK    3  A    between atoms: O_3  and  C_4
REMARK    4  A    between atoms: C_7  and  C_8
REMARK    5  A    between atoms: C_14  and  C_16
REMARK    6  A    between atoms: C_21  and  C_22
REMARK    7  A    between atoms: C_24  and  O_25
REMARK    8  A    between atoms: O_25  and  C_26
REMARK    9  A    between atoms: C_26  and  C_27
REMARK                            x       y       z     vdW  Elec       q    Type
REMARK                         _______ _______ _______ _____ _____    ______ ____
ROOT
ATOM      1  C   UNL     1       2.160   6.119  20.085  0.00  0.00    +0.000 A 
ATOM      2  N   UNL     1       1.484   5.555  21.097  0.00  0.00    +0.000 NA
ATOM      3  O   UNL     1       1.988   4.277  21.215  0.00  0.00    +0.000 OA
ATOM      4  N   UNL     1       2.964   4.040  20.276  0.00  0.00    +0.000 NA
ATOM      5  C   UNL     1       3.071   5.157  19.555  0.00  0.00    +0.000 A 
ATOM      6  N   UNL     1       3.929   5.305  18.462  0.00  0.00    +0.000 N 
ATOM      7  C   UNL     1       4.774   4.294  18.034  0.00  0.00    +0.000 C 
ATOM      8  O   UNL     1       4.868   3.183  18.547  0.00  0.00    +0.000 OA
ATOM      9  H   UNL     1       3.841   6.152  17.925  0.00  0.00    +0.000 HD
ENDROOT
BRANCH   7  10
ATOM     10  C   UNL     1       5.597   4.545  16.810  0.00  0.00    +0.000 A 
ATOM     11  C   UNL     1       5.066   3.994  15.625  0.00  0.00    +0.000 A 
ATOM     12  C   UNL     1       5.742   4.089  14.411  0.00  0.00    +0.000 A 
ATOM     13  C   UNL     1       6.959   4.753  14.357  0.00  0.00    +0.000 A 
ATOM     14  C   UNL     1       7.505   5.299  15.521  0.00  0.00    +0.000 A 
ATOM     15  C   UNL     1       6.852   5.186  16.767  0.00  0.00    +0.000 A 
ATOM     16  C   UNL     1       7.578   5.706  17.974  0.00  0.00    +0.000 C 
ENDBRANCH   7  10
BRANCH   1  20
ATOM     17  C   UNL     1       1.050  10.086  18.960  0.00  0.00    +0.000 A 
ATOM     18  C   UNL     1       1.634   9.212  18.032  0.00  0.00    +0.000 A 
ATOM     19  C   UNL     1       2.039   7.930  18.414  0.00  0.00    +0.000 A 
ATOM     20  C   UNL     1       1.905   7.514  19.745  0.00  0.00    +0.000 A 
ATOM     21  C   UNL     1       1.418   8.423  20.686  0.00  0.00    +0.000 A 
ATOM     22  C   UNL     1       1.014   9.720  20.314  0.00  0.00    +0.000 A 
BRANCH  17  23
ATOM     23  O   UNL     1       0.468  11.261  18.550  0.00  0.00    +0.000 OA
BRANCH  23  25
ATOM     24  C   UNL     1      -1.603  10.395  17.660  0.00  0.00    +0.000 C 
ATOM     25  C   UNL     1      -0.959  11.313  18.681  0.00  0.00    +0.000 C 
ENDBRANCH  23  25
ENDBRANCH  17  23
BRANCH  22  26
ATOM     26  O   UNL     1       0.565  10.455  21.384  0.00  0.00    +0.000 OA
BRANCH  26  27
ATOM     27  C   UNL     1       0.096   9.735  22.522  0.00  0.00    +0.000 C 
ATOM     28  C   UNL     1      -1.047  10.508  23.168  0.00  0.00    +0.000 C 
ENDBRANCH  26  27
ENDBRANCH  22  26
ENDBRANCH   1  20
TORSDOF 6
ENDMDL
MODEL 7
REMARK VINA RESULT:      -7.9      1.044      1.134
REMARK  Name = 
REMARK  9 active torsions:
REMARK  status: ('A' for Active; 'I' for Inactive)
REMARK    1  A    between atoms: C_1  and  C_2
REMARK    2  A    between atoms: C_2  and  O_3
REMARK    3  A    between atoms: O_3  and  C_4
REMARK    4  A    between atoms: C_7  and  C_8
REMARK    5  A    between atoms: C_14  and  C_16
REMARK    6  A    between atoms: C_21  and  C_22
REMARK    7  A    between atoms: C_24  and  O_25
REMARK    8  A    between atoms: O_25  and  C_26
REMARK    9  A    between atoms: C_26  and  C_27
REMARK                            x       y       z     vdW  Elec       q    Type
REMARK                         _______ _______ _______ _____ _____    ______ ____
ROOT
ATOM      1  C   UNL     1       3.543   4.582  19.437  0.00  0.00    +0.000 A 
ATOM      2  N   UNL     1       3.560   3.408  20.086  0.00  0.00    +0.000 NA
ATOM      3  O   UNL     1       2.637   3.530  21.103  0.00  0.00    +0.000 OA
ATOM      4  N   UNL     1       2.056   4.776  21.096  0.00  0.00    +0.000 NA
ATOM      5  C   UNL     1       2.616   5.448  20.089  0.00  0.00    +0.000 A 
ATOM      6  N   UNL     1       2.326   6.779  19.777  0.00  0.00    +0.000 N 
ATOM      7  C   UNL     1       1.400   7.527  20.486  0.00  0.00    +0.000 C 
ATOM      8  O   UNL     1       0.745   7.125  21.442  0.00  0.00    +0.000 OA
ATOM      9  H   UNL     1       2.893   7.214  19.068  0.00  0.00    +0.000 HD
ENDROOT
BRANCH   7  10
ATOM     10  C   UNL     1       1.225   8.963  20.103  0.00  0.00    +0.000 A 
ATOM     11  C   UNL     1       1.616   9.268  18.783  0.00  0.00    +0.000 A 
ATOM     12  C   UNL     1       1.571  10.572  18.293  0.00  0.00    +0.000 A 
ATOM     13  C   UNL     1       1.117  11.594  19.114  0.00  0.00    +0.000 A 
ATOM     14  C   UNL     1       0.734  11.313  20.427  0.00  0.00    +0.000 A 
ATOM     15  C   UNL     1       0.802  10.005  20.952  0.00  0.00    +0.000 A 
ATOM     16  C   UNL     1       0.476   9.832  22.408  0.00  0.00    +0.000 C 
ENDBRANCH   7  10
BRANCH   1  20
ATOM     17  C   UNL     1       5.650   5.231  15.779  0.00  0.00    +0.000 A 
ATOM     18  C   UNL     1       4.960   4.032  16.009  0.00  0.00    +0.000 A 
ATOM     19  C   UNL     1       4.309   3.803  17.224  0.00  0.00    +0.000 A 
ATOM     20  C   UNL     1       4.374   4.755  18.250  0.00  0.00    +0.000 A 
ATOM     21  C   UNL     1       5.146   5.901  18.055  0.00  0.00    +0.000 A 
ATOM     22  C   UNL     1       5.812   6.139  16.837  0.00  0.00    +0.000 A 
BRANCH  17  23
ATOM     23  O   UNL     1       6.113   5.547  14.525  0.00  0.00    +0.000 OA
BRANCH  23  25
ATOM     24  C   UNL     1       6.374   3.832  12.845  0.00  0.00    +0.000 C 
ATOM     25  C   UNL     1       7.042   4.609  13.963  0.00  0.00    +0.000 C 
ENDBRANCH  23  25
ENDBRANCH  17  23
BRANCH  22  26
ATOM     26  O   UNL     1       6.514   7.320  16.847  0.00  0.00    +0.000 OA
BRANCH  26  27
ATOM     27  C   UNL     1       7.678   7.383  17.668  0.00  0.00    +0.000 C 
ATOM     28  C   UNL     1       8.062   8.841  17.882  0.00  0.00    +0.000 C 
ENDBRANCH  26  27
ENDBRANCH  22  26
ENDBRANCH   1  20
TORSDOF 6
ENDMDL
MODEL 8
REMARK VINA RESULT:      -7.8      4.023      6.661
REMARK  Name = 
REMARK  9 active torsions:
REMARK  status: ('A' for Active; 'I' for Inactive)
REMARK    1  A    between atoms: C_1  and  C_2
REMARK    2  A    between atoms: C_2  and  O_3
REMARK    3  A    between atoms: O_3  and  C_4
REMARK    4  A    between atoms: C_7  and  C_8
REMARK    5  A    between atoms: C_14  and  C_16
REMARK    6  A    between atoms: C_21  and  C_22
REMARK    7  A    between atoms: C_24  and  O_25
REMARK    8  A    between atoms: O_25  and  C_26
REMARK    9  A    between atoms: C_26  and  C_27
REMARK                            x       y       z     vdW  Elec       q    Type
REMARK                         _______ _______ _______ _____ _____    ______ ____
ROOT
ATOM      1  C   UNL     1       0.904   9.365  20.786  0.00  0.00    +0.000 A 
ATOM      2  N   UNL     1       1.421   9.805  21.943  0.00  0.00    +0.000 NA
ATOM      3  O   UNL     1       0.629  10.866  22.327  0.00  0.00    +0.000 OA
ATOM      4  N   UNL     1      -0.369  11.096  21.410  0.00  0.00    +0.000 NA
ATOM      5  C   UNL     1      -0.205  10.194  20.441  0.00  0.00    +0.000 A 
ATOM      6  N   UNL     1      -0.998  10.125  19.292  0.00  0.00    +0.000 N 
ATOM      7  C   UNL     1      -2.056  10.990  19.061  0.00  0.00    +0.000 C 
ATOM      8  O   UNL     1      -2.412  11.891  19.814  0.00  0.00    +0.000 OA
ATOM      9  H   UNL     1      -0.709   9.477  18.578  0.00  0.00    +0.000 HD
ENDROOT
BRANCH   7  10
ATOM     10  C   UNL     1      -2.788  10.863  17.763  0.00  0.00    +0.000 A 
ATOM     11  C   UNL     1      -2.033  10.290  16.719  0.00  0.00    +0.000 A 
ATOM     12  C   UNL     1      -2.553  10.158  15.432  0.00  0.00    +0.000 A 
ATOM     13  C   UNL     1      -3.846  10.586  15.171  0.00  0.00    +0.000 A 
ATOM     14  C   UNL     1      -4.607  11.163  16.190  0.00  0.00    +0.000 A 
ATOM     15  C   UNL     1      -4.088  11.335  17.492  0.00  0.00    +0.000 A 
ATOM     16  C   UNL     1      -4.946  12.071  18.482  0.00  0.00    +0.000 C 
ENDBRANCH   7  10
BRANCH   1  20
ATOM     17  C   UNL     1       2.961   6.063  19.025  0.00  0.00    +0.000 A 
ATOM     18  C   UNL     1       2.775   7.257  18.314  0.00  0.00    +0.000 A 
ATOM     19  C   UNL     1       2.062   8.321  18.875  0.00  0.00    +0.000 A 
ATOM     20  C   UNL     1       1.484   8.191  20.144  0.00  0.00    +0.000 A 
ATOM     21  C   UNL     1       1.584   6.966  20.805  0.00  0.00    +0.000 A 
ATOM     22  C   UNL     1       2.294   5.885  20.246  0.00  0.00    +0.000 A 
BRANCH  17  23
ATOM     23  O   UNL     1       3.826   5.100  18.568  0.00  0.00    +0.000 OA
BRANCH  23  25
ATOM     24  C   UNL     1       2.548   3.441  17.364  0.00  0.00    +0.000 C 
ATOM     25  C   UNL     1       3.536   4.588  17.260  0.00  0.00    +0.000 C 
ENDBRANCH  23  25
ENDBRANCH  17  23
BRANCH  22  26
ATOM     26  O   UNL     1       2.274   4.774  21.054  0.00  0.00    +0.000 OA
BRANCH  26  27
ATOM     27  C   UNL     1       1.235   3.822  20.834  0.00  0.00    +0.000 C 
ATOM     28  C   UNL     1       1.572   2.533  21.571  0.00  0.00    +0.000 C 
ENDBRANCH  26  27
ENDBRANCH  22  26
ENDBRANCH   1  20
TORSDOF 6
ENDMDL
MODEL 9
REMARK VINA RESULT:      -7.8      2.061      7.441
REMARK  Name = 
REMARK  9 active torsions:
REMARK  status: ('A' for Active; 'I' for Inactive)
REMARK    1  A    between atoms: C_1  and  C_2
REMARK    2  A    between atoms: C_2  and  O_3
REMARK    3  A    between atoms: O_3  and  C_4
REMARK    4  A    between atoms: C_7  and  C_8
REMARK    5  A    between atoms: C_14  and  C_16
REMARK    6  A    between atoms: C_21  and  C_22
REMARK    7  A    between atoms: C_24  and  O_25
REMARK    8  A    between atoms: O_25  and  C_26
REMARK    9  A    between atoms: C_26  and  C_27
REMARK                            x       y       z     vdW  Elec       q    Type
REMARK                         _______ _______ _______ _____ _____    ______ ____
ROOT
ATOM      1  C   UNL     1       2.160   5.989  20.076  0.00  0.00    +0.000 A 
ATOM      2  N   UNL     1       1.467   5.419  21.073  0.00  0.00    +0.000 NA
ATOM      3  O   UNL     1       1.927   4.121  21.153  0.00  0.00    +0.000 OA
ATOM      4  N   UNL     1       2.892   3.880  20.204  0.00  0.00    +0.000 NA
ATOM      5  C   UNL     1       3.036   5.012  19.516  0.00  0.00    +0.000 A 
ATOM      6  N   UNL     1       3.897   5.164  18.425  0.00  0.00    +0.000 N 
ATOM      7  C   UNL     1       4.707   4.138  17.965  0.00  0.00    +0.000 C 
ATOM      8  O   UNL     1       4.764   3.010  18.445  0.00  0.00    +0.000 OA
ATOM      9  H   UNL     1       3.837   6.029  17.914  0.00  0.00    +0.000 HD
ENDROOT
BRANCH   7  10
ATOM     10  C   UNL     1       5.535   4.397  16.747  0.00  0.00    +0.000 A 
ATOM     11  C   UNL     1       4.870   4.160  15.526  0.00  0.00    +0.000 A 
ATOM     12  C   UNL     1       5.522   4.297  14.302  0.00  0.00    +0.000 A 
ATOM     13  C   UNL     1       6.853   4.690  14.278  0.00  0.00    +0.000 A 
ATOM     14  C   UNL     1       7.531   4.922  15.477  0.00  0.00    +0.000 A 
ATOM     15  C   UNL     1       6.898   4.757  16.727  0.00  0.00    +0.000 A 
ATOM     16  C   UNL     1       7.748   4.919  17.955  0.00  0.00    +0.000 C 
ENDBRANCH   7  10
BRANCH   1  20
ATOM     17  C   UNL     1       1.190  10.021  19.057  0.00  0.00    +0.000 A 
ATOM     18  C   UNL     1       1.782   9.165  18.119  0.00  0.00    +0.000 A 
ATOM     19  C   UNL     1       2.141   7.860  18.467  0.00  0.00    +0.000 A 
ATOM     20  C   UNL     1       1.951   7.402  19.778  0.00  0.00    +0.000 A 
ATOM     21  C   UNL     1       1.456   8.289  20.734  0.00  0.00    +0.000 A 
ATOM     22  C   UNL     1       1.098   9.609  20.395  0.00  0.00    +0.000 A 
BRANCH  17  23
ATOM     23  O   UNL     1       0.651  11.224  18.670  0.00  0.00    +0.000 OA
BRANCH  23  25
ATOM     24  C   UNL     1       1.017  13.418  19.613  0.00  0.00    +0.000 C 
ATOM     25  C   UNL     1       1.558  12.336  18.697  0.00  0.00    +0.000 C 
ENDBRANCH  23  25
ENDBRANCH  17  23
BRANCH  22  26
ATOM     26  O   UNL     1       0.631  10.318  21.476  0.00  0.00    +0.000 OA
BRANCH  26  27
ATOM     27  C   UNL     1      -0.355   9.692  22.294  0.00  0.00    +0.000 C 
ATOM     28  C   UNL     1      -1.105  10.759  23.081  0.00  0.00    +0.000 C 
ENDBRANCH  26  27
ENDBRANCH  22  26
ENDBRANCH   1  20
TORSDOF 6
ENDMDL
