MODEL 1
REMARK VINA RESULT:      -7.6      0.000      0.000
REMARK  Name = 
REMARK  6 active torsions:
REMARK  status: ('A' for Active; 'I' for Inactive)
REMARK    1  A    between atoms: C_1  and  C_2
REMARK    2  A    between atoms: C_2  and  C_3
REMARK    3  A    between atoms: C_3  and  O_4
REMARK    4  A    between atoms: O_4  and  C_5
REMARK    5  A    between atoms: C_8  and  C_9
REMARK    6  A    between atoms: C_9  and  C_11
REMARK                            x       y       z     vdW  Elec       q    Type
REMARK                         _______ _______ _______ _____ _____    ______ ____
ROOT
ATOM      1  C   UNL     1       1.729   8.332  19.633  0.00  0.00    +0.000 A 
ATOM      2  C   UNL     1       1.658   8.749  18.303  0.00  0.00    +0.000 A 
ATOM      3  C   UNL     1       0.896   9.853  17.946  0.00  0.00    +0.000 A 
ATOM      4  C   UNL     1       0.117  10.527  18.894  0.00  0.00    +0.000 A 
ATOM      5  C   UNL     1       0.174  10.137  20.268  0.00  0.00    +0.000 A 
ATOM      6  C   UNL     1      -0.548  10.776  21.309  0.00  0.00    +0.000 A 
ATOM      7  C   UNL     1      -0.445  10.395  22.649  0.00  0.00    +0.000 A 
ATOM      8  C   UNL     1       0.374   9.337  22.994  0.00  0.00    +0.000 A 
ATOM      9  C   UNL     1       1.080   8.661  21.997  0.00  0.00    +0.000 A 
ATOM     10  C   UNL     1       1.003   9.033  20.633  0.00  0.00    +0.000 A 
ENDROOT
BRANCH   4  11
ATOM     11  C   UNL     1      -0.719  11.681  18.416  0.00  0.00    +0.000 C 
ATOM     12  O   UNL     1      -0.219  12.798  18.353  0.00  0.00    +0.000 OA
BRANCH  11  13
ATOM     13  C   UNL     1      -2.152  11.500  17.992  0.00  0.00    +0.000 A 
ATOM     14  C   UNL     1      -2.411  10.867  16.761  0.00  0.00    +0.000 A 
ATOM     15  C   UNL     1      -3.713  10.723  16.296  0.00  0.00    +0.000 A 
ATOM     16  C   UNL     1      -4.775  11.153  17.082  0.00  0.00    +0.000 A 
ATOM     17  C   UNL     1      -4.559  11.725  18.345  0.00  0.00    +0.000 A 
ATOM     18  C   UNL     1      -5.663  12.091  19.133  0.00  0.00    +0.000 A 
ATOM     19  C   UNL     1      -5.497  12.648  20.399  0.00  0.00    +0.000 A 
ATOM     20  C   UNL     1      -4.218  12.874  20.881  0.00  0.00    +0.000 A 
ATOM     21  C   UNL     1      -3.111  12.534  20.100  0.00  0.00    +0.000 A 
ATOM     22  C   UNL     1      -3.237  11.924  18.824  0.00  0.00    +0.000 A 
ENDBRANCH  11  13
ENDBRANCH   4  11
BRANCH   1  23
ATOM     23  O   UNL     1       2.497   7.255  20.038  0.00  0.00    +0.000 OA
BRANCH  23  24
ATOM     24  C   UNL     1       2.091   5.979  19.538  0.00  0.00    +0.000 C 
BRANCH  24  26
ATOM     25  C   UNL     1       1.366   3.689  20.216  0.00  0.00    +0.000 C 
ATOM     26  C   UNL     1       1.432   5.151  20.634  0.00  0.00    +0.000 C 
ENDBRANCH  24  26
ENDBRANCH  23  24
ENDBRANCH   1  23
TORSDOF 5
ENDMDL
MODEL 2
REMARK VINA RESULT:      -7.5      3.464      6.489
REMARK  Name = 
REMARK  6 active torsions:
REMARK  status: ('A' for Active; 'I' for Inactive)
REMARK    1  A    between atoms: C_1  and  C_2
REMARK    2  A    between atoms: C_2  and  C_3
REMARK    3  A    between atoms: C_3  and  O_4
REMARK    4  A    between atoms: O_4  and  C_5
REMARK    5  A    between atoms: C_8  and  C_9
REMARK    6  A    between atoms: C_9  and  C_11
REMARK                            x       y       z     vdW  Elec       q    Type
REMARK                         _______ _______ _______ _____ _____    ______ ____
ROOT
ATOM      1  C   UNL     1       5.188   4.563  17.656  0.00  0.00    +0.000 A 
ATOM      2  C   UNL     1       5.409   5.846  18.158  0.00  0.00    +0.000 A 
ATOM      3  C   UNL     1       4.443   6.483  18.926  0.00  0.00    +0.000 A 
ATOM      4  C   UNL     1       3.195   5.890  19.148  0.00  0.00    +0.000 A 
ATOM      5  C   UNL     1       2.937   4.572  18.661  0.00  0.00    +0.000 A 
ATOM      6  C   UNL     1       1.719   3.871  18.862  0.00  0.00    +0.000 A 
ATOM      7  C   UNL     1       1.508   2.568  18.404  0.00  0.00    +0.000 A 
ATOM      8  C   UNL     1       2.509   1.925  17.701  0.00  0.00    +0.000 A 
ATOM      9  C   UNL     1       3.712   2.588  17.456  0.00  0.00    +0.000 A 
ATOM     10  C   UNL     1       3.957   3.904  17.918  0.00  0.00    +0.000 A 
ENDROOT
BRANCH   4  11
ATOM     11  C   UNL     1       2.186   6.668  19.947  0.00  0.00    +0.000 C 
ATOM     12  O   UNL     1       1.709   6.168  20.959  0.00  0.00    +0.000 OA
BRANCH  11  13
ATOM     13  C   UNL     1       1.759   8.055  19.549  0.00  0.00    +0.000 A 
ATOM     14  C   UNL     1       1.988   8.471  18.224  0.00  0.00    +0.000 A 
ATOM     15  C   UNL     1       1.663   9.760  17.817  0.00  0.00    +0.000 A 
ATOM     16  C   UNL     1       1.047  10.628  18.712  0.00  0.00    +0.000 A 
ATOM     17  C   UNL     1       0.739  10.225  20.020  0.00  0.00    +0.000 A 
ATOM     18  C   UNL     1       0.062  11.113  20.872  0.00  0.00    +0.000 A 
ATOM     19  C   UNL     1      -0.277  10.750  22.173  0.00  0.00    +0.000 A 
ATOM     20  C   UNL     1       0.085   9.500  22.649  0.00  0.00    +0.000 A 
ATOM     21  C   UNL     1       0.775   8.615  21.819  0.00  0.00    +0.000 A 
ATOM     22  C   UNL     1       1.102   8.929  20.473  0.00  0.00    +0.000 A 
ENDBRANCH  11  13
ENDBRANCH   4  11
BRANCH   1  23
ATOM     23  O   UNL     1       6.133   3.880  16.910  0.00  0.00    +0.000 OA
BRANCH  23  24
ATOM     24  C   UNL     1       6.682   4.594  15.800  0.00  0.00    +0.000 C 
BRANCH  24  26
ATOM     25  C   UNL     1       6.053   3.812  13.515  0.00  0.00    +0.000 C 
ATOM     26  C   UNL     1       5.661   4.716  14.675  0.00  0.00    +0.000 C 
ENDBRANCH  24  26
ENDBRANCH  23  24
ENDBRANCH   1  23
TORSDOF 5
ENDMDL
MODEL 3
REMARK VINA RESULT:      -7.3      1.720      4.121
REMARK  Name = 
REMARK  6 active torsions:
REMARK  status: ('A' for Active; 'I' for Inactive)
REMARK    1  A    between atoms: C_1  and  C_2
REMARK    2  A    between atoms: C_2  and  C_3
REMARK    3  A    between atoms: C_3  and  O_4
REMARK    4  A    between atoms: O_4  and  C_5
REMARK    5  A    between atoms: C_8  and  C_9
REMARK    6  A    between atoms: C_9  and  C_11
REMARK                            x       y       z     vdW  Elec       q    Type
REMARK                         _______ _______ _______ _____ _____    ______ ____
ROOT
ATOM      1  C   UNL     1       1.974   6.139  20.500  0.00  0.00    +0.000 A 
ATOM      2  C   UNL     1       1.125   7.078  21.087  0.00  0.00    +0.000 A 
ATOM      3  C   UNL     1       0.918   8.316  20.493  0.00  0.00    +0.000 A 
ATOM      4  C   UNL     1       1.616   8.685  19.337  0.00  0.00    +0.000 A 
ATOM      5  C   UNL     1       2.484   7.746  18.700  0.00  0.00    +0.000 A 
ATOM      6  C   UNL     1       3.208   8.009  17.509  0.00  0.00    +0.000 A 
ATOM      7  C   UNL     1       4.023   7.058  16.889  0.00  0.00    +0.000 A 
ATOM      8  C   UNL     1       4.161   5.807  17.459  0.00  0.00    +0.000 A 
ATOM      9  C   UNL     1       3.489   5.515  18.647  0.00  0.00    +0.000 A 
ATOM     10  C   UNL     1       2.648   6.456  19.290  0.00  0.00    +0.000 A 
ENDROOT
BRANCH   4  11
ATOM     11  C   UNL     1       1.373  10.063  18.787  0.00  0.00    +0.000 C 
ATOM     12  O   UNL     1       2.168  10.535  17.981  0.00  0.00    +0.000 OA
BRANCH  11  13
ATOM     13  C   UNL     1       0.170  10.875  19.182  0.00  0.00    +0.000 A 
ATOM     14  C   UNL     1       0.305  11.803  20.232  0.00  0.00    +0.000 A 
ATOM     15  C   UNL     1      -0.788  12.540  20.674  0.00  0.00    +0.000 A 
ATOM     16  C   UNL     1      -2.014  12.405  20.033  0.00  0.00    +0.000 A 
ATOM     17  C   UNL     1      -2.168  11.541  18.938  0.00  0.00    +0.000 A 
ATOM     18  C   UNL     1      -3.408  11.479  18.280  0.00  0.00    +0.000 A 
ATOM     19  C   UNL     1      -3.603  10.648  17.180  0.00  0.00    +0.000 A 
ATOM     20  C   UNL     1      -2.565   9.843  16.741  0.00  0.00    +0.000 A 
ATOM     21  C   UNL     1      -1.333   9.879  17.398  0.00  0.00    +0.000 A 
ATOM     22  C   UNL     1      -1.080  10.744  18.496  0.00  0.00    +0.000 A 
ENDBRANCH  11  13
ENDBRANCH   4  11
BRANCH   1  23
ATOM     23  O   UNL     1       2.188   4.884  21.042  0.00  0.00    +0.000 OA
BRANCH  23  24
ATOM     24  C   UNL     1       1.125   3.944  20.870  0.00  0.00    +0.000 C 
BRANCH  24  26
ATOM     25  C   UNL     1       0.982   2.516  18.829  0.00  0.00    +0.000 C 
ATOM     26  C   UNL     1       1.628   2.673  20.197  0.00  0.00    +0.000 C 
ENDBRANCH  24  26
ENDBRANCH  23  24
ENDBRANCH   1  23
TORSDOF 5
ENDMDL
MODEL 4
REMARK VINA RESULT:      -7.3      3.301      6.036
REMARK  Name = 
REMARK  6 active torsions:
REMARK  status: ('A' for Active; 'I' for Inactive)
REMARK    1  A    between atoms: C_1  and  C_2
REMARK    2  A    between atoms: C_2  and  C_3
REMARK    3  A    between atoms: C_3  and  O_4
REMARK    4  A    between atoms: O_4  and  C_5
REMARK    5  A    between atoms: C_8  and  C_9
REMARK    6  A    between atoms: C_9  and  C_11
REMARK                            x       y       z     vdW  Elec       q    Type
REMARK                         _______ _______ _______ _____ _____    ______ ____
ROOT
ATOM      1  C   UNL     1       4.512   5.430  16.842  0.00  0.00    +0.000 A 
ATOM      2  C   UNL     1       4.606   6.772  17.214  0.00  0.00    +0.000 A 
ATOM      3  C   UNL     1       3.776   7.295  18.197  0.00  0.00    +0.000 A 
ATOM      4  C   UNL     1       2.772   6.514  18.781  0.00  0.00    +0.000 A 
ATOM      5  C   UNL     1       2.654   5.133  18.434  0.00  0.00    +0.000 A 
ATOM      6  C   UNL     1       1.694   4.250  18.993  0.00  0.00    +0.000 A 
ATOM      7  C   UNL     1       1.625   2.894  18.661  0.00  0.00    +0.000 A 
ATOM      8  C   UNL     1       2.507   2.377  17.732  0.00  0.00    +0.000 A 
ATOM      9  C   UNL     1       3.448   3.217  17.135  0.00  0.00    +0.000 A 
ATOM     10  C   UNL     1       3.548   4.592  17.461  0.00  0.00    +0.000 A 
ENDROOT
BRANCH   4  11
ATOM     11  C   UNL     1       1.882   7.170  19.799  0.00  0.00    +0.000 C 
ATOM     12  O   UNL     1       1.553   6.543  20.800  0.00  0.00    +0.000 OA
BRANCH  11  13
ATOM     13  C   UNL     1       1.398   8.585  19.635  0.00  0.00    +0.000 A 
ATOM     14  C   UNL     1       1.556   9.205  18.381  0.00  0.00    +0.000 A 
ATOM     15  C   UNL     1       1.177  10.529  18.190  0.00  0.00    +0.000 A 
ATOM     16  C   UNL     1       0.577  11.230  19.229  0.00  0.00    +0.000 A 
ATOM     17  C   UNL     1       0.339  10.622  20.472  0.00  0.00    +0.000 A 
ATOM     18  C   UNL     1      -0.324  11.347  21.476  0.00  0.00    +0.000 A 
ATOM     19  C   UNL     1      -0.594  10.780  22.719  0.00  0.00    +0.000 A 
ATOM     20  C   UNL     1      -0.177   9.486  22.983  0.00  0.00    +0.000 A 
ATOM     21  C   UNL     1       0.501   8.761  22.001  0.00  0.00    +0.000 A 
ATOM     22  C   UNL     1       0.759   9.286  20.707  0.00  0.00    +0.000 A 
ENDBRANCH  11  13
ENDBRANCH   4  11
BRANCH   1  23
ATOM     23  O   UNL     1       5.337   4.861  15.888  0.00  0.00    +0.000 OA
BRANCH  23  24
ATOM     24  C   UNL     1       6.726   5.178  15.999  0.00  0.00    +0.000 C 
BRANCH  24  26
ATOM     25  C   UNL     1       7.801   5.299  18.248  0.00  0.00    +0.000 C 
ATOM     26  C   UNL     1       7.379   4.374  17.116  0.00  0.00    +0.000 C 
ENDBRANCH  24  26
ENDBRANCH  23  24
ENDBRANCH   1  23
TORSDOF 5
ENDMDL
MODEL 5
REMARK VINA RESULT:      -7.3      3.210      6.028
REMARK  Name = 
REMARK  6 active torsions:
REMARK  status: ('A' for Active; 'I' for Inactive)
REMARK    1  A    between atoms: C_1  and  C_2
REMARK    2  A    between atoms: C_2  and  C_3
REMARK    3  A    between atoms: C_3  and  O_4
REMARK    4  A    between atoms: O_4  and  C_5
REMARK    5  A    between atoms: C_8  and  C_9
REMARK    6  A    between atoms: C_9  and  C_11
REMARK                            x       y       z     vdW  Elec       q    Type
REMARK                         _______ _______ _______ _____ _____    ______ ____
ROOT
ATOM      1  C   UNL     1       3.778   4.647  17.172  0.00  0.00    +0.000 A 
ATOM      2  C   UNL     1       4.154   5.977  17.360  0.00  0.00    +0.000 A 
ATOM      3  C   UNL     1       3.577   6.742  18.365  0.00  0.00    +0.000 A 
ATOM      4  C   UNL     1       2.548   6.226  19.161  0.00  0.00    +0.000 A 
ATOM      5  C   UNL     1       2.144   4.864  19.006  0.00  0.00    +0.000 A 
ATOM      6  C   UNL     1       1.137   4.238  19.785  0.00  0.00    +0.000 A 
ATOM      7  C   UNL     1       0.788   2.893  19.635  0.00  0.00    +0.000 A 
ATOM      8  C   UNL     1       1.424   2.129  18.676  0.00  0.00    +0.000 A 
ATOM      9  C   UNL     1       2.401   2.714  17.868  0.00  0.00    +0.000 A 
ATOM     10  C   UNL     1       2.782   4.071  18.005  0.00  0.00    +0.000 A 
ENDROOT
BRANCH   4  11
ATOM     11  C   UNL     1       1.942   7.137  20.192  0.00  0.00    +0.000 C 
ATOM     12  O   UNL     1       1.880   6.764  21.359  0.00  0.00    +0.000 OA
BRANCH  11  13
ATOM     13  C   UNL     1       1.423   8.504  19.837  0.00  0.00    +0.000 A 
ATOM     14  C   UNL     1       1.603   8.966  18.519  0.00  0.00    +0.000 A 
ATOM     15  C   UNL     1       1.192  10.242  18.151  0.00  0.00    +0.000 A 
ATOM     16  C   UNL     1       0.541  11.048  19.077  0.00  0.00    +0.000 A 
ATOM     17  C   UNL     1       0.282  10.595  20.379  0.00  0.00    +0.000 A 
ATOM     18  C   UNL     1      -0.432  11.419  21.265  0.00  0.00    +0.000 A 
ATOM     19  C   UNL     1      -0.725  11.005  22.562  0.00  0.00    +0.000 A 
ATOM     20  C   UNL     1      -0.280   9.769  22.999  0.00  0.00    +0.000 A 
ATOM     21  C   UNL     1       0.449   8.947  22.136  0.00  0.00    +0.000 A 
ATOM     22  C   UNL     1       0.732   9.314  20.793  0.00  0.00    +0.000 A 
ENDBRANCH  11  13
ENDBRANCH   4  11
BRANCH   1  23
ATOM     23  O   UNL     1       4.345   3.840  16.202  0.00  0.00    +0.000 OA
BRANCH  23  24
ATOM     24  C   UNL     1       5.765   3.934  16.069  0.00  0.00    +0.000 C 
BRANCH  24  26
ATOM     25  C   UNL     1       7.084   5.035  14.258  0.00  0.00    +0.000 C 
ATOM     26  C   UNL     1       6.179   3.862  14.604  0.00  0.00    +0.000 C 
ENDBRANCH  24  26
ENDBRANCH  23  24
ENDBRANCH   1  23
TORSDOF 5
ENDMDL
MODEL 6
REMARK VINA RESULT:      -7.2      2.711      5.774
REMARK  Name = 
REMARK  6 active torsions:
REMARK  status: ('A' for Active; 'I' for Inactive)
REMARK    1  A    between atoms: C_1  and  C_2
REMARK    2  A    between atoms: C_2  and  C_3
REMARK    3  A    between atoms: C_3  and  O_4
REMARK    4  A    between atoms: O_4  and  C_5
REMARK    5  A    between atoms: C_8  and  C_9
REMARK    6  A    between atoms: C_9  and  C_11
REMARK                            x       y       z     vdW  Elec       q    Type
REMARK                         _______ _______ _______ _____ _____    ______ ____
ROOT
ATOM      1  C   UNL     1       3.133   3.939  17.638  0.00  0.00    +0.000 A 
ATOM      2  C   UNL     1       1.833   4.366  17.912  0.00  0.00    +0.000 A 
ATOM      3  C   UNL     1       1.538   5.718  18.019  0.00  0.00    +0.000 A 
ATOM      4  C   UNL     1       2.549   6.683  17.937  0.00  0.00    +0.000 A 
ATOM      5  C   UNL     1       3.890   6.285  17.646  0.00  0.00    +0.000 A 
ATOM      6  C   UNL     1       4.977   7.187  17.508  0.00  0.00    +0.000 A 
ATOM      7  C   UNL     1       6.272   6.771  17.187  0.00  0.00    +0.000 A 
ATOM      8  C   UNL     1       6.531   5.425  17.015  0.00  0.00    +0.000 A 
ATOM      9  C   UNL     1       5.496   4.501  17.170  0.00  0.00    +0.000 A 
ATOM     10  C   UNL     1       4.172   4.895  17.484  0.00  0.00    +0.000 A 
ENDROOT
BRANCH   4  11
ATOM     11  C   UNL     1       2.154   8.123  18.116  0.00  0.00    +0.000 C 
ATOM     12  O   UNL     1       2.371   8.920  17.210  0.00  0.00    +0.000 OA
BRANCH  11  13
ATOM     13  C   UNL     1       1.481   8.611  19.370  0.00  0.00    +0.000 A 
ATOM     14  C   UNL     1       1.894   8.073  20.604  0.00  0.00    +0.000 A 
ATOM     15  C   UNL     1       1.269   8.448  21.787  0.00  0.00    +0.000 A 
ATOM     16  C   UNL     1       0.267   9.411  21.761  0.00  0.00    +0.000 A 
ATOM     17  C   UNL     1      -0.122  10.020  20.558  0.00  0.00    +0.000 A 
ATOM     18  C   UNL     1      -1.096  11.033  20.584  0.00  0.00    +0.000 A 
ATOM     19  C   UNL     1      -1.502  11.676  19.417  0.00  0.00    +0.000 A 
ATOM     20  C   UNL     1      -0.959  11.292  18.203  0.00  0.00    +0.000 A 
ATOM     21  C   UNL     1      -0.004  10.273  18.160  0.00  0.00    +0.000 A 
ATOM     22  C   UNL     1       0.469   9.622  19.330  0.00  0.00    +0.000 A 
ENDBRANCH  11  13
ENDBRANCH   4  11
BRANCH   1  23
ATOM     23  O   UNL     1       3.466   2.604  17.496  0.00  0.00    +0.000 OA
BRANCH  23  24
ATOM     24  C   UNL     1       3.207   1.774  18.631  0.00  0.00    +0.000 C 
BRANCH  24  26
ATOM     25  C   UNL     1       3.054   2.651  20.962  0.00  0.00    +0.000 C 
ATOM     26  C   UNL     1       4.001   2.248  19.842  0.00  0.00    +0.000 C 
ENDBRANCH  24  26
ENDBRANCH  23  24
ENDBRANCH   1  23
TORSDOF 5
ENDMDL
MODEL 7
REMARK VINA RESULT:      -7.1      1.896      4.006
REMARK  Name = 
REMARK  6 active torsions:
REMARK  status: ('A' for Active; 'I' for Inactive)
REMARK    1  A    between atoms: C_1  and  C_2
REMARK    2  A    between atoms: C_2  and  C_3
REMARK    3  A    between atoms: C_3  and  O_4
REMARK    4  A    between atoms: O_4  and  C_5
REMARK    5  A    between atoms: C_8  and  C_9
REMARK    6  A    between atoms: C_9  and  C_11
REMARK                            x       y       z     vdW  Elec       q    Type
REMARK                         _______ _______ _______ _____ _____    ______ ____
ROOT
ATOM      1  C   UNL     1       2.266   5.831  20.430  0.00  0.00    +0.000 A 
ATOM      2  C   UNL     1       1.358   6.736  20.984  0.00  0.00    +0.000 A 
ATOM      3  C   UNL     1       1.082   7.940  20.350  0.00  0.00    +0.000 A 
ATOM      4  C   UNL     1       1.763   8.313  19.186  0.00  0.00    +0.000 A 
ATOM      5  C   UNL     1       2.690   7.408  18.583  0.00  0.00    +0.000 A 
ATOM      6  C   UNL     1       3.404   7.677  17.387  0.00  0.00    +0.000 A 
ATOM      7  C   UNL     1       4.277   6.758  16.801  0.00  0.00    +0.000 A 
ATOM      8  C   UNL     1       4.487   5.536  17.411  0.00  0.00    +0.000 A 
ATOM      9  C   UNL     1       3.826   5.241  18.605  0.00  0.00    +0.000 A 
ATOM     10  C   UNL     1       2.927   6.150  19.214  0.00  0.00    +0.000 A 
ENDROOT
BRANCH   4  11
ATOM     11  C   UNL     1       1.441   9.656  18.591  0.00  0.00    +0.000 C 
ATOM     12  O   UNL     1       2.345  10.327  18.104  0.00  0.00    +0.000 OA
BRANCH  11  13
ATOM     13  C   UNL     1       0.037  10.194  18.560  0.00  0.00    +0.000 A 
ATOM     14  C   UNL     1      -0.826   9.753  17.539  0.00  0.00    +0.000 A 
ATOM     15  C   UNL     1      -2.116  10.259  17.431  0.00  0.00    +0.000 A 
ATOM     16  C   UNL     1      -2.582  11.164  18.377  0.00  0.00    +0.000 A 
ATOM     17  C   UNL     1      -1.774  11.574  19.448  0.00  0.00    +0.000 A 
ATOM     18  C   UNL     1      -2.303  12.444  20.416  0.00  0.00    +0.000 A 
ATOM     19  C   UNL     1      -1.543  12.864  21.505  0.00  0.00    +0.000 A 
ATOM     20  C   UNL     1      -0.229  12.442  21.623  0.00  0.00    +0.000 A 
ATOM     21  C   UNL     1       0.317  11.593  20.657  0.00  0.00    +0.000 A 
ATOM     22  C   UNL     1      -0.437  11.107  19.556  0.00  0.00    +0.000 A 
ENDBRANCH  11  13
ENDBRANCH   4  11
BRANCH   1  23
ATOM     23  O   UNL     1       2.551   4.609  21.013  0.00  0.00    +0.000 OA
BRANCH  23  24
ATOM     24  C   UNL     1       1.469   3.677  21.062  0.00  0.00    +0.000 C 
BRANCH  24  26
ATOM     25  C   UNL     1       0.864   2.639  18.875  0.00  0.00    +0.000 C 
ATOM     26  C   UNL     1       1.721   2.502  20.125  0.00  0.00    +0.000 C 
ENDBRANCH  24  26
ENDBRANCH  23  24
ENDBRANCH   1  23
TORSDOF 5
ENDMDL
MODEL 8
REMARK VINA RESULT:      -7.1      1.167      1.507
REMARK  Name = 
REMARK  6 active torsions:
REMARK  status: ('A' for Active; 'I' for Inactive)
REMARK    1  A    between atoms: C_1  and  C_2
REMARK    2  A    between atoms: C_2  and  C_3
REMARK    3  A    between atoms: C_3  and  O_4
REMARK    4  A    between atoms: O_4  and  C_5
REMARK    5  A    between atoms: C_8  and  C_9
REMARK    6  A    between atoms: C_9  and  C_11
REMARK                            x       y       z     vdW  Elec       q    Type
REMARK                         _______ _______ _______ _____ _____    ______ ____
ROOT
ATOM      1  C   UNL     1       1.143   9.054  19.400  0.00  0.00    +0.000 A 
ATOM      2  C   UNL     1       0.800   9.681  18.202  0.00  0.00    +0.000 A 
ATOM      3  C   UNL     1      -0.099  10.739  18.186  0.00  0.00    +0.000 A 
ATOM      4  C   UNL     1      -0.744  11.151  19.358  0.00  0.00    +0.000 A 
ATOM      5  C   UNL     1      -0.410  10.542  20.606  0.00  0.00    +0.000 A 
ATOM      6  C   UNL     1      -0.981  10.910  21.852  0.00  0.00    +0.000 A 
ATOM      7  C   UNL     1      -0.608  10.320  23.062  0.00  0.00    +0.000 A 
ATOM      8  C   UNL     1       0.341   9.316  23.065  0.00  0.00    +0.000 A 
ATOM      9  C   UNL     1       0.907   8.902  21.858  0.00  0.00    +0.000 A 
ATOM     10  C   UNL     1       0.556   9.490  20.618  0.00  0.00    +0.000 A 
ENDROOT
BRANCH   4  11
ATOM     11  C   UNL     1      -1.743  12.270  19.247  0.00  0.00    +0.000 C 
ATOM     12  O   UNL     1      -1.369  13.425  19.419  0.00  0.00    +0.000 OA
BRANCH  11  13
ATOM     13  C   UNL     1      -3.187  12.014  18.911  0.00  0.00    +0.000 A 
ATOM     14  C   UNL     1      -3.495  11.482  17.644  0.00  0.00    +0.000 A 
ATOM     15  C   UNL     1      -4.815  11.277  17.261  0.00  0.00    +0.000 A 
ATOM     16  C   UNL     1      -5.841  11.543  18.161  0.00  0.00    +0.000 A 
ATOM     17  C   UNL     1      -5.568  12.008  19.456  0.00  0.00    +0.000 A 
ATOM     18  C   UNL     1      -6.631  12.206  20.354  0.00  0.00    +0.000 A 
ATOM     19  C   UNL     1      -6.406  12.652  21.654  0.00  0.00    +0.000 A 
ATOM     20  C   UNL     1      -5.113  12.934  22.064  0.00  0.00    +0.000 A 
ATOM     21  C   UNL     1      -4.050  12.761  21.176  0.00  0.00    +0.000 A 
ATOM     22  C   UNL     1      -4.231  12.268  19.856  0.00  0.00    +0.000 A 
ENDBRANCH  11  13
ENDBRANCH   4  11
BRANCH   1  23
ATOM     23  O   UNL     1       2.055   8.015  19.466  0.00  0.00    +0.000 OA
BRANCH  23  24
ATOM     24  C   UNL     1       2.763   7.733  18.257  0.00  0.00    +0.000 C 
BRANCH  24  26
ATOM     25  C   UNL     1       2.212   5.303  18.387  0.00  0.00    +0.000 C 
ATOM     26  C   UNL     1       3.337   6.322  18.281  0.00  0.00    +0.000 C 
ENDBRANCH  24  26
ENDBRANCH  23  24
ENDBRANCH   1  23
TORSDOF 5
ENDMDL
MODEL 9
REMARK VINA RESULT:      -7.1      3.326      8.008
REMARK  Name = 
REMARK  6 active torsions:
REMARK  status: ('A' for Active; 'I' for Inactive)
REMARK    1  A    between atoms: C_1  and  C_2
REMARK    2  A    between atoms: C_2  and  C_3
REMARK    3  A    between atoms: C_3  and  O_4
REMARK    4  A    between atoms: O_4  and  C_5
REMARK    5  A    between atoms: C_8  and  C_9
REMARK    6  A    between atoms: C_9  and  C_11
REMARK                            x       y       z     vdW  Elec       q    Type
REMARK                         _______ _______ _______ _____ _____    ______ ____
ROOT
ATOM      1  C   UNL     1       1.385  10.432  18.731  0.00  0.00    +0.000 A 
ATOM      2  C   UNL     1       2.065   9.545  17.896  0.00  0.00    +0.000 A 
ATOM      3  C   UNL     1       2.276   8.228  18.282  0.00  0.00    +0.000 A 
ATOM      4  C   UNL     1       1.886   7.779  19.549  0.00  0.00    +0.000 A 
ATOM      5  C   UNL     1       1.177   8.654  20.427  0.00  0.00    +0.000 A 
ATOM      6  C   UNL     1       0.709   8.285  21.715  0.00  0.00    +0.000 A 
ATOM      7  C   UNL     1      -0.013   9.153  22.538  0.00  0.00    +0.000 A 
ATOM      8  C   UNL     1      -0.274  10.439  22.106  0.00  0.00    +0.000 A 
ATOM      9  C   UNL     1       0.193  10.853  20.857  0.00  0.00    +0.000 A 
ATOM     10  C   UNL     1       0.917   9.991  19.998  0.00  0.00    +0.000 A 
ENDROOT
BRANCH   4  11
ATOM     11  C   UNL     1       2.198   6.352  19.908  0.00  0.00    +0.000 C 
ATOM     12  O   UNL     1       2.105   5.995  21.078  0.00  0.00    +0.000 OA
BRANCH  11  13
ATOM     13  C   UNL     1       2.605   5.343  18.870  0.00  0.00    +0.000 A 
ATOM     14  C   UNL     1       1.595   4.607  18.220  0.00  0.00    +0.000 A 
ATOM     15  C   UNL     1       1.918   3.624  17.292  0.00  0.00    +0.000 A 
ATOM     16  C   UNL     1       3.249   3.407  16.955  0.00  0.00    +0.000 A 
ATOM     17  C   UNL     1       4.277   4.169  17.530  0.00  0.00    +0.000 A 
ATOM     18  C   UNL     1       5.603   3.958  17.116  0.00  0.00    +0.000 A 
ATOM     19  C   UNL     1       6.654   4.701  17.648  0.00  0.00    +0.000 A 
ATOM     20  C   UNL     1       6.393   5.648  18.625  0.00  0.00    +0.000 A 
ATOM     21  C   UNL     1       5.082   5.854  19.060  0.00  0.00    +0.000 A 
ATOM     22  C   UNL     1       3.978   5.148  18.513  0.00  0.00    +0.000 A 
ENDBRANCH  11  13
ENDBRANCH   4  11
BRANCH   1  23
ATOM     23  O   UNL     1       1.128  11.744  18.376  0.00  0.00    +0.000 OA
BRANCH  23  24
ATOM     24  C   UNL     1       2.270  12.600  18.289  0.00  0.00    +0.000 C 
BRANCH  24  26
ATOM     25  C   UNL     1       0.435  14.130  19.007  0.00  0.00    +0.000 C 
ATOM     26  C   UNL     1       1.883  14.050  18.546  0.00  0.00    +0.000 C 
ENDBRANCH  24  26
ENDBRANCH  23  24
ENDBRANCH   1  23
TORSDOF 5
ENDMDL
