MODEL 1
REMARK VINA RESULT:      -8.1      0.000      0.000
REMARK  Name = 
REMARK  4 active torsions:
REMARK  status: ('A' for Active; 'I' for Inactive)
REMARK    1  A    between atoms: C_1  and  C_2
REMARK    2  A    between atoms: C_3  and  C_4
REMARK    3  A    between atoms: C_4  and  N_5
REMARK    4  A    between atoms: N_5  and  C_6
REMARK                            x       y       z     vdW  Elec       q    Type
REMARK                         _______ _______ _______ _____ _____    ______ ____
ROOT
ATOM      1  C   UNL     1      -0.619  10.322  18.424  0.00  0.00    +0.000 C 
ATOM      2  C   UNL     1      -0.209  10.309  19.875  0.00  0.00    +0.000 A 
ATOM      3  C   UNL     1       0.728   9.368  20.339  0.00  0.00    +0.000 A 
ATOM      4  C   UNL     1       0.985   9.368  21.701  0.00  0.00    +0.000 A 
ATOM      5  N   UNL     1       0.450  10.235  22.580  0.00  0.00    +0.000 NA
ATOM      6  C   UNL     1      -0.383  11.177  22.154  0.00  0.00    +0.000 A 
ATOM      7  N   UNL     1      -0.814  12.006  23.090  0.00  0.00    +0.000 NA
ATOM      8  C   UNL     1      -1.634  12.982  22.735  0.00  0.00    +0.000 A 
ATOM      9  N   UNL     1      -2.059  13.852  23.718  0.00  0.00    +0.000 N 
ATOM     10  N   UNL     1      -2.089  13.175  21.506  0.00  0.00    +0.000 NA
ATOM     11  C   UNL     1      -1.639  12.342  20.561  0.00  0.00    +0.000 A 
ATOM     12  N   UNL     1      -2.120  12.662  19.287  0.00  0.00    +0.000 N 
ATOM     13  C   UNL     1      -0.755  11.272  20.808  0.00  0.00    +0.000 A 
ATOM     14  H   UNL     1      -1.985  13.409  24.624  0.00  0.00    +0.000 HD
ATOM     15  H   UNL     1      -2.948  14.259  23.468  0.00  0.00    +0.000 HD
ATOM     16  H   UNL     1      -2.725  13.474  19.409  0.00  0.00    +0.000 HD
ATOM     17  H   UNL     1      -1.356  12.896  18.663  0.00  0.00    +0.000 HD
ENDROOT
BRANCH   3  18
ATOM     18  C   UNL     1       1.494   8.404  19.472  0.00  0.00    +0.000 C 
BRANCH  18  19
ATOM     19  N   UNL     1       2.306   7.492  20.270  0.00  0.00    +0.000 N 
ATOM     20  H   UNL     1       2.130   7.583  21.269  0.00  0.00    +0.000 HD
BRANCH  19  21
ATOM     21  C   UNL     1       2.390   6.154  19.854  0.00  0.00    +0.000 A 
ATOM     22  C   UNL     1       3.065   5.757  18.693  0.00  0.00    +0.000 A 
ATOM     23  C   UNL     1       3.174   4.406  18.332  0.00  0.00    +0.000 A 
ATOM     24 CL   UNL     1       4.003   4.058  16.851  0.00  0.00    +0.000 Cl
ATOM     25  C   UNL     1       2.632   3.408  19.145  0.00  0.00    +0.000 A 
ATOM     26 CL   UNL     1       2.748   1.739  18.690  0.00  0.00    +0.000 Cl
ATOM     27  C   UNL     1       2.000   3.788  20.334  0.00  0.00    +0.000 A 
ATOM     28 CL   UNL     1       1.310   2.634  21.426  0.00  0.00    +0.000 Cl
ATOM     29  C   UNL     1       1.900   5.143  20.689  0.00  0.00    +0.000 A 
ENDBRANCH  19  21
ENDBRANCH  18  19
ENDBRANCH   3  18
TORSDOF 3
ENDMDL
MODEL 2
REMARK VINA RESULT:      -8.0      1.003      1.015
REMARK  Name = 
REMARK  4 active torsions:
REMARK  status: ('A' for Active; 'I' for Inactive)
REMARK    1  A    between atoms: C_1  and  C_2
REMARK    2  A    between atoms: C_3  and  C_4
REMARK    3  A    between atoms: C_4  and  N_5
REMARK    4  A    between atoms: N_5  and  C_6
REMARK                            x       y       z     vdW  Elec       q    Type
REMARK                         _______ _______ _______ _____ _____    ______ ____
ROOT
ATOM      1  C   UNL     1      -0.076  10.013  18.755  0.00  0.00    +0.000 C 
ATOM      2  C   UNL     1       0.066  10.013  20.257  0.00  0.00    +0.000 A 
ATOM      3  C   UNL     1       0.903   9.077  20.891  0.00  0.00    +0.000 A 
ATOM      4  C   UNL     1       0.911   9.090  22.276  0.00  0.00    +0.000 A 
ATOM      5  N   UNL     1       0.229   9.966  23.037  0.00  0.00    +0.000 NA
ATOM      6  C   UNL     1      -0.512  10.905  22.459  0.00  0.00    +0.000 A 
ATOM      7  N   UNL     1      -1.101  11.743  23.295  0.00  0.00    +0.000 NA
ATOM      8  C   UNL     1      -1.842  12.716  22.789  0.00  0.00    +0.000 A 
ATOM      9  N   UNL     1      -2.435  13.595  23.671  0.00  0.00    +0.000 N 
ATOM     10  N   UNL     1      -2.069  12.897  21.496  0.00  0.00    +0.000 NA
ATOM     11  C   UNL     1      -1.458  12.054  20.656  0.00  0.00    +0.000 A 
ATOM     12  N   UNL     1      -1.702  12.362  19.313  0.00  0.00    +0.000 N 
ATOM     13  C   UNL     1      -0.636  10.987  21.067  0.00  0.00    +0.000 A 
ATOM     14  H   UNL     1      -2.526  13.161  24.581  0.00  0.00    +0.000 HD
ATOM     15  H   UNL     1      -3.264  14.001  23.262  0.00  0.00    +0.000 HD
ATOM     16  H   UNL     1      -2.317  13.175  19.317  0.00  0.00    +0.000 HD
ATOM     17  H   UNL     1      -0.838  12.590  18.834  0.00  0.00    +0.000 HD
ENDROOT
BRANCH   3  18
ATOM     18  C   UNL     1       1.810   8.104  20.184  0.00  0.00    +0.000 C 
BRANCH  18  19
ATOM     19  N   UNL     1       1.833   6.808  20.854  0.00  0.00    +0.000 N 
ATOM     20  H   UNL     1       0.982   6.624  21.382  0.00  0.00    +0.000 HD
BRANCH  19  21
ATOM     21  C   UNL     1       2.262   5.695  20.113  0.00  0.00    +0.000 A 
ATOM     22  C   UNL     1       3.588   5.523  19.695  0.00  0.00    +0.000 A 
ATOM     23  C   UNL     1       3.996   4.375  19.001  0.00  0.00    +0.000 A 
ATOM     24 CL   UNL     1       5.656   4.308  18.510  0.00  0.00    +0.000 Cl
ATOM     25  C   UNL     1       3.088   3.348  18.732  0.00  0.00    +0.000 A 
ATOM     26 CL   UNL     1       3.585   1.937  17.855  0.00  0.00    +0.000 Cl
ATOM     27  C   UNL     1       1.773   3.485  19.189  0.00  0.00    +0.000 A 
ATOM     28 CL   UNL     1       0.570   2.267  18.927  0.00  0.00    +0.000 Cl
ATOM     29  C   UNL     1       1.375   4.637  19.887  0.00  0.00    +0.000 A 
ENDBRANCH  19  21
ENDBRANCH  18  19
ENDBRANCH   3  18
TORSDOF 3
ENDMDL
MODEL 3
REMARK VINA RESULT:      -7.9      4.477      8.758
REMARK  Name = 
REMARK  4 active torsions:
REMARK  status: ('A' for Active; 'I' for Inactive)
REMARK    1  A    between atoms: C_1  and  C_2
REMARK    2  A    between atoms: C_3  and  C_4
REMARK    3  A    between atoms: C_4  and  N_5
REMARK    4  A    between atoms: N_5  and  C_6
REMARK                            x       y       z     vdW  Elec       q    Type
REMARK                         _______ _______ _______ _____ _____    ______ ____
ROOT
ATOM      1  C   UNL     1       1.678   5.688  20.682  0.00  0.00    +0.000 C 
ATOM      2  C   UNL     1       2.399   6.285  19.500  0.00  0.00    +0.000 A 
ATOM      3  C   UNL     1       2.205   7.636  19.158  0.00  0.00    +0.000 A 
ATOM      4  C   UNL     1       2.836   8.083  18.009  0.00  0.00    +0.000 A 
ATOM      5  N   UNL     1       3.658   7.336  17.248  0.00  0.00    +0.000 NA
ATOM      6  C   UNL     1       3.912   6.078  17.590  0.00  0.00    +0.000 A 
ATOM      7  N   UNL     1       4.768   5.448  16.803  0.00  0.00    +0.000 NA
ATOM      8  C   UNL     1       5.084   4.197  17.094  0.00  0.00    +0.000 A 
ATOM      9  N   UNL     1       5.993   3.558  16.277  0.00  0.00    +0.000 N 
ATOM     10  N   UNL     1       4.576   3.506  18.104  0.00  0.00    +0.000 NA
ATOM     11  C   UNL     1       3.721   4.153  18.904  0.00  0.00    +0.000 A 
ATOM     12  N   UNL     1       3.290   3.368  19.979  0.00  0.00    +0.000 N 
ATOM     13  C   UNL     1       3.315   5.488  18.711  0.00  0.00    +0.000 A 
ATOM     14  H   UNL     1       6.010   4.002  15.368  0.00  0.00    +0.000 HD
ATOM     15  H   UNL     1       5.853   2.559  16.306  0.00  0.00    +0.000 HD
ATOM     16  H   UNL     1       3.745   2.462  19.868  0.00  0.00    +0.000 HD
ATOM     17  H   UNL     1       3.567   3.783  20.861  0.00  0.00    +0.000 HD
ENDROOT
BRANCH   3  18
ATOM     18  C   UNL     1       1.407   8.629  19.962  0.00  0.00    +0.000 C 
BRANCH  18  19
ATOM     19  N   UNL     1       1.234   9.887  19.243  0.00  0.00    +0.000 N 
ATOM     20  H   UNL     1       1.855   9.968  18.439  0.00  0.00    +0.000 HD
BRANCH  19  21
ATOM     21  C   UNL     1      -0.075  10.305  18.960  0.00  0.00    +0.000 A 
ATOM     22  C   UNL     1      -0.767  11.234  19.749  0.00  0.00    +0.000 A 
ATOM     23  C   UNL     1      -2.056  11.670  19.411  0.00  0.00    +0.000 A 
ATOM     24 CL   UNL     1      -2.811  12.791  20.494  0.00  0.00    +0.000 Cl
ATOM     25  C   UNL     1      -2.679  11.209  18.248  0.00  0.00    +0.000 A 
ATOM     26 CL   UNL     1      -4.281  11.731  17.838  0.00  0.00    +0.000 Cl
ATOM     27  C   UNL     1      -1.979  10.321  17.425  0.00  0.00    +0.000 A 
ATOM     28 CL   UNL     1      -2.648   9.700  15.953  0.00  0.00    +0.000 Cl
ATOM     29  C   UNL     1      -0.687   9.893  17.771  0.00  0.00    +0.000 A 
ENDBRANCH  19  21
ENDBRANCH  18  19
ENDBRANCH   3  18
TORSDOF 3
ENDMDL
MODEL 4
REMARK VINA RESULT:      -7.9      4.432      8.651
REMARK  Name = 
REMARK  4 active torsions:
REMARK  status: ('A' for Active; 'I' for Inactive)
REMARK    1  A    between atoms: C_1  and  C_2
REMARK    2  A    between atoms: C_3  and  C_4
REMARK    3  A    between atoms: C_4  and  N_5
REMARK    4  A    between atoms: N_5  and  C_6
REMARK                            x       y       z     vdW  Elec       q    Type
REMARK                         _______ _______ _______ _____ _____    ______ ____
ROOT
ATOM      1  C   UNL     1       3.035   4.471  20.443  0.00  0.00    +0.000 C 
ATOM      2  C   UNL     1       3.282   5.569  19.440  0.00  0.00    +0.000 A 
ATOM      3  C   UNL     1       2.494   6.734  19.454  0.00  0.00    +0.000 A 
ATOM      4  C   UNL     1       2.729   7.655  18.446  0.00  0.00    +0.000 A 
ATOM      5  N   UNL     1       3.689   7.536  17.509  0.00  0.00    +0.000 NA
ATOM      6  C   UNL     1       4.492   6.478  17.520  0.00  0.00    +0.000 A 
ATOM      7  N   UNL     1       5.430   6.482  16.587  0.00  0.00    +0.000 NA
ATOM      8  C   UNL     1       6.280   5.468  16.548  0.00  0.00    +0.000 A 
ATOM      9  N   UNL     1       7.265   5.494  15.583  0.00  0.00    +0.000 N 
ATOM     10  N   UNL     1       6.242   4.420  17.358  0.00  0.00    +0.000 NA
ATOM     11  C   UNL     1       5.299   4.430  18.308  0.00  0.00    +0.000 A 
ATOM     12  N   UNL     1       5.378   3.319  19.155  0.00  0.00    +0.000 N 
ATOM     13  C   UNL     1       4.345   5.454  18.463  0.00  0.00    +0.000 A 
ATOM     14  H   UNL     1       6.980   6.088  14.816  0.00  0.00    +0.000 HD
ATOM     15  H   UNL     1       7.567   4.557  15.361  0.00  0.00    +0.000 HD
ATOM     16  H   UNL     1       6.156   2.757  18.812  0.00  0.00    +0.000 HD
ATOM     17  H   UNL     1       5.559   3.608  20.110  0.00  0.00    +0.000 HD
ENDROOT
BRANCH   3  18
ATOM     18  C   UNL     1       1.456   7.069  20.493  0.00  0.00    +0.000 C 
BRANCH  18  19
ATOM     19  N   UNL     1       1.693   8.382  21.084  0.00  0.00    +0.000 N 
ATOM     20  H   UNL     1       2.650   8.704  20.954  0.00  0.00    +0.000 HD
BRANCH  19  21
ATOM     21  C   UNL     1       0.744   9.388  20.845  0.00  0.00    +0.000 A 
ATOM     22  C   UNL     1       0.150   9.593  19.593  0.00  0.00    +0.000 A 
ATOM     23  C   UNL     1      -0.832  10.575  19.398  0.00  0.00    +0.000 A 
ATOM     24 CL   UNL     1      -1.457  10.747  17.792  0.00  0.00    +0.000 Cl
ATOM     25  C   UNL     1      -1.271  11.362  20.466  0.00  0.00    +0.000 A 
ATOM     26 CL   UNL     1      -2.471  12.591  20.223  0.00  0.00    +0.000 Cl
ATOM     27  C   UNL     1      -0.722  11.132  21.732  0.00  0.00    +0.000 A 
ATOM     28 CL   UNL     1      -1.204  12.037  23.128  0.00  0.00    +0.000 Cl
ATOM     29  C   UNL     1       0.259  10.144  21.917  0.00  0.00    +0.000 A 
ENDBRANCH  19  21
ENDBRANCH  18  19
ENDBRANCH   3  18
TORSDOF 3
ENDMDL
MODEL 5
REMARK VINA RESULT:      -7.9      4.428      8.787
REMARK  Name = 
REMARK  4 active torsions:
REMARK  status: ('A' for Active; 'I' for Inactive)
REMARK    1  A    between atoms: C_1  and  C_2
REMARK    2  A    between atoms: C_3  and  C_4
REMARK    3  A    between atoms: C_4  and  N_5
REMARK    4  A    between atoms: N_5  and  C_6
REMARK                            x       y       z     vdW  Elec       q    Type
REMARK                         _______ _______ _______ _____ _____    ______ ____
ROOT
ATOM      1  C   UNL     1       2.939   4.488  20.528  0.00  0.00    +0.000 C 
ATOM      2  C   UNL     1       3.213   5.584  19.530  0.00  0.00    +0.000 A 
ATOM      3  C   UNL     1       2.439   6.759  19.535  0.00  0.00    +0.000 A 
ATOM      4  C   UNL     1       2.698   7.678  18.531  0.00  0.00    +0.000 A 
ATOM      5  N   UNL     1       3.668   7.548  17.607  0.00  0.00    +0.000 NA
ATOM      6  C   UNL     1       4.458   6.480  17.626  0.00  0.00    +0.000 A 
ATOM      7  N   UNL     1       5.407   6.473  16.705  0.00  0.00    +0.000 NA
ATOM      8  C   UNL     1       6.244   5.449  16.675  0.00  0.00    +0.000 A 
ATOM      9  N   UNL     1       7.242   5.464  15.723  0.00  0.00    +0.000 N 
ATOM     10  N   UNL     1       6.183   4.401  17.483  0.00  0.00    +0.000 NA
ATOM     11  C   UNL     1       5.229   4.421  18.421  0.00  0.00    +0.000 A 
ATOM     12  N   UNL     1       5.283   3.309  19.268  0.00  0.00    +0.000 N 
ATOM     13  C   UNL     1       4.286   5.458  18.566  0.00  0.00    +0.000 A 
ATOM     14  H   UNL     1       6.974   6.062  14.952  0.00  0.00    +0.000 HD
ATOM     15  H   UNL     1       7.535   4.524  15.503  0.00  0.00    +0.000 HD
ATOM     16  H   UNL     1       6.059   2.738  18.934  0.00  0.00    +0.000 HD
ATOM     17  H   UNL     1       5.457   3.594  20.225  0.00  0.00    +0.000 HD
ENDROOT
BRANCH   3  18
ATOM     18  C   UNL     1       1.392   7.105  20.562  0.00  0.00    +0.000 C 
BRANCH  18  19
ATOM     19  N   UNL     1       1.616   8.430  21.130  0.00  0.00    +0.000 N 
ATOM     20  H   UNL     1       2.548   8.790  20.932  0.00  0.00    +0.000 HD
BRANCH  19  21
ATOM     21  C   UNL     1       0.613   9.396  20.954  0.00  0.00    +0.000 A 
ATOM     22  C   UNL     1       0.178  10.241  21.983  0.00  0.00    +0.000 A 
ATOM     23  C   UNL     1      -0.790  11.231  21.762  0.00  0.00    +0.000 A 
ATOM     24 CL   UNL     1      -1.264  12.180  23.131  0.00  0.00    +0.000 Cl
ATOM     25  C   UNL     1      -1.330  11.424  20.488  0.00  0.00    +0.000 A 
ATOM     26 CL   UNL     1      -2.542  12.633  20.216  0.00  0.00    +0.000 Cl
ATOM     27  C   UNL     1      -0.866  10.621  19.440  0.00  0.00    +0.000 A 
ATOM     28 CL   UNL     1      -1.453  10.785  17.819  0.00  0.00    +0.000 Cl
ATOM     29  C   UNL     1       0.106   9.634  19.672  0.00  0.00    +0.000 A 
ENDBRANCH  19  21
ENDBRANCH  18  19
ENDBRANCH   3  18
TORSDOF 3
ENDMDL
MODEL 6
REMARK VINA RESULT:      -7.9      0.165      1.869
REMARK  Name = 
REMARK  4 active torsions:
REMARK  status: ('A' for Active; 'I' for Inactive)
REMARK    1  A    between atoms: C_1  and  C_2
REMARK    2  A    between atoms: C_3  and  C_4
REMARK    3  A    between atoms: C_4  and  N_5
REMARK    4  A    between atoms: N_5  and  C_6
REMARK                            x       y       z     vdW  Elec       q    Type
REMARK                         _______ _______ _______ _____ _____    ______ ____
ROOT
ATOM      1  C   UNL     1      -0.435  10.356  18.453  0.00  0.00    +0.000 C 
ATOM      2  C   UNL     1      -0.106  10.322  19.924  0.00  0.00    +0.000 A 
ATOM      3  C   UNL     1       0.750   9.331  20.437  0.00  0.00    +0.000 A 
ATOM      4  C   UNL     1       0.932   9.318  21.810  0.00  0.00    +0.000 A 
ATOM      5  N   UNL     1       0.400  10.214  22.661  0.00  0.00    +0.000 NA
ATOM      6  C   UNL     1      -0.355  11.202  22.192  0.00  0.00    +0.000 A 
ATOM      7  N   UNL     1      -0.788  12.054  23.105  0.00  0.00    +0.000 NA
ATOM      8  C   UNL     1      -1.531  13.075  22.708  0.00  0.00    +0.000 A 
ATOM      9  N   UNL     1      -1.960  13.968  23.667  0.00  0.00    +0.000 N 
ATOM     10  N   UNL     1      -1.908  13.291  21.456  0.00  0.00    +0.000 NA
ATOM     11  C   UNL     1      -1.454  12.433  20.536  0.00  0.00    +0.000 A 
ATOM     12  N   UNL     1      -1.847  12.778  19.238  0.00  0.00    +0.000 N 
ATOM     13  C   UNL     1      -0.647  11.316  20.828  0.00  0.00    +0.000 A 
ATOM     14  H   UNL     1      -1.961  13.523  24.576  0.00  0.00    +0.000 HD
ATOM     15  H   UNL     1      -2.810  14.424  23.371  0.00  0.00    +0.000 HD
ATOM     16  H   UNL     1      -2.411  13.623  19.329  0.00  0.00    +0.000 HD
ATOM     17  H   UNL     1      -1.038  12.968  18.657  0.00  0.00    +0.000 HD
ENDROOT
BRANCH   3  18
ATOM     18  C   UNL     1       1.507   8.324  19.610  0.00  0.00    +0.000 C 
BRANCH  18  19
ATOM     19  N   UNL     1       2.326   7.451  20.445  0.00  0.00    +0.000 N 
ATOM     20  H   UNL     1       2.111   7.542  21.437  0.00  0.00    +0.000 HD
BRANCH  19  21
ATOM     21  C   UNL     1       2.476   6.114  20.045  0.00  0.00    +0.000 A 
ATOM     22  C   UNL     1       1.910   5.040  20.744  0.00  0.00    +0.000 A 
ATOM     23  C   UNL     1       2.035   3.719  20.290  0.00  0.00    +0.000 A 
ATOM     24 CL   UNL     1       1.320   2.484  21.272  0.00  0.00    +0.000 Cl
ATOM     25  C   UNL     1       2.708   3.440  19.098  0.00  0.00    +0.000 A 
ATOM     26 CL   UNL     1       2.881   1.806  18.544  0.00  0.00    +0.000 Cl
ATOM     27  C   UNL     1       3.233   4.508  18.363  0.00  0.00    +0.000 A 
ATOM     28 CL   UNL     1       4.069   4.278  16.863  0.00  0.00    +0.000 Cl
ATOM     29  C   UNL     1       3.099   5.828  18.825  0.00  0.00    +0.000 A 
ENDBRANCH  19  21
ENDBRANCH  18  19
ENDBRANCH   3  18
TORSDOF 3
ENDMDL
MODEL 7
REMARK VINA RESULT:      -7.9      4.475      8.622
REMARK  Name = 
REMARK  4 active torsions:
REMARK  status: ('A' for Active; 'I' for Inactive)
REMARK    1  A    between atoms: C_1  and  C_2
REMARK    2  A    between atoms: C_3  and  C_4
REMARK    3  A    between atoms: C_4  and  N_5
REMARK    4  A    between atoms: N_5  and  C_6
REMARK                            x       y       z     vdW  Elec       q    Type
REMARK                         _______ _______ _______ _____ _____    ______ ____
ROOT
ATOM      1  C   UNL     1       1.658   5.788  20.683  0.00  0.00    +0.000 C 
ATOM      2  C   UNL     1       2.378   6.382  19.499  0.00  0.00    +0.000 A 
ATOM      3  C   UNL     1       2.159   7.723  19.134  0.00  0.00    +0.000 A 
ATOM      4  C   UNL     1       2.793   8.165  17.984  0.00  0.00    +0.000 A 
ATOM      5  N   UNL     1       3.638   7.424  17.243  0.00  0.00    +0.000 NA
ATOM      6  C   UNL     1       3.915   6.177  17.608  0.00  0.00    +0.000 A 
ATOM      7  N   UNL     1       4.792   5.554  16.839  0.00  0.00    +0.000 NA
ATOM      8  C   UNL     1       5.131   4.314  17.152  0.00  0.00    +0.000 A 
ATOM      9  N   UNL     1       6.062   3.682  16.354  0.00  0.00    +0.000 N 
ATOM     10  N   UNL     1       4.628   3.628  18.169  0.00  0.00    +0.000 NA
ATOM     11  C   UNL     1       3.752   4.270  18.950  0.00  0.00    +0.000 A 
ATOM     12  N   UNL     1       3.326   3.492  20.032  0.00  0.00    +0.000 N 
ATOM     13  C   UNL     1       3.319   5.593  18.731  0.00  0.00    +0.000 A 
ATOM     14  H   UNL     1       6.078   4.112  15.439  0.00  0.00    +0.000 HD
ATOM     15  H   UNL     1       5.943   2.681  16.398  0.00  0.00    +0.000 HD
ATOM     16  H   UNL     1       3.801   2.595  19.940  0.00  0.00    +0.000 HD
ATOM     17  H   UNL     1       3.585   3.927  20.911  0.00  0.00    +0.000 HD
ENDROOT
BRANCH   3  18
ATOM     18  C   UNL     1       1.333   8.711  19.914  0.00  0.00    +0.000 C 
BRANCH  18  19
ATOM     19  N   UNL     1       1.214   9.985  19.212  0.00  0.00    +0.000 N 
ATOM     20  H   UNL     1       1.895  10.083  18.460  0.00  0.00    +0.000 HD
BRANCH  19  21
ATOM     21  C   UNL     1      -0.070  10.411  18.840  0.00  0.00    +0.000 A 
ATOM     22  C   UNL     1      -0.742   9.914  17.716  0.00  0.00    +0.000 A 
ATOM     23  C   UNL     1      -2.046  10.323  17.399  0.00  0.00    +0.000 A 
ATOM     24 CL   UNL     1      -2.745   9.658  15.960  0.00  0.00    +0.000 Cl
ATOM     25  C   UNL     1      -2.728  11.222  18.222  0.00  0.00    +0.000 A 
ATOM     26 CL   UNL     1      -4.332  11.744  17.822  0.00  0.00    +0.000 Cl
ATOM     27  C   UNL     1      -2.086  11.686  19.376  0.00  0.00    +0.000 A 
ATOM     28 CL   UNL     1      -2.844  12.789  20.476  0.00  0.00    +0.000 Cl
ATOM     29  C   UNL     1      -0.782  11.268  19.686  0.00  0.00    +0.000 A 
ENDBRANCH  19  21
ENDBRANCH  18  19
ENDBRANCH   3  18
TORSDOF 3
ENDMDL
MODEL 8
REMARK VINA RESULT:      -7.8      1.229      2.196
REMARK  Name = 
REMARK  4 active torsions:
REMARK  status: ('A' for Active; 'I' for Inactive)
REMARK    1  A    between atoms: C_1  and  C_2
REMARK    2  A    between atoms: C_3  and  C_4
REMARK    3  A    between atoms: C_4  and  N_5
REMARK    4  A    between atoms: N_5  and  C_6
REMARK                            x       y       z     vdW  Elec       q    Type
REMARK                         _______ _______ _______ _____ _____    ______ ____
ROOT
ATOM      1  C   UNL     1      -0.118   9.749  23.084  0.00  0.00    +0.000 C 
ATOM      2  C   UNL     1       0.110  10.162  21.651  0.00  0.00    +0.000 A 
ATOM      3  C   UNL     1       0.709   9.270  20.743  0.00  0.00    +0.000 A 
ATOM      4  C   UNL     1       0.961   9.757  19.470  0.00  0.00    +0.000 A 
ATOM      5  N   UNL     1       0.618  10.985  19.039  0.00  0.00    +0.000 NA
ATOM      6  C   UNL     1      -0.012  11.819  19.858  0.00  0.00    +0.000 A 
ATOM      7  N   UNL     1      -0.346  12.981  19.322  0.00  0.00    +0.000 NA
ATOM      8  C   UNL     1      -0.993  13.857  20.074  0.00  0.00    +0.000 A 
ATOM      9  N   UNL     1      -1.353  15.056  19.496  0.00  0.00    +0.000 N 
ATOM     10  N   UNL     1      -1.307  13.671  21.348  0.00  0.00    +0.000 NA
ATOM     11  C   UNL     1      -0.979  12.488  21.880  0.00  0.00    +0.000 A 
ATOM     12  N   UNL     1      -1.407  12.357  23.205  0.00  0.00    +0.000 N 
ATOM     13  C   UNL     1      -0.301  11.469  21.182  0.00  0.00    +0.000 A 
ATOM     14  H   UNL     1      -0.755  15.249  18.703  0.00  0.00    +0.000 HD
ATOM     15  H   UNL     1      -1.441  15.775  20.200  0.00  0.00    +0.000 HD
ATOM     16  H   UNL     1      -1.868  13.235  23.441  0.00  0.00    +0.000 HD
ATOM     17  H   UNL     1      -2.065  11.591  23.296  0.00  0.00    +0.000 HD
ENDROOT
BRANCH   3  18
ATOM     18  C   UNL     1       1.053   7.833  21.035  0.00  0.00    +0.000 C 
BRANCH  18  19
ATOM     19  N   UNL     1       2.268   7.420  20.340  0.00  0.00    +0.000 N 
ATOM     20  H   UNL     1       3.114   7.744  20.804  0.00  0.00    +0.000 HD
BRANCH  19  21
ATOM     21  C   UNL     1       2.359   6.084  19.918  0.00  0.00    +0.000 A 
ATOM     22  C   UNL     1       3.008   5.700  18.738  0.00  0.00    +0.000 A 
ATOM     23  C   UNL     1       3.127   4.352  18.369  0.00  0.00    +0.000 A 
ATOM     24 CL   UNL     1       3.921   4.020  16.867  0.00  0.00    +0.000 Cl
ATOM     25  C   UNL     1       2.622   3.344  19.194  0.00  0.00    +0.000 A 
ATOM     26 CL   UNL     1       2.749   1.678  18.732  0.00  0.00    +0.000 Cl
ATOM     27  C   UNL     1       2.016   3.712  20.401  0.00  0.00    +0.000 A 
ATOM     28 CL   UNL     1       1.372   2.545  21.507  0.00  0.00    +0.000 Cl
ATOM     29  C   UNL     1       1.906   5.064  20.762  0.00  0.00    +0.000 A 
ENDBRANCH  19  21
ENDBRANCH  18  19
ENDBRANCH   3  18
TORSDOF 3
ENDMDL
MODEL 9
REMARK VINA RESULT:      -7.7      4.540      8.840
REMARK  Name = 
REMARK  4 active torsions:
REMARK  status: ('A' for Active; 'I' for Inactive)
REMARK    1  A    between atoms: C_1  and  C_2
REMARK    2  A    between atoms: C_3  and  C_4
REMARK    3  A    between atoms: C_4  and  N_5
REMARK    4  A    between atoms: N_5  and  C_6
REMARK                            x       y       z     vdW  Elec       q    Type
REMARK                         _______ _______ _______ _____ _____    ______ ____
ROOT
ATOM      1  C   UNL     1       2.547   3.897  18.663  0.00  0.00    +0.000 C 
ATOM      2  C   UNL     1       3.194   5.143  18.114  0.00  0.00    +0.000 A 
ATOM      3  C   UNL     1       2.746   6.413  18.521  0.00  0.00    +0.000 A 
ATOM      4  C   UNL     1       3.336   7.506  17.906  0.00  0.00    +0.000 A 
ATOM      5  N   UNL     1       4.333   7.431  17.005  0.00  0.00    +0.000 NA
ATOM      6  C   UNL     1       4.821   6.244  16.659  0.00  0.00    +0.000 A 
ATOM      7  N   UNL     1       5.829   6.285  15.805  0.00  0.00    +0.000 NA
ATOM      8  C   UNL     1       6.378   5.141  15.427  0.00  0.00    +0.000 A 
ATOM      9  N   UNL     1       7.443   5.198  14.552  0.00  0.00    +0.000 N 
ATOM     10  N   UNL     1       5.968   3.943  15.818  0.00  0.00    +0.000 NA
ATOM     11  C   UNL     1       4.956   3.910  16.692  0.00  0.00    +0.000 A 
ATOM     12  N   UNL     1       4.636   2.610  17.097  0.00  0.00    +0.000 N 
ATOM     13  C   UNL     1       4.296   5.056  17.179  0.00  0.00    +0.000 A 
ATOM     14  H   UNL     1       7.418   6.068  14.037  0.00  0.00    +0.000 HD
ATOM     15  H   UNL     1       7.509   4.343  14.021  0.00  0.00    +0.000 HD
ATOM     16  H   UNL     1       5.273   1.993  16.593  0.00  0.00    +0.000 HD
ATOM     17  H   UNL     1       4.773   2.501  18.095  0.00  0.00    +0.000 HD
ENDROOT
BRANCH   3  18
ATOM     18  C   UNL     1       1.719   6.670  19.593  0.00  0.00    +0.000 C 
BRANCH  18  19
ATOM     19  N   UNL     1       2.081   7.817  20.420  0.00  0.00    +0.000 N 
ATOM     20  H   UNL     1       3.035   8.133  20.256  0.00  0.00    +0.000 HD
BRANCH  19  21
ATOM     21  C   UNL     1       1.166   8.877  20.506  0.00  0.00    +0.000 A 
ATOM     22  C   UNL     1       0.737   9.607  19.390  0.00  0.00    +0.000 A 
ATOM     23  C   UNL     1      -0.217  10.629  19.501  0.00  0.00    +0.000 A 
ATOM     24 CL   UNL     1      -0.629  11.476  18.048  0.00  0.00    +0.000 Cl
ATOM     25  C   UNL     1      -0.795  10.928  20.738  0.00  0.00    +0.000 A 
ATOM     26 CL   UNL     1      -1.960  12.204  20.883  0.00  0.00    +0.000 Cl
ATOM     27  C   UNL     1      -0.413  10.172  21.852  0.00  0.00    +0.000 A 
ATOM     28 CL   UNL     1      -1.078  10.445  23.428  0.00  0.00    +0.000 Cl
ATOM     29  C   UNL     1       0.541   9.149  21.728  0.00  0.00    +0.000 A 
ENDBRANCH  19  21
ENDBRANCH  18  19
ENDBRANCH   3  18
TORSDOF 3
ENDMDL
