MODEL 1
REMARK VINA RESULT:      -5.9      0.000      0.000
REMARK  Name = 
REMARK  9 active torsions:
REMARK  status: ('A' for Active; 'I' for Inactive)
REMARK    1  A    between atoms: C_1  and  C_2
REMARK    2  A    between atoms: C_2  and  C_3
REMARK    3  A    between atoms: C_3  and  N_4
REMARK    4  A    between atoms: C_3  and  C_5
REMARK    5  A    between atoms: C_5  and  C_6
REMARK    6  A    between atoms: C_8  and  O_9
REMARK    7  A    between atoms: O_9  and  C_10
REMARK    8  A    between atoms: C_13  and  O_14
REMARK    9  A    between atoms: O_14  and  C_15
REMARK                            x       y       z     vdW  Elec       q    Type
REMARK                         _______ _______ _______ _____ _____    ______ ____
ROOT
ATOM      1  C   UNL     1       5.542   4.862  16.100  0.00  0.00    +0.000 A 
ATOM      2  C   UNL     1       4.630   3.966  16.722  0.00  0.00    +0.000 A 
ATOM      3  C   UNL     1       4.587   3.757  18.102  0.00  0.00    +0.000 A 
ATOM      4  C   UNL     1       5.454   4.476  18.905  0.00  0.00    +0.000 A 
ATOM      5  C   UNL     1       6.337   5.384  18.320  0.00  0.00    +0.000 A 
ATOM      6  C   UNL     1       6.404   5.592  16.930  0.00  0.00    +0.000 A 
ENDROOT
BRANCH   3   7
ATOM      7  O   UNL     1       3.670   2.836  18.515  0.00  0.00    +0.000 OA
ATOM      8  C   UNL     1       2.560   2.607  17.656  0.00  0.00    +0.000 C 
ENDBRANCH   3   7
BRANCH   6   9
ATOM      9  O   UNL     1       7.367   6.514  16.641  0.00  0.00    +0.000 OA
ATOM     10  C   UNL     1       7.652   7.601  17.494  0.00  0.00    +0.000 C 
ENDBRANCH   6   9
BRANCH   1  11
ATOM     11  C   UNL     1       5.508   4.855  14.584  0.00  0.00    +0.000 C 
BRANCH  11  12
ATOM     12  C   UNL     1       6.826   4.354  13.936  0.00  0.00    +0.000 C 
BRANCH  12  13
ATOM     13  N   UNL     1       7.748   5.491  13.764  0.00  0.00    +0.000 NA
ATOM     14  H   UNL     1       8.604   5.315  14.285  0.00  0.00    +0.000 HD
ATOM     15  H   UNL     1       7.337   6.325  14.175  0.00  0.00    +0.000 HD
ENDBRANCH  12  13
BRANCH  12  17
ATOM     16  C   UNL     1       5.099   3.491  12.241  0.00  0.00    +0.000 C 
ATOM     17  C   UNL     1       6.567   3.650  12.588  0.00  0.00    +0.000 C 
ENDBRANCH  12  17
ENDBRANCH  11  12
ENDBRANCH   1  11
TORSDOF 6
ENDMDL
MODEL 2
REMARK VINA RESULT:      -5.9      2.476      3.056
REMARK  Name = 
REMARK  9 active torsions:
REMARK  status: ('A' for Active; 'I' for Inactive)
REMARK    1  A    between atoms: C_1  and  C_2
REMARK    2  A    between atoms: C_2  and  C_3
REMARK    3  A    between atoms: C_3  and  N_4
REMARK    4  A    between atoms: C_3  and  C_5
REMARK    5  A    between atoms: C_5  and  C_6
REMARK    6  A    between atoms: C_8  and  O_9
REMARK    7  A    between atoms: O_9  and  C_10
REMARK    8  A    between atoms: C_13  and  O_14
REMARK    9  A    between atoms: O_14  and  C_15
REMARK                            x       y       z     vdW  Elec       q    Type
REMARK                         _______ _______ _______ _____ _____    ______ ____
ROOT
ATOM      1  C   UNL     1       4.497   5.370  17.415  0.00  0.00    +0.000 A 
ATOM      2  C   UNL     1       4.134   3.995  17.408  0.00  0.00    +0.000 A 
ATOM      3  C   UNL     1       2.844   3.545  17.692  0.00  0.00    +0.000 A 
ATOM      4  C   UNL     1       1.863   4.482  17.966  0.00  0.00    +0.000 A 
ATOM      5  C   UNL     1       2.188   5.839  17.949  0.00  0.00    +0.000 A 
ATOM      6  C   UNL     1       3.488   6.307  17.681  0.00  0.00    +0.000 A 
ENDROOT
BRANCH   3   7
ATOM      7  O   UNL     1       2.690   2.190  17.671  0.00  0.00    +0.000 OA
ATOM      8  C   UNL     1       3.571   1.433  18.490  0.00  0.00    +0.000 C 
ENDBRANCH   3   7
BRANCH   6   9
ATOM      9  O   UNL     1       3.519   7.668  17.751  0.00  0.00    +0.000 OA
ATOM     10  C   UNL     1       2.358   8.440  17.970  0.00  0.00    +0.000 C 
ENDBRANCH   6   9
BRANCH   1  11
ATOM     11  C   UNL     1       5.973   5.641  17.197  0.00  0.00    +0.000 C 
BRANCH  11  12
ATOM     12  C   UNL     1       6.731   4.456  16.543  0.00  0.00    +0.000 C 
BRANCH  12  13
ATOM     13  N   UNL     1       7.984   4.213  17.279  0.00  0.00    +0.000 NA
ATOM     14  H   UNL     1       8.504   3.463  16.828  0.00  0.00    +0.000 HD
ATOM     15  H   UNL     1       7.768   3.879  18.215  0.00  0.00    +0.000 HD
ENDBRANCH  12  13
BRANCH  12  17
ATOM     16  C   UNL     1       5.960   4.164  14.110  0.00  0.00    +0.000 C 
ATOM     17  C   UNL     1       7.015   4.716  15.049  0.00  0.00    +0.000 C 
ENDBRANCH  12  17
ENDBRANCH  11  12
ENDBRANCH   1  11
TORSDOF 6
ENDMDL
MODEL 3
REMARK VINA RESULT:      -5.9      2.735      5.245
REMARK  Name = 
REMARK  9 active torsions:
REMARK  status: ('A' for Active; 'I' for Inactive)
REMARK    1  A    between atoms: C_1  and  C_2
REMARK    2  A    between atoms: C_2  and  C_3
REMARK    3  A    between atoms: C_3  and  N_4
REMARK    4  A    between atoms: C_3  and  C_5
REMARK    5  A    between atoms: C_5  and  C_6
REMARK    6  A    between atoms: C_8  and  O_9
REMARK    7  A    between atoms: O_9  and  C_10
REMARK    8  A    between atoms: C_13  and  O_14
REMARK    9  A    between atoms: O_14  and  C_15
REMARK                            x       y       z     vdW  Elec       q    Type
REMARK                         _______ _______ _______ _____ _____    ______ ____
ROOT
ATOM      1  C   UNL     1       3.738   4.331  17.238  0.00  0.00    +0.000 A 
ATOM      2  C   UNL     1       4.891   4.420  16.410  0.00  0.00    +0.000 A 
ATOM      3  C   UNL     1       5.545   5.623  16.140  0.00  0.00    +0.000 A 
ATOM      4  C   UNL     1       5.068   6.781  16.729  0.00  0.00    +0.000 A 
ATOM      5  C   UNL     1       3.956   6.714  17.570  0.00  0.00    +0.000 A 
ATOM      6  C   UNL     1       3.276   5.511  17.837  0.00  0.00    +0.000 A 
ENDROOT
BRANCH   3   7
ATOM      7  O   UNL     1       6.613   5.520  15.298  0.00  0.00    +0.000 OA
ATOM      8  C   UNL     1       6.574   4.471  14.339  0.00  0.00    +0.000 C 
ENDBRANCH   3   7
BRANCH   6   9
ATOM      9  O   UNL     1       2.222   5.746  18.669  0.00  0.00    +0.000 OA
ATOM     10  C   UNL     1       2.363   5.797  20.073  0.00  0.00    +0.000 C 
ENDBRANCH   6   9
BRANCH   1  11
ATOM     11  C   UNL     1       3.109   2.953  17.308  0.00  0.00    +0.000 C 
BRANCH  11  12
ATOM     12  C   UNL     1       3.382   2.213  18.645  0.00  0.00    +0.000 C 
BRANCH  12  13
ATOM     13  N   UNL     1       3.930   0.876  18.358  0.00  0.00    +0.000 NA
ATOM     14  H   UNL     1       3.894   0.702  17.356  0.00  0.00    +0.000 HD
ATOM     15  H   UNL     1       3.338   0.169  18.785  0.00  0.00    +0.000 HD
ENDBRANCH  12  13
BRANCH  12  17
ATOM     16  C   UNL     1       0.832   2.483  18.784  0.00  0.00    +0.000 C 
ATOM     17  C   UNL     1       2.109   2.111  19.510  0.00  0.00    +0.000 C 
ENDBRANCH  12  17
ENDBRANCH  11  12
ENDBRANCH   1  11
TORSDOF 6
ENDMDL
MODEL 4
REMARK VINA RESULT:      -5.8      3.683      5.782
REMARK  Name = 
REMARK  9 active torsions:
REMARK  status: ('A' for Active; 'I' for Inactive)
REMARK    1  A    between atoms: C_1  and  C_2
REMARK    2  A    between atoms: C_2  and  C_3
REMARK    3  A    between atoms: C_3  and  N_4
REMARK    4  A    between atoms: C_3  and  C_5
REMARK    5  A    between atoms: C_5  and  C_6
REMARK    6  A    between atoms: C_8  and  O_9
REMARK    7  A    between atoms: O_9  and  C_10
REMARK    8  A    between atoms: C_13  and  O_14
REMARK    9  A    between atoms: O_14  and  C_15
REMARK                            x       y       z     vdW  Elec       q    Type
REMARK                         _______ _______ _______ _____ _____    ______ ____
ROOT
ATOM      1  C   UNL     1       2.701   4.841  17.677  0.00  0.00    +0.000 A 
ATOM      2  C   UNL     1       3.667   4.056  16.989  0.00  0.00    +0.000 A 
ATOM      3  C   UNL     1       4.917   4.547  16.607  0.00  0.00    +0.000 A 
ATOM      4  C   UNL     1       5.243   5.850  16.939  0.00  0.00    +0.000 A 
ATOM      5  C   UNL     1       4.323   6.630  17.640  0.00  0.00    +0.000 A 
ATOM      6  C   UNL     1       3.053   6.154  18.017  0.00  0.00    +0.000 A 
ENDROOT
BRANCH   3   7
ATOM      7  O   UNL     1       5.699   3.661  15.927  0.00  0.00    +0.000 OA
ATOM      8  C   UNL     1       6.641   4.209  15.013  0.00  0.00    +0.000 C 
ENDBRANCH   3   7
BRANCH   6   9
ATOM      9  O   UNL     1       2.362   7.133  18.668  0.00  0.00    +0.000 OA
ATOM     10  C   UNL     1       2.181   8.422  18.122  0.00  0.00    +0.000 C 
ENDBRANCH   6   9
BRANCH   1  11
ATOM     11  C   UNL     1       1.364   4.159  17.895  0.00  0.00    +0.000 C 
BRANCH  11  12
ATOM     12  C   UNL     1       1.404   3.043  18.972  0.00  0.00    +0.000 C 
BRANCH  12  13
ATOM     13  N   UNL     1       0.486   1.958  18.585  0.00  0.00    +0.000 NA
ATOM     14  H   UNL     1      -0.133   1.743  19.363  0.00  0.00    +0.000 HD
ATOM     15  H   UNL     1       1.019   1.110  18.410  0.00  0.00    +0.000 HD
ENDBRANCH  12  13
BRANCH  12  17
ATOM     16  C   UNL     1       1.498   2.702  21.516  0.00  0.00    +0.000 C 
ATOM     17  C   UNL     1       1.049   3.588  20.371  0.00  0.00    +0.000 C 
ENDBRANCH  12  17
ENDBRANCH  11  12
ENDBRANCH   1  11
TORSDOF 6
ENDMDL
MODEL 5
REMARK VINA RESULT:      -5.8      1.426      1.577
REMARK  Name = 
REMARK  9 active torsions:
REMARK  status: ('A' for Active; 'I' for Inactive)
REMARK    1  A    between atoms: C_1  and  C_2
REMARK    2  A    between atoms: C_2  and  C_3
REMARK    3  A    between atoms: C_3  and  N_4
REMARK    4  A    between atoms: C_3  and  C_5
REMARK    5  A    between atoms: C_5  and  C_6
REMARK    6  A    between atoms: C_8  and  O_9
REMARK    7  A    between atoms: O_9  and  C_10
REMARK    8  A    between atoms: C_13  and  O_14
REMARK    9  A    between atoms: O_14  and  C_15
REMARK                            x       y       z     vdW  Elec       q    Type
REMARK                         _______ _______ _______ _____ _____    ______ ____
ROOT
ATOM      1  C   UNL     1       5.448   4.967  16.715  0.00  0.00    +0.000 A 
ATOM      2  C   UNL     1       4.270   4.242  17.049  0.00  0.00    +0.000 A 
ATOM      3  C   UNL     1       3.139   4.840  17.608  0.00  0.00    +0.000 A 
ATOM      4  C   UNL     1       3.153   6.207  17.820  0.00  0.00    +0.000 A 
ATOM      5  C   UNL     1       4.286   6.944  17.473  0.00  0.00    +0.000 A 
ATOM      6  C   UNL     1       5.439   6.352  16.925  0.00  0.00    +0.000 A 
ENDROOT
BRANCH   3   7
ATOM      7  O   UNL     1       2.117   3.983  17.893  0.00  0.00    +0.000 OA
ATOM      8  C   UNL     1       2.403   2.593  17.801  0.00  0.00    +0.000 C 
ENDBRANCH   3   7
BRANCH   6   9
ATOM      9  O   UNL     1       6.392   7.302  16.704  0.00  0.00    +0.000 OA
ATOM     10  C   UNL     1       7.524   7.445  17.535  0.00  0.00    +0.000 C 
ENDBRANCH   6   9
BRANCH   1  11
ATOM     11  C   UNL     1       6.605   4.114  16.231  0.00  0.00    +0.000 C 
BRANCH  11  12
ATOM     12  C   UNL     1       6.867   4.231  14.706  0.00  0.00    +0.000 C 
BRANCH  12  13
ATOM     13  N   UNL     1       7.566   5.498  14.428  0.00  0.00    +0.000 NA
ATOM     14  H   UNL     1       8.332   5.616  15.088  0.00  0.00    +0.000 HD
ATOM     15  H   UNL     1       6.934   6.277  14.594  0.00  0.00    +0.000 HD
ENDBRANCH  12  13
BRANCH  12  17
ATOM     16  C   UNL     1       5.718   3.494  12.530  0.00  0.00    +0.000 C 
ATOM     17  C   UNL     1       5.559   4.137  13.894  0.00  0.00    +0.000 C 
ENDBRANCH  12  17
ENDBRANCH  11  12
ENDBRANCH   1  11
TORSDOF 6
ENDMDL
MODEL 6
REMARK VINA RESULT:      -5.7      2.585      4.753
REMARK  Name = 
REMARK  9 active torsions:
REMARK  status: ('A' for Active; 'I' for Inactive)
REMARK    1  A    between atoms: C_1  and  C_2
REMARK    2  A    between atoms: C_2  and  C_3
REMARK    3  A    between atoms: C_3  and  N_4
REMARK    4  A    between atoms: C_3  and  C_5
REMARK    5  A    between atoms: C_5  and  C_6
REMARK    6  A    between atoms: C_8  and  O_9
REMARK    7  A    between atoms: O_9  and  C_10
REMARK    8  A    between atoms: C_13  and  O_14
REMARK    9  A    between atoms: O_14  and  C_15
REMARK                            x       y       z     vdW  Elec       q    Type
REMARK                         _______ _______ _______ _____ _____    ______ ____
ROOT
ATOM      1  C   UNL     1       4.930   4.334  17.299  0.00  0.00    +0.000 A 
ATOM      2  C   UNL     1       4.727   4.168  15.901  0.00  0.00    +0.000 A 
ATOM      3  C   UNL     1       5.753   4.286  14.962  0.00  0.00    +0.000 A 
ATOM      4  C   UNL     1       7.034   4.547  15.413  0.00  0.00    +0.000 A 
ATOM      5  C   UNL     1       7.264   4.683  16.783  0.00  0.00    +0.000 A 
ATOM      6  C   UNL     1       6.236   4.585  17.740  0.00  0.00    +0.000 A 
ENDROOT
BRANCH   3   7
ATOM      7  O   UNL     1       5.365   4.128  13.664  0.00  0.00    +0.000 OA
ATOM      8  C   UNL     1       6.334   3.603  12.765  0.00  0.00    +0.000 C 
ENDBRANCH   3   7
BRANCH   6   9
ATOM      9  O   UNL     1       6.743   4.780  18.991  0.00  0.00    +0.000 OA
ATOM     10  C   UNL     1       7.721   5.761  19.266  0.00  0.00    +0.000 C 
ENDBRANCH   6   9
BRANCH   1  11
ATOM     11  C   UNL     1       3.667   4.284  18.137  0.00  0.00    +0.000 C 
BRANCH  11  12
ATOM     12  C   UNL     1       2.509   3.497  17.468  0.00  0.00    +0.000 C 
BRANCH  12  13
ATOM     13  N   UNL     1       1.319   4.361  17.382  0.00  0.00    +0.000 NA
ATOM     14  H   UNL     1       1.606   5.337  17.382  0.00  0.00    +0.000 HD
ATOM     15  H   UNL     1       0.750   4.238  18.215  0.00  0.00    +0.000 HD
ENDBRANCH  12  13
BRANCH  12  17
ATOM     16  C   UNL     1       0.861   2.215  18.963  0.00  0.00    +0.000 C 
ATOM     17  C   UNL     1       2.189   2.196  18.232  0.00  0.00    +0.000 C 
ENDBRANCH  12  17
ENDBRANCH  11  12
ENDBRANCH   1  11
TORSDOF 6
ENDMDL
MODEL 7
REMARK VINA RESULT:      -5.7      2.834      5.968
REMARK  Name = 
REMARK  9 active torsions:
REMARK  status: ('A' for Active; 'I' for Inactive)
REMARK    1  A    between atoms: C_1  and  C_2
REMARK    2  A    between atoms: C_2  and  C_3
REMARK    3  A    between atoms: C_3  and  N_4
REMARK    4  A    between atoms: C_3  and  C_5
REMARK    5  A    between atoms: C_5  and  C_6
REMARK    6  A    between atoms: C_8  and  O_9
REMARK    7  A    between atoms: O_9  and  C_10
REMARK    8  A    between atoms: C_13  and  O_14
REMARK    9  A    between atoms: O_14  and  C_15
REMARK                            x       y       z     vdW  Elec       q    Type
REMARK                         _______ _______ _______ _____ _____    ______ ____
ROOT
ATOM      1  C   UNL     1       4.657   5.156  18.167  0.00  0.00    +0.000 A 
ATOM      2  C   UNL     1       5.773   5.985  17.867  0.00  0.00    +0.000 A 
ATOM      3  C   UNL     1       6.528   5.855  16.699  0.00  0.00    +0.000 A 
ATOM      4  C   UNL     1       6.156   4.894  15.777  0.00  0.00    +0.000 A 
ATOM      5  C   UNL     1       5.045   4.089  16.035  0.00  0.00    +0.000 A 
ATOM      6  C   UNL     1       4.286   4.197  17.215  0.00  0.00    +0.000 A 
ENDROOT
BRANCH   3   7
ATOM      7  O   UNL     1       7.582   6.715  16.597  0.00  0.00    +0.000 OA
ATOM      8  C   UNL     1       7.632   7.781  17.537  0.00  0.00    +0.000 C 
ENDBRANCH   3   7
BRANCH   6   9
ATOM      9  O   UNL     1       3.280   3.276  17.209  0.00  0.00    +0.000 OA
ATOM     10  C   UNL     1       3.354   2.070  17.938  0.00  0.00    +0.000 C 
ENDBRANCH   6   9
BRANCH   1  11
ATOM     11  C   UNL     1       4.047   5.380  19.537  0.00  0.00    +0.000 C 
BRANCH  11  12
ATOM     12  C   UNL     1       2.548   5.777  19.492  0.00  0.00    +0.000 C 
BRANCH  12  13
ATOM     13  N   UNL     1       2.349   7.017  20.262  0.00  0.00    +0.000 NA
ATOM     14  H   UNL     1       3.190   7.587  20.213  0.00  0.00    +0.000 HD
ATOM     15  H   UNL     1       2.223   6.789  21.244  0.00  0.00    +0.000 HD
ENDBRANCH  12  13
BRANCH  12  17
ATOM     16  C   UNL     1       2.150   3.994  21.298  0.00  0.00    +0.000 C 
ATOM     17  C   UNL     1       1.643   4.648  20.027  0.00  0.00    +0.000 C 
ENDBRANCH  12  17
ENDBRANCH  11  12
ENDBRANCH   1  11
TORSDOF 6
ENDMDL
MODEL 8
REMARK VINA RESULT:      -5.7      3.269      5.218
REMARK  Name = 
REMARK  9 active torsions:
REMARK  status: ('A' for Active; 'I' for Inactive)
REMARK    1  A    between atoms: C_1  and  C_2
REMARK    2  A    between atoms: C_2  and  C_3
REMARK    3  A    between atoms: C_3  and  N_4
REMARK    4  A    between atoms: C_3  and  C_5
REMARK    5  A    between atoms: C_5  and  C_6
REMARK    6  A    between atoms: C_8  and  O_9
REMARK    7  A    between atoms: O_9  and  C_10
REMARK    8  A    between atoms: C_13  and  O_14
REMARK    9  A    between atoms: O_14  and  C_15
REMARK                            x       y       z     vdW  Elec       q    Type
REMARK                         _______ _______ _______ _____ _____    ______ ____
ROOT
ATOM      1  C   UNL     1       3.551   4.225  17.216  0.00  0.00    +0.000 A 
ATOM      2  C   UNL     1       2.882   5.316  17.836  0.00  0.00    +0.000 A 
ATOM      3  C   UNL     1       3.423   6.601  17.908  0.00  0.00    +0.000 A 
ATOM      4  C   UNL     1       4.655   6.832  17.323  0.00  0.00    +0.000 A 
ATOM      5  C   UNL     1       5.317   5.784  16.683  0.00  0.00    +0.000 A 
ATOM      6  C   UNL     1       4.792   4.479  16.618  0.00  0.00    +0.000 A 
ENDROOT
BRANCH   3   7
ATOM      7  O   UNL     1       2.654   7.512  18.570  0.00  0.00    +0.000 OA
ATOM      8  C   UNL     1       2.242   8.657  17.833  0.00  0.00    +0.000 C 
ENDBRANCH   3   7
BRANCH   6   9
ATOM      9  O   UNL     1       5.657   3.661  15.954  0.00  0.00    +0.000 OA
ATOM     10  C   UNL     1       6.165   3.974  14.675  0.00  0.00    +0.000 C 
ENDBRANCH   6   9
BRANCH   1  11
ATOM     11  C   UNL     1       2.848   2.887  17.350  0.00  0.00    +0.000 C 
BRANCH  11  12
ATOM     12  C   UNL     1       3.111   2.182  18.707  0.00  0.00    +0.000 C 
BRANCH  12  13
ATOM     13  N   UNL     1       3.836   0.922  18.469  0.00  0.00    +0.000 NA
ATOM     14  H   UNL     1       3.538   0.520  17.583  0.00  0.00    +0.000 HD
ATOM     15  H   UNL     1       3.582   0.244  19.183  0.00  0.00    +0.000 HD
ENDBRANCH  12  13
BRANCH  12  17
ATOM     16  C   UNL     1       1.653   2.737  20.748  0.00  0.00    +0.000 C 
ATOM     17  C   UNL     1       1.800   1.923  19.478  0.00  0.00    +0.000 C 
ENDBRANCH  12  17
ENDBRANCH  11  12
ENDBRANCH   1  11
TORSDOF 6
ENDMDL
MODEL 9
REMARK VINA RESULT:      -5.6      2.595      4.882
REMARK  Name = 
REMARK  9 active torsions:
REMARK  status: ('A' for Active; 'I' for Inactive)
REMARK    1  A    between atoms: C_1  and  C_2
REMARK    2  A    between atoms: C_2  and  C_3
REMARK    3  A    between atoms: C_3  and  N_4
REMARK    4  A    between atoms: C_3  and  C_5
REMARK    5  A    between atoms: C_5  and  C_6
REMARK    6  A    between atoms: C_8  and  O_9
REMARK    7  A    between atoms: O_9  and  C_10
REMARK    8  A    between atoms: C_13  and  O_14
REMARK    9  A    between atoms: O_14  and  C_15
REMARK                            x       y       z     vdW  Elec       q    Type
REMARK                         _______ _______ _______ _____ _____    ______ ____
ROOT
ATOM      1  C   UNL     1       4.841   4.161  17.444  0.00  0.00    +0.000 A 
ATOM      2  C   UNL     1       4.677   4.045  16.036  0.00  0.00    +0.000 A 
ATOM      3  C   UNL     1       5.707   4.290  15.126  0.00  0.00    +0.000 A 
ATOM      4  C   UNL     1       6.954   4.634  15.617  0.00  0.00    +0.000 A 
ATOM      5  C   UNL     1       7.146   4.725  16.996  0.00  0.00    +0.000 A 
ATOM      6  C   UNL     1       6.113   4.498  17.925  0.00  0.00    +0.000 A 
ENDROOT
BRANCH   3   7
ATOM      7  O   UNL     1       5.357   4.161  13.814  0.00  0.00    +0.000 OA
ATOM      8  C   UNL     1       6.353   3.657  12.933  0.00  0.00    +0.000 C 
ENDBRANCH   3   7
BRANCH   6   9
ATOM      9  O   UNL     1       6.579   4.676  19.194  0.00  0.00    +0.000 OA
ATOM     10  C   UNL     1       7.556   5.644  19.512  0.00  0.00    +0.000 C 
ENDBRANCH   6   9
BRANCH   1  11
ATOM     11  C   UNL     1       3.571   3.970  18.251  0.00  0.00    +0.000 C 
BRANCH  11  12
ATOM     12  C   UNL     1       3.582   2.692  19.132  0.00  0.00    +0.000 C 
BRANCH  12  13
ATOM     13  N   UNL     1       3.964   1.534  18.305  0.00  0.00    +0.000 NA
ATOM     14  H   UNL     1       3.780   0.675  18.818  0.00  0.00    +0.000 HD
ATOM     15  H   UNL     1       4.966   1.551  18.140  0.00  0.00    +0.000 HD
ENDBRANCH  12  13
BRANCH  12  17
ATOM     16  C   UNL     1       1.034   2.510  18.864  0.00  0.00    +0.000 C 
ATOM     17  C   UNL     1       2.217   2.456  19.811  0.00  0.00    +0.000 C 
ENDBRANCH  12  17
ENDBRANCH  11  12
ENDBRANCH   1  11
TORSDOF 6
ENDMDL
