MODEL 1
REMARK VINA RESULT:      -7.3      0.000      0.000
REMARK  Name = 
REMARK  5 active torsions:
REMARK  status: ('A' for Active; 'I' for Inactive)
REMARK    1  A    between atoms: C_1  and  C_2
REMARK    2  A    between atoms: N_4  and  C_5
REMARK    3  A    between atoms: C_7  and  C_8
REMARK    4  A    between atoms: C_8  and  N_9
REMARK    5  A    between atoms: C_12  and  C_13
REMARK                            x       y       z     vdW  Elec       q    Type
REMARK                         _______ _______ _______ _____ _____    ______ ____
ROOT
ATOM      1  N   UNL     1       6.079   4.594  18.064  0.00  0.00    +0.000 N 
ATOM      2  C   UNL     1       6.912   5.492  18.727  0.00  0.00    +0.000 A 
ATOM      3  O   UNL     1       7.110   5.516  19.936  0.00  0.00    +0.000 OA
ATOM      4  C   UNL     1       7.593   6.539  17.856  0.00  0.00    +0.000 A 
ATOM      5  C   UNL     1       8.282   7.682  18.551  0.00  0.00    +0.000 C 
ATOM      6  N   UNL     1       7.593   6.500  16.560  0.00  0.00    +0.000 NA
ATOM      7  C   UNL     1       6.907   5.449  15.935  0.00  0.00    +0.000 A 
ATOM      8  C   UNL     1       7.018   5.351  14.543  0.00  0.00    +0.000 A 
ATOM      9  C   UNL     1       6.362   4.342  13.842  0.00  0.00    +0.000 A 
ATOM     10  C   UNL     1       5.557   3.442  14.529  0.00  0.00    +0.000 A 
ATOM     11  C   UNL     1       5.423   3.544  15.916  0.00  0.00    +0.000 A 
ATOM     12  C   UNL     1       6.113   4.524  16.640  0.00  0.00    +0.000 A 
ENDROOT
BRANCH   1  13
ATOM     13  C   UNL     1       5.253   3.697  18.869  0.00  0.00    +0.000 C 
BRANCH  13  20
ATOM     14  C   UNL     1       2.268   2.737  17.784  0.00  0.00    +0.000 C 
ATOM     15  C   UNL     1       2.625   3.865  18.680  0.00  0.00    +0.000 A 
ATOM     16  N   UNL     1       1.653   4.671  19.117  0.00  0.00    +0.000 NA
ATOM     17  N   UNL     1       2.290   5.603  19.840  0.00  0.00    +0.000 N 
ATOM     18  C   UNL     1       1.556   6.696  20.426  0.00  0.00    +0.000 C 
ATOM     19  C   UNL     1       3.632   5.413  19.898  0.00  0.00    +0.000 A 
ATOM     20  C   UNL     1       3.909   4.277  19.159  0.00  0.00    +0.000 A 
ENDBRANCH  13  20
ENDBRANCH   1  13
TORSDOF 2
ENDMDL
MODEL 2
REMARK VINA RESULT:      -7.3      1.977      5.843
REMARK  Name = 
REMARK  5 active torsions:
REMARK  status: ('A' for Active; 'I' for Inactive)
REMARK    1  A    between atoms: C_1  and  C_2
REMARK    2  A    between atoms: N_4  and  C_5
REMARK    3  A    between atoms: C_7  and  C_8
REMARK    4  A    between atoms: C_8  and  N_9
REMARK    5  A    between atoms: C_12  and  C_13
REMARK                            x       y       z     vdW  Elec       q    Type
REMARK                         _______ _______ _______ _____ _____    ______ ____
ROOT
ATOM      1  N   UNL     1       3.119   4.382  18.645  0.00  0.00    +0.000 N 
ATOM      2  C   UNL     1       2.990   3.376  19.600  0.00  0.00    +0.000 A 
ATOM      3  O   UNL     1       3.531   2.278  19.550  0.00  0.00    +0.000 OA
ATOM      4  C   UNL     1       2.069   3.683  20.773  0.00  0.00    +0.000 A 
ATOM      5  C   UNL     1       1.693   2.543  21.680  0.00  0.00    +0.000 C 
ATOM      6  N   UNL     1       1.588   4.863  21.014  0.00  0.00    +0.000 NA
ATOM      7  C   UNL     1       1.918   5.900  20.130  0.00  0.00    +0.000 A 
ATOM      8  C   UNL     1       1.493   7.190  20.470  0.00  0.00    +0.000 A 
ATOM      9  C   UNL     1       1.771   8.276  19.643  0.00  0.00    +0.000 A 
ATOM     10  C   UNL     1       2.447   8.070  18.447  0.00  0.00    +0.000 A 
ATOM     11  C   UNL     1       2.858   6.784  18.089  0.00  0.00    +0.000 A 
ATOM     12  C   UNL     1       2.627   5.690  18.931  0.00  0.00    +0.000 A 
ENDROOT
BRANCH   1  13
ATOM     13  C   UNL     1       3.830   4.071  17.408  0.00  0.00    +0.000 C 
BRANCH  13  20
ATOM     14  C   UNL     1       6.151   3.958  15.039  0.00  0.00    +0.000 C 
ATOM     15  C   UNL     1       6.270   4.398  16.451  0.00  0.00    +0.000 A 
ATOM     16  N   UNL     1       7.466   4.779  16.907  0.00  0.00    +0.000 NA
ATOM     17  N   UNL     1       7.260   5.054  18.203  0.00  0.00    +0.000 N 
ATOM     18  C   UNL     1       8.360   5.442  19.049  0.00  0.00    +0.000 C 
ATOM     19  C   UNL     1       5.971   4.881  18.589  0.00  0.00    +0.000 A 
ATOM     20  C   UNL     1       5.270   4.457  17.473  0.00  0.00    +0.000 A 
ENDBRANCH  13  20
ENDBRANCH   1  13
TORSDOF 2
ENDMDL
MODEL 3
REMARK VINA RESULT:      -7.2      0.962      1.014
REMARK  Name = 
REMARK  5 active torsions:
REMARK  status: ('A' for Active; 'I' for Inactive)
REMARK    1  A    between atoms: C_1  and  C_2
REMARK    2  A    between atoms: N_4  and  C_5
REMARK    3  A    between atoms: C_7  and  C_8
REMARK    4  A    between atoms: C_8  and  N_9
REMARK    5  A    between atoms: C_12  and  C_13
REMARK                            x       y       z     vdW  Elec       q    Type
REMARK                         _______ _______ _______ _____ _____    ______ ____
ROOT
ATOM      1  N   UNL     1       5.853   4.652  18.136  0.00  0.00    +0.000 N 
ATOM      2  C   UNL     1       6.761   5.469  18.804  0.00  0.00    +0.000 A 
ATOM      3  O   UNL     1       6.937   5.488  20.017  0.00  0.00    +0.000 OA
ATOM      4  C   UNL     1       7.564   6.427  17.935  0.00  0.00    +0.000 A 
ATOM      5  C   UNL     1       8.354   7.502  18.630  0.00  0.00    +0.000 C 
ATOM      6  N   UNL     1       7.584   6.370  16.639  0.00  0.00    +0.000 NA
ATOM      7  C   UNL     1       6.805   5.386  16.013  0.00  0.00    +0.000 A 
ATOM      8  C   UNL     1       6.933   5.258  14.625  0.00  0.00    +0.000 A 
ATOM      9  C   UNL     1       6.189   4.312  13.923  0.00  0.00    +0.000 A 
ATOM     10  C   UNL     1       5.282   3.511  14.605  0.00  0.00    +0.000 A 
ATOM     11  C   UNL     1       5.133   3.645  15.987  0.00  0.00    +0.000 A 
ATOM     12  C   UNL     1       5.907   4.559  16.713  0.00  0.00    +0.000 A 
ENDROOT
BRANCH   1  13
ATOM     13  C   UNL     1       4.923   3.857  18.934  0.00  0.00    +0.000 C 
BRANCH  13  20
ATOM     14  C   UNL     1       2.525   2.986  21.056  0.00  0.00    +0.000 C 
ATOM     15  C   UNL     1       2.796   4.306  20.432  0.00  0.00    +0.000 A 
ATOM     16  N   UNL     1       1.968   5.321  20.692  0.00  0.00    +0.000 NA
ATOM     17  N   UNL     1       2.437   6.335  19.951  0.00  0.00    +0.000 N 
ATOM     18  C   UNL     1       1.746   7.600  19.927  0.00  0.00    +0.000 C 
ATOM     19  C   UNL     1       3.546   6.011  19.240  0.00  0.00    +0.000 A 
ATOM     20  C   UNL     1       3.834   4.688  19.525  0.00  0.00    +0.000 A 
ENDBRANCH  13  20
ENDBRANCH   1  13
TORSDOF 2
ENDMDL
MODEL 4
REMARK VINA RESULT:      -7.1      1.912      5.541
REMARK  Name = 
REMARK  5 active torsions:
REMARK  status: ('A' for Active; 'I' for Inactive)
REMARK    1  A    between atoms: C_1  and  C_2
REMARK    2  A    between atoms: N_4  and  C_5
REMARK    3  A    between atoms: C_7  and  C_8
REMARK    4  A    between atoms: C_8  and  N_9
REMARK    5  A    between atoms: C_12  and  C_13
REMARK                            x       y       z     vdW  Elec       q    Type
REMARK                         _______ _______ _______ _____ _____    ______ ____
ROOT
ATOM      1  N   UNL     1       3.134   5.715  18.189  0.00  0.00    +0.000 N 
ATOM      2  C   UNL     1       2.698   6.944  18.677  0.00  0.00    +0.000 A 
ATOM      3  O   UNL     1       2.903   8.030  18.148  0.00  0.00    +0.000 OA
ATOM      4  C   UNL     1       1.935   6.907  19.995  0.00  0.00    +0.000 A 
ATOM      5  C   UNL     1       1.681   8.218  20.689  0.00  0.00    +0.000 C 
ATOM      6  N   UNL     1       1.515   5.812  20.546  0.00  0.00    +0.000 NA
ATOM      7  C   UNL     1       1.802   4.600  19.902  0.00  0.00    +0.000 A 
ATOM      8  C   UNL     1       1.238   3.439  20.443  0.00  0.00    +0.000 A 
ATOM      9  C   UNL     1       1.480   2.192  19.870  0.00  0.00    +0.000 A 
ATOM     10  C   UNL     1       2.321   2.096  18.769  0.00  0.00    +0.000 A 
ATOM     11  C   UNL     1       2.906   3.247  18.234  0.00  0.00    +0.000 A 
ATOM     12  C   UNL     1       2.635   4.512  18.770  0.00  0.00    +0.000 A 
ENDROOT
BRANCH   1  13
ATOM     13  C   UNL     1       4.032   5.710  17.037  0.00  0.00    +0.000 C 
BRANCH  13  20
ATOM     14  C   UNL     1       6.426   4.072  15.426  0.00  0.00    +0.000 C 
ATOM     15  C   UNL     1       6.479   4.764  16.738  0.00  0.00    +0.000 A 
ATOM     16  N   UNL     1       7.615   4.724  17.440  0.00  0.00    +0.000 NA
ATOM     17  N   UNL     1       7.330   5.374  18.577  0.00  0.00    +0.000 N 
ATOM     18  C   UNL     1       8.316   5.478  19.623  0.00  0.00    +0.000 C 
ATOM     19  C   UNL     1       6.059   5.845  18.621  0.00  0.00    +0.000 A 
ATOM     20  C   UNL     1       5.453   5.479  17.432  0.00  0.00    +0.000 A 
ENDBRANCH  13  20
ENDBRANCH   1  13
TORSDOF 2
ENDMDL
MODEL 5
REMARK VINA RESULT:      -6.9      0.896      1.654
REMARK  Name = 
REMARK  5 active torsions:
REMARK  status: ('A' for Active; 'I' for Inactive)
REMARK    1  A    between atoms: C_1  and  C_2
REMARK    2  A    between atoms: N_4  and  C_5
REMARK    3  A    between atoms: C_7  and  C_8
REMARK    4  A    between atoms: C_8  and  N_9
REMARK    5  A    between atoms: C_12  and  C_13
REMARK                            x       y       z     vdW  Elec       q    Type
REMARK                         _______ _______ _______ _____ _____    ______ ____
ROOT
ATOM      1  N   UNL     1       6.181   4.644  18.236  0.00  0.00    +0.000 N 
ATOM      2  C   UNL     1       7.008   5.604  18.814  0.00  0.00    +0.000 A 
ATOM      3  O   UNL     1       7.280   5.679  20.007  0.00  0.00    +0.000 OA
ATOM      4  C   UNL     1       7.581   6.650  17.868  0.00  0.00    +0.000 A 
ATOM      5  C   UNL     1       8.255   7.849  18.480  0.00  0.00    +0.000 C 
ATOM      6  N   UNL     1       7.502   6.566  16.577  0.00  0.00    +0.000 NA
ATOM      7  C   UNL     1       6.831   5.461  16.031  0.00  0.00    +0.000 A 
ATOM      8  C   UNL     1       6.860   5.320  14.639  0.00  0.00    +0.000 A 
ATOM      9  C   UNL     1       6.212   4.257  14.014  0.00  0.00    +0.000 A 
ATOM     10  C   UNL     1       5.498   3.345  14.780  0.00  0.00    +0.000 A 
ATOM     11  C   UNL     1       5.446   3.489  16.169  0.00  0.00    +0.000 A 
ATOM     12  C   UNL     1       6.130   4.526  16.815  0.00  0.00    +0.000 A 
ENDROOT
BRANCH   1  13
ATOM     13  C   UNL     1       5.453   3.738  19.120  0.00  0.00    +0.000 C 
BRANCH  13  20
ATOM     14  C   UNL     1       3.494   6.380  18.681  0.00  0.00    +0.000 C 
ATOM     15  C   UNL     1       3.137   4.940  18.718  0.00  0.00    +0.000 A 
ATOM     16  N   UNL     1       1.852   4.593  18.602  0.00  0.00    +0.000 NA
ATOM     17  N   UNL     1       1.851   3.259  18.730  0.00  0.00    +0.000 N 
ATOM     18  C   UNL     1       0.609   2.528  18.721  0.00  0.00    +0.000 C 
ATOM     19  C   UNL     1       3.090   2.736  18.905  0.00  0.00    +0.000 A 
ATOM     20  C   UNL     1       3.979   3.797  18.897  0.00  0.00    +0.000 A 
ENDBRANCH  13  20
ENDBRANCH   1  13
TORSDOF 2
ENDMDL
MODEL 6
REMARK VINA RESULT:      -6.8      1.626      2.042
REMARK  Name = 
REMARK  5 active torsions:
REMARK  status: ('A' for Active; 'I' for Inactive)
REMARK    1  A    between atoms: C_1  and  C_2
REMARK    2  A    between atoms: N_4  and  C_5
REMARK    3  A    between atoms: C_7  and  C_8
REMARK    4  A    between atoms: C_8  and  N_9
REMARK    5  A    between atoms: C_12  and  C_13
REMARK                            x       y       z     vdW  Elec       q    Type
REMARK                         _______ _______ _______ _____ _____    ______ ____
ROOT
ATOM      1  N   UNL     1       5.014   4.774  17.655  0.00  0.00    +0.000 N 
ATOM      2  C   UNL     1       5.904   4.926  18.715  0.00  0.00    +0.000 A 
ATOM      3  O   UNL     1       5.616   4.828  19.902  0.00  0.00    +0.000 OA
ATOM      4  C   UNL     1       7.338   5.273  18.338  0.00  0.00    +0.000 A 
ATOM      5  C   UNL     1       8.263   5.704  19.444  0.00  0.00    +0.000 C 
ATOM      6  N   UNL     1       7.789   5.229  17.124  0.00  0.00    +0.000 NA
ATOM      7  C   UNL     1       6.896   4.866  16.105  0.00  0.00    +0.000 A 
ATOM      8  C   UNL     1       7.425   4.704  14.819  0.00  0.00    +0.000 A 
ATOM      9  C   UNL     1       6.606   4.353  13.748  0.00  0.00    +0.000 A 
ATOM     10  C   UNL     1       5.241   4.197  13.952  0.00  0.00    +0.000 A 
ATOM     11  C   UNL     1       4.700   4.376  15.228  0.00  0.00    +0.000 A 
ATOM     12  C   UNL     1       5.517   4.683  16.323  0.00  0.00    +0.000 A 
ENDROOT
BRANCH   1  13
ATOM     13  C   UNL     1       3.593   4.634  17.962  0.00  0.00    +0.000 C 
BRANCH  13  20
ATOM     14  C   UNL     1       2.007   5.247  20.812  0.00  0.00    +0.000 C 
ATOM     15  C   UNL     1       2.304   6.166  19.684  0.00  0.00    +0.000 A 
ATOM     16  N   UNL     1       1.863   7.425  19.748  0.00  0.00    +0.000 NA
ATOM     17  N   UNL     1       2.232   7.970  18.580  0.00  0.00    +0.000 N 
ATOM     18  C   UNL     1       1.864   9.326  18.261  0.00  0.00    +0.000 C 
ATOM     19  C   UNL     1       2.911   7.111  17.779  0.00  0.00    +0.000 A 
ATOM     20  C   UNL     1       2.996   5.909  18.458  0.00  0.00    +0.000 A 
ENDBRANCH  13  20
ENDBRANCH   1  13
TORSDOF 2
ENDMDL
MODEL 7
REMARK VINA RESULT:      -6.7      2.040      5.723
REMARK  Name = 
REMARK  5 active torsions:
REMARK  status: ('A' for Active; 'I' for Inactive)
REMARK    1  A    between atoms: C_1  and  C_2
REMARK    2  A    between atoms: N_4  and  C_5
REMARK    3  A    between atoms: C_7  and  C_8
REMARK    4  A    between atoms: C_8  and  N_9
REMARK    5  A    between atoms: C_12  and  C_13
REMARK                            x       y       z     vdW  Elec       q    Type
REMARK                         _______ _______ _______ _____ _____    ______ ____
ROOT
ATOM      1  N   UNL     1       3.189   5.423  18.319  0.00  0.00    +0.000 N 
ATOM      2  C   UNL     1       2.583   6.671  18.437  0.00  0.00    +0.000 A 
ATOM      3  O   UNL     1       2.485   7.498  17.538  0.00  0.00    +0.000 OA
ATOM      4  C   UNL     1       2.036   7.021  19.814  0.00  0.00    +0.000 A 
ATOM      5  C   UNL     1       1.617   8.447  20.055  0.00  0.00    +0.000 C 
ATOM      6  N   UNL     1       1.931   6.164  20.780  0.00  0.00    +0.000 NA
ATOM      7  C   UNL     1       2.368   4.852  20.545  0.00  0.00    +0.000 A 
ATOM      8  C   UNL     1       2.135   3.910  21.554  0.00  0.00    +0.000 A 
ATOM      9  C   UNL     1       2.546   2.587  21.405  0.00  0.00    +0.000 A 
ATOM     10  C   UNL     1       3.226   2.206  20.255  0.00  0.00    +0.000 A 
ATOM     11  C   UNL     1       3.481   3.144  19.251  0.00  0.00    +0.000 A 
ATOM     12  C   UNL     1       3.034   4.466  19.366  0.00  0.00    +0.000 A 
ENDROOT
BRANCH   1  13
ATOM     13  C   UNL     1       3.899   5.115  17.081  0.00  0.00    +0.000 C 
BRANCH  13  20
ATOM     14  C   UNL     1       6.234   4.916  14.731  0.00  0.00    +0.000 C 
ATOM     15  C   UNL     1       6.284   5.592  16.052  0.00  0.00    +0.000 A 
ATOM     16  N   UNL     1       7.418   6.192  16.425  0.00  0.00    +0.000 NA
ATOM     17  N   UNL     1       7.167   6.645  17.661  0.00  0.00    +0.000 N 
ATOM     18  C   UNL     1       8.202   7.304  18.418  0.00  0.00    +0.000 C 
ATOM     19  C   UNL     1       5.908   6.374  18.087  0.00  0.00    +0.000 A 
ATOM     20  C   UNL     1       5.277   5.688  17.064  0.00  0.00    +0.000 A 
ENDBRANCH  13  20
ENDBRANCH   1  13
TORSDOF 2
ENDMDL
MODEL 8
REMARK VINA RESULT:      -6.7      1.899      5.721
REMARK  Name = 
REMARK  5 active torsions:
REMARK  status: ('A' for Active; 'I' for Inactive)
REMARK    1  A    between atoms: C_1  and  C_2
REMARK    2  A    between atoms: N_4  and  C_5
REMARK    3  A    between atoms: C_7  and  C_8
REMARK    4  A    between atoms: C_8  and  N_9
REMARK    5  A    between atoms: C_12  and  C_13
REMARK                            x       y       z     vdW  Elec       q    Type
REMARK                         _______ _______ _______ _____ _____    ______ ____
ROOT
ATOM      1  N   UNL     1       4.566   4.504  18.729  0.00  0.00    +0.000 N 
ATOM      2  C   UNL     1       3.997   3.355  19.273  0.00  0.00    +0.000 A 
ATOM      3  O   UNL     1       4.618   2.429  19.783  0.00  0.00    +0.000 OA
ATOM      4  C   UNL     1       2.480   3.255  19.185  0.00  0.00    +0.000 A 
ATOM      5  C   UNL     1       1.850   1.929  19.514  0.00  0.00    +0.000 C 
ATOM      6  N   UNL     1       1.719   4.242  18.828  0.00  0.00    +0.000 NA
ATOM      7  C   UNL     1       2.333   5.455  18.484  0.00  0.00    +0.000 A 
ATOM      8  C   UNL     1       1.495   6.544  18.221  0.00  0.00    +0.000 A 
ATOM      9  C   UNL     1       2.022   7.783  17.864  0.00  0.00    +0.000 A 
ATOM     10  C   UNL     1       3.397   7.929  17.733  0.00  0.00    +0.000 A 
ATOM     11  C   UNL     1       4.242   6.843  17.974  0.00  0.00    +0.000 A 
ATOM     12  C   UNL     1       3.729   5.604  18.378  0.00  0.00    +0.000 A 
ENDROOT
BRANCH   1  13
ATOM     13  C   UNL     1       6.021   4.563  18.613  0.00  0.00    +0.000 C 
BRANCH  13  20
ATOM     14  C   UNL     1       7.680   7.121  17.302  0.00  0.00    +0.000 C 
ATOM     15  C   UNL     1       7.172   5.892  16.642  0.00  0.00    +0.000 A 
ATOM     16  N   UNL     1       7.341   5.754  15.324  0.00  0.00    +0.000 NA
ATOM     17  N   UNL     1       6.735   4.595  15.028  0.00  0.00    +0.000 N 
ATOM     18  C   UNL     1       6.658   4.143  13.662  0.00  0.00    +0.000 C 
ATOM     19  C   UNL     1       6.200   3.978  16.111  0.00  0.00    +0.000 A 
ATOM     20  C   UNL     1       6.465   4.783  17.205  0.00  0.00    +0.000 A 
ENDBRANCH  13  20
ENDBRANCH   1  13
TORSDOF 2
ENDMDL
MODEL 9
REMARK VINA RESULT:      -6.7      2.257      5.366
REMARK  Name = 
REMARK  5 active torsions:
REMARK  status: ('A' for Active; 'I' for Inactive)
REMARK    1  A    between atoms: C_1  and  C_2
REMARK    2  A    between atoms: N_4  and  C_5
REMARK    3  A    between atoms: C_7  and  C_8
REMARK    4  A    between atoms: C_8  and  N_9
REMARK    5  A    between atoms: C_12  and  C_13
REMARK                            x       y       z     vdW  Elec       q    Type
REMARK                         _______ _______ _______ _____ _____    ______ ____
ROOT
ATOM      1  N   UNL     1       3.765   5.888  17.754  0.00  0.00    +0.000 N 
ATOM      2  C   UNL     1       3.084   6.952  18.340  0.00  0.00    +0.000 A 
ATOM      3  O   UNL     1       3.115   8.114  17.952  0.00  0.00    +0.000 OA
ATOM      4  C   UNL     1       2.267   6.619  19.582  0.00  0.00    +0.000 A 
ATOM      5  C   UNL     1       1.736   7.768  20.395  0.00  0.00    +0.000 C 
ATOM      6  N   UNL     1       2.025   5.407  19.974  0.00  0.00    +0.000 NA
ATOM      7  C   UNL     1       2.567   4.353  19.224  0.00  0.00    +0.000 A 
ATOM      8  C   UNL     1       2.196   3.053  19.587  0.00  0.00    +0.000 A 
ATOM      9  C   UNL     1       2.696   1.949  18.900  0.00  0.00    +0.000 A 
ATOM     10  C   UNL     1       3.601   2.139  17.865  0.00  0.00    +0.000 A 
ATOM     11  C   UNL     1       3.994   3.432  17.507  0.00  0.00    +0.000 A 
ATOM     12  C   UNL     1       3.465   4.553  18.158  0.00  0.00    +0.000 A 
ENDROOT
BRANCH   1  13
ATOM     13  C   UNL     1       4.713   6.183  16.683  0.00  0.00    +0.000 C 
BRANCH  13  20
ATOM     14  C   UNL     1       7.160   4.600  18.270  0.00  0.00    +0.000 C 
ATOM     15  C   UNL     1       7.053   6.033  17.898  0.00  0.00    +0.000 A 
ATOM     16  N   UNL     1       8.033   6.866  18.260  0.00  0.00    +0.000 NA
ATOM     17  N   UNL     1       7.623   8.070  17.838  0.00  0.00    +0.000 N 
ATOM     18  C   UNL     1       8.411   9.245  18.114  0.00  0.00    +0.000 C 
ATOM     19  C   UNL     1       6.424   8.037  17.203  0.00  0.00    +0.000 A 
ATOM     20  C   UNL     1       6.005   6.718  17.205  0.00  0.00    +0.000 A 
ENDBRANCH  13  20
ENDBRANCH   1  13
TORSDOF 2
ENDMDL
