MODEL 1
REMARK VINA RESULT:      -8.5      0.000      0.000
REMARK  Name = 
REMARK  12 active torsions:
REMARK  status: ('A' for Active; 'I' for Inactive)
REMARK    1  A    between atoms: C_1  and  S_2
REMARK    2  A    between atoms: S_2  and  C_3
REMARK    3  A    between atoms: C_8  and  C_9
REMARK    4  A    between atoms: C_11  and  C_12
REMARK    5  A    between atoms: C_12  and  C_13
REMARK    6  A    between atoms: C_12  and  C_14
REMARK    7  A    between atoms: C_12  and  C_15
REMARK    8  A    between atoms: C_16  and  O_17
REMARK    9  A    between atoms: C_18  and  C_19
REMARK   10  A    between atoms: C_19  and  C_20
REMARK   11  A    between atoms: C_19  and  C_21
REMARK   12  A    between atoms: C_19  and  C_22
REMARK                            x       y       z     vdW  Elec       q    Type
REMARK                         _______ _______ _______ _____ _____    ______ ____
ROOT
ATOM      1  C   UNL     1       3.136   6.754  18.670  0.00  0.00    +0.000 A 
ATOM      2  C   UNL     1       2.567   5.529  19.050  0.00  0.00    +0.000 A 
ATOM      3  C   UNL     1       3.309   4.339  19.150  0.00  0.00    +0.000 A 
ATOM      4  C   UNL     1       4.696   4.453  18.875  0.00  0.00    +0.000 A 
ATOM      5  C   UNL     1       5.313   5.651  18.420  0.00  0.00    +0.000 A 
ATOM      6  C   UNL     1       4.491   6.794  18.336  0.00  0.00    +0.000 A 
ENDROOT
BRANCH   1  12
ATOM      7  C   UNL     1       0.309  10.011  21.865  0.00  0.00    +0.000 C 
ATOM      8  N   UNL     1       1.124   9.296  22.556  0.00  0.00    +0.000 NA
ATOM      9  N   UNL     1       0.216  10.110  20.510  0.00  0.00    +0.000 N 
ATOM     10  C   UNL     1       0.950   9.439  19.599  0.00  0.00    +0.000 A 
ATOM     11  N   UNL     1       1.598   8.316  19.784  0.00  0.00    +0.000 NA
ATOM     12  C   UNL     1       2.294   7.956  18.634  0.00  0.00    +0.000 A 
ATOM     13  N   UNL     1       2.165   8.733  17.552  0.00  0.00    +0.000 NA
ATOM     14  S   UNL     1       1.143   9.983  17.973  0.00  0.00    +0.000 S 
ATOM     15  H   UNL     1       0.992   9.504  23.547  0.00  0.00    +0.000 HD
ATOM     16  H   UNL     1      -0.341  10.890  20.190  0.00  0.00    +0.000 HD
BRANCH   7  18
ATOM     17  C   UNL     1      -0.404  12.638  21.943  0.00  0.00    +0.000 C 
ATOM     18  S   UNL     1      -0.790  11.058  22.738  0.00  0.00    +0.000 S 
ENDBRANCH   7  18
ENDBRANCH   1  12
BRANCH   3  19
ATOM     19  C   UNL     1       2.583   3.022  19.523  0.00  0.00    +0.000 C 
ATOM     20  C   UNL     1       2.972   1.821  18.612  0.00  0.00    +0.000 C 
ATOM     21  C   UNL     1       2.963   2.583  20.955  0.00  0.00    +0.000 C 
ATOM     22  C   UNL     1       1.051   3.153  19.411  0.00  0.00    +0.000 C 
ENDBRANCH   3  19
BRANCH   5  23
ATOM     23  C   UNL     1       6.796   5.725  17.973  0.00  0.00    +0.000 C 
ATOM     24  C   UNL     1       7.084   7.103  17.331  0.00  0.00    +0.000 C 
ATOM     25  C   UNL     1       7.801   5.587  19.150  0.00  0.00    +0.000 C 
ATOM     26  C   UNL     1       7.156   4.605  16.975  0.00  0.00    +0.000 C 
ENDBRANCH   5  23
BRANCH   4  27
ATOM     27  O   UNL     1       5.507   3.372  19.086  0.00  0.00    +0.000 OA
ATOM     28  H   UNL     1       5.664   2.968  18.219  0.00  0.00    +0.000 HD
ENDBRANCH   4  27
TORSDOF 5
ENDMDL
MODEL 2
REMARK VINA RESULT:      -8.5      0.059      1.207
REMARK  Name = 
REMARK  12 active torsions:
REMARK  status: ('A' for Active; 'I' for Inactive)
REMARK    1  A    between atoms: C_1  and  S_2
REMARK    2  A    between atoms: S_2  and  C_3
REMARK    3  A    between atoms: C_8  and  C_9
REMARK    4  A    between atoms: C_11  and  C_12
REMARK    5  A    between atoms: C_12  and  C_13
REMARK    6  A    between atoms: C_12  and  C_14
REMARK    7  A    between atoms: C_12  and  C_15
REMARK    8  A    between atoms: C_16  and  O_17
REMARK    9  A    between atoms: C_18  and  C_19
REMARK   10  A    between atoms: C_19  and  C_20
REMARK   11  A    between atoms: C_19  and  C_21
REMARK   12  A    between atoms: C_19  and  C_22
REMARK                            x       y       z     vdW  Elec       q    Type
REMARK                         _______ _______ _______ _____ _____    ______ ____
ROOT
ATOM      1  C   UNL     1       3.159   6.736  18.678  0.00  0.00    +0.000 A 
ATOM      2  C   UNL     1       2.589   5.509  19.051  0.00  0.00    +0.000 A 
ATOM      3  C   UNL     1       3.334   4.322  19.157  0.00  0.00    +0.000 A 
ATOM      4  C   UNL     1       4.723   4.440  18.896  0.00  0.00    +0.000 A 
ATOM      5  C   UNL     1       5.341   5.640  18.451  0.00  0.00    +0.000 A 
ATOM      6  C   UNL     1       4.517   6.781  18.359  0.00  0.00    +0.000 A 
ENDROOT
BRANCH   1  12
ATOM      7  C   UNL     1       0.305   9.992  21.852  0.00  0.00    +0.000 C 
ATOM      8  N   UNL     1       1.117   9.280  22.549  0.00  0.00    +0.000 NA
ATOM      9  N   UNL     1       0.219  10.088  20.496  0.00  0.00    +0.000 N 
ATOM     10  C   UNL     1       0.961   9.417  19.590  0.00  0.00    +0.000 A 
ATOM     11  N   UNL     1       1.610   8.296  19.781  0.00  0.00    +0.000 NA
ATOM     12  C   UNL     1       2.314   7.936  18.636  0.00  0.00    +0.000 A 
ATOM     13  N   UNL     1       2.190   8.712  17.551  0.00  0.00    +0.000 NA
ATOM     14  S   UNL     1       1.162   9.960  17.964  0.00  0.00    +0.000 S 
ATOM     15  H   UNL     1       0.979   9.489  23.538  0.00  0.00    +0.000 HD
ATOM     16  H   UNL     1      -0.337  10.866  20.171  0.00  0.00    +0.000 HD
BRANCH   7  18
ATOM     17  C   UNL     1      -0.426  12.614  21.912  0.00  0.00    +0.000 C 
ATOM     18  S   UNL     1      -0.803  11.036  22.716  0.00  0.00    +0.000 S 
ENDBRANCH   7  18
ENDBRANCH   1  12
BRANCH   3  19
ATOM     19  C   UNL     1       2.607   3.002  19.519  0.00  0.00    +0.000 C 
ATOM     20  C   UNL     1       1.059   3.088  19.382  0.00  0.00    +0.000 C 
ATOM     21  C   UNL     1       3.035   1.869  18.559  0.00  0.00    +0.000 C 
ATOM     22  C   UNL     1       2.875   2.574  20.976  0.00  0.00    +0.000 C 
ENDBRANCH   3  19
BRANCH   5  23
ATOM     23  C   UNL     1       6.829   5.719  18.020  0.00  0.00    +0.000 C 
ATOM     24  C   UNL     1       7.745   5.582  19.260  0.00  0.00    +0.000 C 
ATOM     25  C   UNL     1       7.251   4.578  17.053  0.00  0.00    +0.000 C 
ATOM     26  C   UNL     1       7.150   7.037  17.285  0.00  0.00    +0.000 C 
ENDBRANCH   5  23
BRANCH   4  27
ATOM     27  O   UNL     1       5.535   3.361  19.115  0.00  0.00    +0.000 OA
ATOM     28  H   UNL     1       6.362   3.535  18.640  0.00  0.00    +0.000 HD
ENDBRANCH   4  27
TORSDOF 5
ENDMDL
MODEL 3
REMARK VINA RESULT:      -8.5      0.298      1.247
REMARK  Name = 
REMARK  12 active torsions:
REMARK  status: ('A' for Active; 'I' for Inactive)
REMARK    1  A    between atoms: C_1  and  S_2
REMARK    2  A    between atoms: S_2  and  C_3
REMARK    3  A    between atoms: C_8  and  C_9
REMARK    4  A    between atoms: C_11  and  C_12
REMARK    5  A    between atoms: C_12  and  C_13
REMARK    6  A    between atoms: C_12  and  C_14
REMARK    7  A    between atoms: C_12  and  C_15
REMARK    8  A    between atoms: C_16  and  O_17
REMARK    9  A    between atoms: C_18  and  C_19
REMARK   10  A    between atoms: C_19  and  C_20
REMARK   11  A    between atoms: C_19  and  C_21
REMARK   12  A    between atoms: C_19  and  C_22
REMARK                            x       y       z     vdW  Elec       q    Type
REMARK                         _______ _______ _______ _____ _____    ______ ____
ROOT
ATOM      1  C   UNL     1       3.127   6.755  18.710  0.00  0.00    +0.000 A 
ATOM      2  C   UNL     1       2.555   5.542  19.122  0.00  0.00    +0.000 A 
ATOM      3  C   UNL     1       3.292   4.351  19.247  0.00  0.00    +0.000 A 
ATOM      4  C   UNL     1       4.678   4.452  18.962  0.00  0.00    +0.000 A 
ATOM      5  C   UNL     1       5.298   5.636  18.477  0.00  0.00    +0.000 A 
ATOM      6  C   UNL     1       4.481   6.781  18.369  0.00  0.00    +0.000 A 
ENDROOT
BRANCH   1  12
ATOM      7  C   UNL     1       0.288  10.069  21.835  0.00  0.00    +0.000 C 
ATOM      8  N   UNL     1       1.094   9.360  22.543  0.00  0.00    +0.000 NA
ATOM      9  N   UNL     1       0.206  10.149  20.478  0.00  0.00    +0.000 N 
ATOM     10  C   UNL     1       0.945   9.461  19.583  0.00  0.00    +0.000 A 
ATOM     11  N   UNL     1       1.587   8.339  19.790  0.00  0.00    +0.000 NA
ATOM     12  C   UNL     1       2.291   7.959  18.650  0.00  0.00    +0.000 A 
ATOM     13  N   UNL     1       2.174   8.722  17.556  0.00  0.00    +0.000 NA
ATOM     14  S   UNL     1       1.154   9.981  17.951  0.00  0.00    +0.000 S 
ATOM     15  H   UNL     1       0.955   9.583  23.530  0.00  0.00    +0.000 HD
ATOM     16  H   UNL     1      -0.345  10.925  20.142  0.00  0.00    +0.000 HD
BRANCH   7  18
ATOM     17  C   UNL     1      -1.499  12.046  21.279  0.00  0.00    +0.000 C 
ATOM     18  S   UNL     1      -0.815  11.132  22.683  0.00  0.00    +0.000 S 
ENDBRANCH   7  18
ENDBRANCH   1  12
BRANCH   3  19
ATOM     19  C   UNL     1       2.562   3.046  19.654  0.00  0.00    +0.000 C 
ATOM     20  C   UNL     1       2.918   2.559  21.089  0.00  0.00    +0.000 C 
ATOM     21  C   UNL     1       1.033   3.266  19.670  0.00  0.00    +0.000 C 
ATOM     22  C   UNL     1       2.907   1.873  18.715  0.00  0.00    +0.000 C 
ENDBRANCH   3  19
BRANCH   5  23
ATOM     23  C   UNL     1       6.780   5.693  18.021  0.00  0.00    +0.000 C 
ATOM     24  C   UNL     1       7.059   4.567  16.997  0.00  0.00    +0.000 C 
ATOM     25  C   UNL     1       7.152   7.020  17.305  0.00  0.00    +0.000 C 
ATOM     26  C   UNL     1       7.756   5.564  19.209  0.00  0.00    +0.000 C 
ENDBRANCH   5  23
BRANCH   4  27
ATOM     27  O   UNL     1       5.486   3.373  19.195  0.00  0.00    +0.000 OA
ATOM     28  H   UNL     1       5.748   3.418  20.128  0.00  0.00    +0.000 HD
ENDBRANCH   4  27
TORSDOF 5
ENDMDL
MODEL 4
REMARK VINA RESULT:      -8.3      0.696      3.719
REMARK  Name = 
REMARK  12 active torsions:
REMARK  status: ('A' for Active; 'I' for Inactive)
REMARK    1  A    between atoms: C_1  and  S_2
REMARK    2  A    between atoms: S_2  and  C_3
REMARK    3  A    between atoms: C_8  and  C_9
REMARK    4  A    between atoms: C_11  and  C_12
REMARK    5  A    between atoms: C_12  and  C_13
REMARK    6  A    between atoms: C_12  and  C_14
REMARK    7  A    between atoms: C_12  and  C_15
REMARK    8  A    between atoms: C_16  and  O_17
REMARK    9  A    between atoms: C_18  and  C_19
REMARK   10  A    between atoms: C_19  and  C_20
REMARK   11  A    between atoms: C_19  and  C_21
REMARK   12  A    between atoms: C_19  and  C_22
REMARK                            x       y       z     vdW  Elec       q    Type
REMARK                         _______ _______ _______ _____ _____    ______ ____
ROOT
ATOM      1  C   UNL     1       2.966   6.887  18.375  0.00  0.00    +0.000 A 
ATOM      2  C   UNL     1       4.246   6.841  17.802  0.00  0.00    +0.000 A 
ATOM      3  C   UNL     1       4.968   5.646  17.637  0.00  0.00    +0.000 A 
ATOM      4  C   UNL     1       4.306   4.464  18.057  0.00  0.00    +0.000 A 
ATOM      5  C   UNL     1       3.041   4.457  18.705  0.00  0.00    +0.000 A 
ATOM      6  C   UNL     1       2.393   5.702  18.842  0.00  0.00    +0.000 A 
ENDROOT
BRANCH   1  12
ATOM      7  C   UNL     1       0.232   9.954  21.829  0.00  0.00    +0.000 C 
ATOM      8  N   UNL     1       0.897   9.051  22.456  0.00  0.00    +0.000 NA
ATOM      9  N   UNL     1       0.274  10.264  20.503  0.00  0.00    +0.000 N 
ATOM     10  C   UNL     1       1.011   9.650  19.554  0.00  0.00    +0.000 A 
ATOM     11  N   UNL     1       1.513   8.442  19.607  0.00  0.00    +0.000 NA
ATOM     12  C   UNL     1       2.268   8.174  18.468  0.00  0.00    +0.000 A 
ATOM     13  N   UNL     1       2.324   9.114  17.516  0.00  0.00    +0.000 NA
ATOM     14  S   UNL     1       1.411  10.403  18.053  0.00  0.00    +0.000 S 
ATOM     15  H   UNL     1       0.699   9.123  23.455  0.00  0.00    +0.000 HD
ATOM     16  H   UNL     1      -0.162  11.144  20.270  0.00  0.00    +0.000 HD
BRANCH   7  18
ATOM     17  C   UNL     1      -0.544  12.562  21.927  0.00  0.00    +0.000 C 
ATOM     18  S   UNL     1      -0.822  10.986  22.772  0.00  0.00    +0.000 S 
ENDBRANCH   7  18
ENDBRANCH   1  12
BRANCH   3  19
ATOM     19  C   UNL     1       6.399   5.700  17.045  0.00  0.00    +0.000 C 
ATOM     20  C   UNL     1       7.386   4.702  17.718  0.00  0.00    +0.000 C 
ATOM     21  C   UNL     1       6.381   5.305  15.551  0.00  0.00    +0.000 C 
ATOM     22  C   UNL     1       7.039   7.094  17.204  0.00  0.00    +0.000 C 
ENDBRANCH   3  19
BRANCH   5  23
ATOM     23  C   UNL     1       2.399   3.177  19.300  0.00  0.00    +0.000 C 
ATOM     24  C   UNL     1       3.337   2.563  20.367  0.00  0.00    +0.000 C 
ATOM     25  C   UNL     1       1.051   3.445  20.024  0.00  0.00    +0.000 C 
ATOM     26  C   UNL     1       2.094   2.124  18.214  0.00  0.00    +0.000 C 
ENDBRANCH   5  23
BRANCH   4  27
ATOM     27  O   UNL     1       4.885   3.250  17.801  0.00  0.00    +0.000 OA
ATOM     28  H   UNL     1       4.262   2.757  17.247  0.00  0.00    +0.000 HD
ENDBRANCH   4  27
TORSDOF 5
ENDMDL
MODEL 5
REMARK VINA RESULT:      -8.3      0.707      3.718
REMARK  Name = 
REMARK  12 active torsions:
REMARK  status: ('A' for Active; 'I' for Inactive)
REMARK    1  A    between atoms: C_1  and  S_2
REMARK    2  A    between atoms: S_2  and  C_3
REMARK    3  A    between atoms: C_8  and  C_9
REMARK    4  A    between atoms: C_11  and  C_12
REMARK    5  A    between atoms: C_12  and  C_13
REMARK    6  A    between atoms: C_12  and  C_14
REMARK    7  A    between atoms: C_12  and  C_15
REMARK    8  A    between atoms: C_16  and  O_17
REMARK    9  A    between atoms: C_18  and  C_19
REMARK   10  A    between atoms: C_19  and  C_20
REMARK   11  A    between atoms: C_19  and  C_21
REMARK   12  A    between atoms: C_19  and  C_22
REMARK                            x       y       z     vdW  Elec       q    Type
REMARK                         _______ _______ _______ _____ _____    ______ ____
ROOT
ATOM      1  C   UNL     1       2.925   6.912  18.409  0.00  0.00    +0.000 A 
ATOM      2  C   UNL     1       4.198   6.855  17.824  0.00  0.00    +0.000 A 
ATOM      3  C   UNL     1       4.912   5.655  17.660  0.00  0.00    +0.000 A 
ATOM      4  C   UNL     1       4.249   4.479  18.096  0.00  0.00    +0.000 A 
ATOM      5  C   UNL     1       2.990   4.484  18.756  0.00  0.00    +0.000 A 
ATOM      6  C   UNL     1       2.349   5.733  18.889  0.00  0.00    +0.000 A 
ENDROOT
BRANCH   1  12
ATOM      7  C   UNL     1       0.174   9.985  21.844  0.00  0.00    +0.000 C 
ATOM      8  N   UNL     1       0.827   9.075  22.476  0.00  0.00    +0.000 NA
ATOM      9  N   UNL     1       0.232  10.299  20.521  0.00  0.00    +0.000 N 
ATOM     10  C   UNL     1       0.975   9.684  19.577  0.00  0.00    +0.000 A 
ATOM     11  N   UNL     1       1.468   8.472  19.631  0.00  0.00    +0.000 NA
ATOM     12  C   UNL     1       2.233   8.203  18.499  0.00  0.00    +0.000 A 
ATOM     13  N   UNL     1       2.306   9.146  17.551  0.00  0.00    +0.000 NA
ATOM     14  S   UNL     1       1.395  10.439  18.083  0.00  0.00    +0.000 S 
ATOM     15  H   UNL     1       0.619   9.145  23.473  0.00  0.00    +0.000 HD
ATOM     16  H   UNL     1      -0.196  11.183  20.286  0.00  0.00    +0.000 HD
BRANCH   7  18
ATOM     17  C   UNL     1      -0.486  12.620  22.032  0.00  0.00    +0.000 C 
ATOM     18  S   UNL     1      -0.883  11.020  22.781  0.00  0.00    +0.000 S 
ENDBRANCH   7  18
ENDBRANCH   1  12
BRANCH   3  19
ATOM     19  C   UNL     1       6.338   5.698  17.055  0.00  0.00    +0.000 C 
ATOM     20  C   UNL     1       6.996   7.108  17.117  0.00  0.00    +0.000 C 
ATOM     21  C   UNL     1       7.289   4.773  17.847  0.00  0.00    +0.000 C 
ATOM     22  C   UNL     1       6.347   5.297  15.566  0.00  0.00    +0.000 C 
ENDBRANCH   3  19
BRANCH   5  23
ATOM     23  C   UNL     1       2.347   3.211  19.366  0.00  0.00    +0.000 C 
ATOM     24  C   UNL     1       0.989   3.568  20.017  0.00  0.00    +0.000 C 
ATOM     25  C   UNL     1       2.036   2.113  18.311  0.00  0.00    +0.000 C 
ATOM     26  C   UNL     1       3.263   2.545  20.413  0.00  0.00    +0.000 C 
ENDBRANCH   5  23
BRANCH   4  27
ATOM     27  O   UNL     1       4.819   3.261  17.843  0.00  0.00    +0.000 OA
ATOM     28  H   UNL     1       5.159   3.296  16.936  0.00  0.00    +0.000 HD
ENDBRANCH   4  27
TORSDOF 5
ENDMDL
MODEL 6
REMARK VINA RESULT:      -8.3      0.929      1.385
REMARK  Name = 
REMARK  12 active torsions:
REMARK  status: ('A' for Active; 'I' for Inactive)
REMARK    1  A    between atoms: C_1  and  S_2
REMARK    2  A    between atoms: S_2  and  C_3
REMARK    3  A    between atoms: C_8  and  C_9
REMARK    4  A    between atoms: C_11  and  C_12
REMARK    5  A    between atoms: C_12  and  C_13
REMARK    6  A    between atoms: C_12  and  C_14
REMARK    7  A    between atoms: C_12  and  C_15
REMARK    8  A    between atoms: C_16  and  O_17
REMARK    9  A    between atoms: C_18  and  C_19
REMARK   10  A    between atoms: C_19  and  C_20
REMARK   11  A    between atoms: C_19  and  C_21
REMARK   12  A    between atoms: C_19  and  C_22
REMARK                            x       y       z     vdW  Elec       q    Type
REMARK                         _______ _______ _______ _____ _____    ______ ____
ROOT
ATOM      1  C   UNL     1       2.925   6.697  18.341  0.00  0.00    +0.000 A 
ATOM      2  C   UNL     1       2.339   5.634  19.046  0.00  0.00    +0.000 A 
ATOM      3  C   UNL     1       2.876   4.335  19.055  0.00  0.00    +0.000 A 
ATOM      4  C   UNL     1       4.082   4.161  18.328  0.00  0.00    +0.000 A 
ATOM      5  C   UNL     1       4.682   5.182  17.542  0.00  0.00    +0.000 A 
ATOM      6  C   UNL     1       4.070   6.453  17.580  0.00  0.00    +0.000 A 
ENDROOT
BRANCH   1  12
ATOM      7  C   UNL     1       0.265   9.914  21.715  0.00  0.00    +0.000 C 
ATOM      8  N   UNL     1       0.829   8.954  22.357  0.00  0.00    +0.000 NA
ATOM      9  N   UNL     1       0.393  10.237  20.398  0.00  0.00    +0.000 N 
ATOM     10  C   UNL     1       1.127   9.583  19.474  0.00  0.00    +0.000 A 
ATOM     11  N   UNL     1       1.534   8.340  19.529  0.00  0.00    +0.000 NA
ATOM     12  C   UNL     1       2.320   8.031  18.423  0.00  0.00    +0.000 A 
ATOM     13  N   UNL     1       2.492   8.977  17.491  0.00  0.00    +0.000 NA
ATOM     14  S   UNL     1       1.653  10.324  18.006  0.00  0.00    +0.000 S 
ATOM     15  H   UNL     1       0.590   9.028  23.346  0.00  0.00    +0.000 HD
ATOM     16  H   UNL     1       0.035  11.151  20.160  0.00  0.00    +0.000 HD
BRANCH   7  18
ATOM     17  C   UNL     1      -1.448  11.983  21.267  0.00  0.00    +0.000 C 
ATOM     18  S   UNL     1      -0.754  11.008  22.626  0.00  0.00    +0.000 S 
ENDBRANCH   7  18
ENDBRANCH   1  12
BRANCH   3  19
ATOM     19  C   UNL     1       2.128   3.211  19.816  0.00  0.00    +0.000 C 
ATOM     20  C   UNL     1       0.768   3.670  20.418  0.00  0.00    +0.000 C 
ATOM     21  C   UNL     1       1.776   2.052  18.857  0.00  0.00    +0.000 C 
ATOM     22  C   UNL     1       2.950   2.670  21.004  0.00  0.00    +0.000 C 
ENDBRANCH   3  19
BRANCH   5  23
ATOM     23  C   UNL     1       5.911   4.938  16.629  0.00  0.00    +0.000 C 
ATOM     24  C   UNL     1       6.162   6.180  15.740  0.00  0.00    +0.000 C 
ATOM     25  C   UNL     1       7.229   4.710  17.419  0.00  0.00    +0.000 C 
ATOM     26  C   UNL     1       5.731   3.693  15.736  0.00  0.00    +0.000 C 
ENDBRANCH   5  23
BRANCH   4  27
ATOM     27  O   UNL     1       4.738   2.963  18.404  0.00  0.00    +0.000 OA
ATOM     28  H   UNL     1       4.903   2.677  17.492  0.00  0.00    +0.000 HD
ENDBRANCH   4  27
TORSDOF 5
ENDMDL
MODEL 7
REMARK VINA RESULT:      -7.5      1.040      1.581
REMARK  Name = 
REMARK  12 active torsions:
REMARK  status: ('A' for Active; 'I' for Inactive)
REMARK    1  A    between atoms: C_1  and  S_2
REMARK    2  A    between atoms: S_2  and  C_3
REMARK    3  A    between atoms: C_8  and  C_9
REMARK    4  A    between atoms: C_11  and  C_12
REMARK    5  A    between atoms: C_12  and  C_13
REMARK    6  A    between atoms: C_12  and  C_14
REMARK    7  A    between atoms: C_12  and  C_15
REMARK    8  A    between atoms: C_16  and  O_17
REMARK    9  A    between atoms: C_18  and  C_19
REMARK   10  A    between atoms: C_19  and  C_20
REMARK   11  A    between atoms: C_19  and  C_21
REMARK   12  A    between atoms: C_19  and  C_22
REMARK                            x       y       z     vdW  Elec       q    Type
REMARK                         _______ _______ _______ _____ _____    ______ ____
ROOT
ATOM      1  C   UNL     1       3.084   6.768  18.243  0.00  0.00    +0.000 A 
ATOM      2  C   UNL     1       2.423   5.752  18.949  0.00  0.00    +0.000 A 
ATOM      3  C   UNL     1       2.921   4.441  19.047  0.00  0.00    +0.000 A 
ATOM      4  C   UNL     1       4.168   4.206  18.412  0.00  0.00    +0.000 A 
ATOM      5  C   UNL     1       4.847   5.178  17.628  0.00  0.00    +0.000 A 
ATOM      6  C   UNL     1       4.270   6.464  17.573  0.00  0.00    +0.000 A 
ENDROOT
BRANCH   1  12
ATOM      7  C   UNL     1       0.450  10.258  21.358  0.00  0.00    +0.000 C 
ATOM      8  N   UNL     1       0.979   9.327  22.069  0.00  0.00    +0.000 NA
ATOM      9  N   UNL     1       0.610  10.494  20.026  0.00  0.00    +0.000 N 
ATOM     10  C   UNL     1       1.342   9.765  19.159  0.00  0.00    +0.000 A 
ATOM     11  N   UNL     1       1.716   8.518  19.300  0.00  0.00    +0.000 NA
ATOM     12  C   UNL     1       2.513   8.120  18.230  0.00  0.00    +0.000 A 
ATOM     13  N   UNL     1       2.725   9.000  17.243  0.00  0.00    +0.000 NA
ATOM     14  S   UNL     1       1.912  10.397  17.657  0.00  0.00    +0.000 S 
ATOM     15  H   UNL     1       0.725   9.469  23.048  0.00  0.00    +0.000 HD
ATOM     16  H   UNL     1       0.280  11.399  19.724  0.00  0.00    +0.000 HD
BRANCH   7  18
ATOM     17  C   UNL     1      -1.292  10.372  23.447  0.00  0.00    +0.000 C 
ATOM     18  S   UNL     1      -0.554  11.433  22.179  0.00  0.00    +0.000 S 
ENDBRANCH   7  18
ENDBRANCH   1  12
BRANCH   3  19
ATOM     19  C   UNL     1       2.093   3.370  19.801  0.00  0.00    +0.000 C 
ATOM     20  C   UNL     1       2.833   2.765  21.030  0.00  0.00    +0.000 C 
ATOM     21  C   UNL     1       0.800   3.992  20.373  0.00  0.00    +0.000 C 
ATOM     22  C   UNL     1       1.736   2.173  18.897  0.00  0.00    +0.000 C 
ENDBRANCH   3  19
BRANCH   5  23
ATOM     23  C   UNL     1       6.128   4.865  16.811  0.00  0.00    +0.000 C 
ATOM     24  C   UNL     1       5.867   3.674  15.858  0.00  0.00    +0.000 C 
ATOM     25  C   UNL     1       6.583   6.042  15.905  0.00  0.00    +0.000 C 
ATOM     26  C   UNL     1       7.331   4.542  17.722  0.00  0.00    +0.000 C 
ENDBRANCH   5  23
BRANCH   4  27
ATOM     27  O   UNL     1       4.783   2.996  18.581  0.00  0.00    +0.000 OA
ATOM     28  H   UNL     1       4.500   2.434  17.844  0.00  0.00    +0.000 HD
ENDBRANCH   4  27
TORSDOF 5
ENDMDL
