MODEL 1
REMARK VINA RESULT:      -6.7      0.000      0.000
REMARK  Name = 
REMARK  9 active torsions:
REMARK  status: ('A' for Active; 'I' for Inactive)
REMARK    1  A    between atoms: C_1  and  C_2
REMARK    2  A    between atoms: C_7  and  C_8
REMARK    3  A    between atoms: C_11  and  N_12
REMARK    4  A    between atoms: N_12  and  C_13
REMARK    5  A    between atoms: N_12  and  C_14
REMARK    6  A    between atoms: C_17  and  C_18
REMARK    7  A    between atoms: C_23  and  C_24
REMARK    8  A    between atoms: C_26  and  N_27
REMARK    9  A    between atoms: C_28  and  N_29
REMARK                            x       y       z     vdW  Elec       q    Type
REMARK                         _______ _______ _______ _____ _____    ______ ____
ROOT
ATOM      1  C   UNL     1      -1.858   9.885  17.021  0.00  0.00    +0.000 C 
ATOM      2  C   UNL     1      -2.235  10.978  17.952  0.00  0.00    +0.000 A 
ATOM      3  N   UNL     1      -3.541  11.234  18.159  0.00  0.00    +0.000 NA
ATOM      4  N   UNL     1      -3.542  12.245  19.044  0.00  0.00    +0.000 N 
ATOM      5  C   UNL     1      -2.292  12.631  19.396  0.00  0.00    +0.000 A 
ATOM      6  C   UNL     1      -1.403  11.848  18.711  0.00  0.00    +0.000 A 
ATOM      7  C   UNL     1       0.077  12.081  18.876  0.00  0.00    +0.000 C 
ATOM      8  C   UNL     1       0.373  13.143  19.974  0.00  0.00    +0.000 C 
ATOM      9  C   UNL     1      -0.627  13.817  20.624  0.00  0.00    +0.000 C 
ATOM     10  N   UNL     1      -1.953  13.591  20.271  0.00  0.00    +0.000 N 
ATOM     11  H   UNL     1      -4.433  12.602  19.368  0.00  0.00    +0.000 HD
ATOM     12  H   UNL     1      -2.625  14.218  20.695  0.00  0.00    +0.000 HD
ENDROOT
BRANCH   8  13
ATOM     13  C   UNL     1       1.835  13.290  20.278  0.00  0.00    +0.000 C 
ATOM     14  O   UNL     1       2.392  12.702  21.200  0.00  0.00    +0.000 OA
ATOM     15  N   UNL     1       2.629  14.153  19.499  0.00  0.00    +0.000 N 
ATOM     16  N   UNL     1       2.319  14.477  18.209  0.00  0.00    +0.000 NA
ATOM     17  C   UNL     1       3.333  15.240  17.806  0.00  0.00    +0.000 A 
ATOM     18  C   UNL     1       4.329  15.393  18.786  0.00  0.00    +0.000 A 
ATOM     19  C   UNL     1       3.853  14.715  19.887  0.00  0.00    +0.000 A 
BRANCH  19  20
ATOM     20  N   UNL     1       4.361  14.588  21.143  0.00  0.00    +0.000 N 
ATOM     21  H   UNL     1       4.211  15.282  21.870  0.00  0.00    +0.000 HD
ATOM     22  H   UNL     1       5.241  14.066  21.274  0.00  0.00    +0.000 HD
ENDBRANCH  19  20
BRANCH  18  23
ATOM     23  C   UNL     1       5.546  16.110  18.677  0.00  0.00    +0.000 C 
ATOM     24  N   UNL     1       6.541  16.701  18.575  0.00  0.00    +0.000 NA
ENDBRANCH  18  23
ENDBRANCH   8  13
BRANCH   7  25
ATOM     25  C   UNL     1       0.674  10.697  19.084  0.00  0.00    +0.000 A 
ATOM     26  C   UNL     1       1.502  10.145  18.099  0.00  0.00    +0.000 A 
ATOM     27  C   UNL     1       2.030   8.854  18.238  0.00  0.00    +0.000 A 
ATOM     28  C   UNL     1       1.833   8.077  19.389  0.00  0.00    +0.000 A 
ATOM     29  C   UNL     1       1.034   8.666  20.382  0.00  0.00    +0.000 A 
ATOM     30  C   UNL     1       0.440   9.930  20.228  0.00  0.00    +0.000 A 
BRANCH  28  31
ATOM     31  N   UNL     1       2.348   6.790  19.497  0.00  0.00    +0.000 N 
ATOM     32  C   UNL     1       1.833   5.847  20.490  0.00  0.00    +0.000 C 
ATOM     33  C   UNL     1       3.081   6.153  18.404  0.00  0.00    +0.000 C 
ENDBRANCH  28  31
ENDBRANCH   7  25
BRANCH   9  34
ATOM     34  N   UNL     1      -0.451  14.702  21.657  0.00  0.00    +0.000 N 
ATOM     35  H   UNL     1      -0.955  14.511  22.514  0.00  0.00    +0.000 HD
ATOM     36  H   UNL     1      -0.487  15.677  21.389  0.00  0.00    +0.000 HD
ENDBRANCH   9  34
TORSDOF 6
ENDMDL
MODEL 2
REMARK VINA RESULT:      -6.4      0.192      1.088
REMARK  Name = 
REMARK  9 active torsions:
REMARK  status: ('A' for Active; 'I' for Inactive)
REMARK    1  A    between atoms: C_1  and  C_2
REMARK    2  A    between atoms: C_7  and  C_8
REMARK    3  A    between atoms: C_11  and  N_12
REMARK    4  A    between atoms: N_12  and  C_13
REMARK    5  A    between atoms: N_12  and  C_14
REMARK    6  A    between atoms: C_17  and  C_18
REMARK    7  A    between atoms: C_23  and  C_24
REMARK    8  A    between atoms: C_26  and  N_27
REMARK    9  A    between atoms: C_28  and  N_29
REMARK                            x       y       z     vdW  Elec       q    Type
REMARK                         _______ _______ _______ _____ _____    ______ ____
ROOT
ATOM      1  C   UNL     1      -1.862   9.975  16.862  0.00  0.00    +0.000 C 
ATOM      2  C   UNL     1      -2.247  11.017  17.847  0.00  0.00    +0.000 A 
ATOM      3  N   UNL     1      -3.555  11.261  18.057  0.00  0.00    +0.000 NA
ATOM      4  N   UNL     1      -3.564  12.223  18.995  0.00  0.00    +0.000 N 
ATOM      5  C   UNL     1      -2.317  12.591  19.375  0.00  0.00    +0.000 A 
ATOM      6  C   UNL     1      -1.421  11.846  18.657  0.00  0.00    +0.000 A 
ATOM      7  C   UNL     1       0.057  12.072  18.845  0.00  0.00    +0.000 C 
ATOM      8  C   UNL     1       0.343  13.075  20.000  0.00  0.00    +0.000 C 
ATOM      9  C   UNL     1      -0.663  13.713  20.677  0.00  0.00    +0.000 C 
ATOM     10  N   UNL     1      -1.986  13.504  20.303  0.00  0.00    +0.000 N 
ATOM     11  H   UNL     1      -4.458  12.562  19.330  0.00  0.00    +0.000 HD
ATOM     12  H   UNL     1      -2.662  14.107  20.754  0.00  0.00    +0.000 HD
ENDROOT
BRANCH   8  13
ATOM     13  C   UNL     1       1.802  13.207  20.322  0.00  0.00    +0.000 C 
ATOM     14  O   UNL     1       2.336  12.634  21.267  0.00  0.00    +0.000 OA
ATOM     15  N   UNL     1       2.622  14.037  19.533  0.00  0.00    +0.000 N 
ATOM     16  N   UNL     1       2.336  14.333  18.231  0.00  0.00    +0.000 NA
ATOM     17  C   UNL     1       3.368  15.069  17.824  0.00  0.00    +0.000 A 
ATOM     18  C   UNL     1       4.351  15.233  18.815  0.00  0.00    +0.000 A 
ATOM     19  C   UNL     1       3.848  14.590  19.925  0.00  0.00    +0.000 A 
BRANCH  19  20
ATOM     20  N   UNL     1       4.335  14.488  21.192  0.00  0.00    +0.000 N 
ATOM     21  H   UNL     1       4.602  13.600  21.609  0.00  0.00    +0.000 HD
ATOM     22  H   UNL     1       4.038  15.180  21.898  0.00  0.00    +0.000 HD
ENDBRANCH  19  20
BRANCH  18  23
ATOM     23  C   UNL     1       5.581  15.928  18.706  0.00  0.00    +0.000 C 
ATOM     24  N   UNL     1       6.593  16.488  18.609  0.00  0.00    +0.000 NA
ENDBRANCH  18  23
ENDBRANCH   8  13
BRANCH   7  25
ATOM     25  C   UNL     1       0.654  10.680  18.984  0.00  0.00    +0.000 A 
ATOM     26  C   UNL     1       0.358   9.909  20.114  0.00  0.00    +0.000 A 
ATOM     27  C   UNL     1       0.928   8.642  20.296  0.00  0.00    +0.000 A 
ATOM     28  C   UNL     1       1.755   8.039  19.334  0.00  0.00    +0.000 A 
ATOM     29  C   UNL     1       2.006   8.814  18.190  0.00  0.00    +0.000 A 
ATOM     30  C   UNL     1       1.499  10.113  18.025  0.00  0.00    +0.000 A 
BRANCH  28  31
ATOM     31  N   UNL     1       2.328   6.791  19.545  0.00  0.00    +0.000 N 
ATOM     32  C   UNL     1       3.595   6.421  18.913  0.00  0.00    +0.000 C 
ATOM     33  C   UNL     1       1.978   5.960  20.695  0.00  0.00    +0.000 C 
ENDBRANCH  28  31
ENDBRANCH   7  25
BRANCH   9  34
ATOM     34  N   UNL     1      -0.496  14.542  21.757  0.00  0.00    +0.000 N 
ATOM     35  H   UNL     1       0.296  14.355  22.360  0.00  0.00    +0.000 HD
ATOM     36  H   UNL     1      -1.344  14.741  22.271  0.00  0.00    +0.000 HD
ENDBRANCH   9  34
TORSDOF 6
ENDMDL
MODEL 3
REMARK VINA RESULT:      -6.3      1.686      6.441
REMARK  Name = 
REMARK  9 active torsions:
REMARK  status: ('A' for Active; 'I' for Inactive)
REMARK    1  A    between atoms: C_1  and  C_2
REMARK    2  A    between atoms: C_7  and  C_8
REMARK    3  A    between atoms: C_11  and  N_12
REMARK    4  A    between atoms: N_12  and  C_13
REMARK    5  A    between atoms: N_12  and  C_14
REMARK    6  A    between atoms: C_17  and  C_18
REMARK    7  A    between atoms: C_23  and  C_24
REMARK    8  A    between atoms: C_26  and  N_27
REMARK    9  A    between atoms: C_28  and  N_29
REMARK                            x       y       z     vdW  Elec       q    Type
REMARK                         _______ _______ _______ _____ _____    ______ ____
ROOT
ATOM      1  C   UNL     1      -0.944  14.440  22.016  0.00  0.00    +0.000 C 
ATOM      2  C   UNL     1      -1.706  13.664  21.006  0.00  0.00    +0.000 A 
ATOM      3  N   UNL     1      -3.000  13.972  20.791  0.00  0.00    +0.000 NA
ATOM      4  N   UNL     1      -3.387  13.117  19.829  0.00  0.00    +0.000 N 
ATOM      5  C   UNL     1      -2.389  12.287  19.438  0.00  0.00    +0.000 A 
ATOM      6  C   UNL     1      -1.276  12.592  20.174  0.00  0.00    +0.000 A 
ATOM      7  C   UNL     1      -0.012  11.796  19.979  0.00  0.00    +0.000 C 
ATOM      8  C   UNL     1      -0.142  10.790  18.798  0.00  0.00    +0.000 C 
ATOM      9  C   UNL     1      -1.313  10.627  18.106  0.00  0.00    +0.000 C 
ATOM     10  N   UNL     1      -2.444  11.341  18.488  0.00  0.00    +0.000 N 
ATOM     11  H   UNL     1      -4.338  13.174  19.486  0.00  0.00    +0.000 HD
ATOM     12  H   UNL     1      -3.302  11.072  18.022  0.00  0.00    +0.000 HD
ENDROOT
BRANCH   8  13
ATOM     13  C   UNL     1       1.144  10.091  18.472  0.00  0.00    +0.000 C 
ATOM     14  O   UNL     1       1.944  10.509  17.640  0.00  0.00    +0.000 OA
ATOM     15  N   UNL     1       1.468   8.882  19.118  0.00  0.00    +0.000 N 
ATOM     16  N   UNL     1       0.982   8.552  20.350  0.00  0.00    +0.000 NA
ATOM     17  C   UNL     1       1.568   7.392  20.638  0.00  0.00    +0.000 A 
ATOM     18  C   UNL     1       2.465   6.967  19.642  0.00  0.00    +0.000 A 
ATOM     19  C   UNL     1       2.371   7.919  18.650  0.00  0.00    +0.000 A 
BRANCH  19  20
ATOM     20  N   UNL     1       2.955   7.985  17.422  0.00  0.00    +0.000 N 
ATOM     21  H   UNL     1       2.608   7.469  16.619  0.00  0.00    +0.000 HD
ATOM     22  H   UNL     1       3.969   8.170  17.362  0.00  0.00    +0.000 HD
ENDBRANCH  19  20
BRANCH  18  23
ATOM     23  C   UNL     1       3.271   5.802  19.644  0.00  0.00    +0.000 C 
ATOM     24  N   UNL     1       3.926   4.843  19.658  0.00  0.00    +0.000 NA
ENDBRANCH  18  23
ENDBRANCH   8  13
BRANCH   7  25
ATOM     25  C   UNL     1       1.096  12.834  19.875  0.00  0.00    +0.000 A 
ATOM     26  C   UNL     1       1.130  13.702  18.778  0.00  0.00    +0.000 A 
ATOM     27  C   UNL     1       2.162  14.638  18.627  0.00  0.00    +0.000 A 
ATOM     28  C   UNL     1       3.167  14.818  19.591  0.00  0.00    +0.000 A 
ATOM     29  C   UNL     1       3.090  13.964  20.703  0.00  0.00    +0.000 A 
ATOM     30  C   UNL     1       2.103  12.973  20.834  0.00  0.00    +0.000 A 
BRANCH  28  31
ATOM     31  N   UNL     1       4.194  15.736  19.411  0.00  0.00    +0.000 N 
ATOM     32  C   UNL     1       5.209  15.547  18.374  0.00  0.00    +0.000 C 
ATOM     33  C   UNL     1       4.103  17.110  19.903  0.00  0.00    +0.000 C 
ENDBRANCH  28  31
ENDBRANCH   7  25
BRANCH   9  34
ATOM     34  N   UNL     1      -1.484   9.826  17.006  0.00  0.00    +0.000 N 
ATOM     35  H   UNL     1      -2.105   9.034  17.108  0.00  0.00    +0.000 HD
ATOM     36  H   UNL     1      -0.629   9.596  16.515  0.00  0.00    +0.000 HD
ENDBRANCH   9  34
TORSDOF 6
ENDMDL
MODEL 4
REMARK VINA RESULT:      -6.1      3.286      6.302
REMARK  Name = 
REMARK  9 active torsions:
REMARK  status: ('A' for Active; 'I' for Inactive)
REMARK    1  A    between atoms: C_1  and  C_2
REMARK    2  A    between atoms: C_7  and  C_8
REMARK    3  A    between atoms: C_11  and  N_12
REMARK    4  A    between atoms: N_12  and  C_13
REMARK    5  A    between atoms: N_12  and  C_14
REMARK    6  A    between atoms: C_17  and  C_18
REMARK    7  A    between atoms: C_23  and  C_24
REMARK    8  A    between atoms: C_26  and  N_27
REMARK    9  A    between atoms: C_28  and  N_29
REMARK                            x       y       z     vdW  Elec       q    Type
REMARK                         _______ _______ _______ _____ _____    ______ ____
ROOT
ATOM      1  C   UNL     1      -7.101  12.770  20.673  0.00  0.00    +0.000 C 
ATOM      2  C   UNL     1      -6.584  12.551  19.299  0.00  0.00    +0.000 A 
ATOM      3  N   UNL     1      -7.407  12.764  18.254  0.00  0.00    +0.000 NA
ATOM      4  N   UNL     1      -6.647  12.499  17.177  0.00  0.00    +0.000 N 
ATOM      5  C   UNL     1      -5.386  12.128  17.508  0.00  0.00    +0.000 A 
ATOM      6  C   UNL     1      -5.291  12.136  18.873  0.00  0.00    +0.000 A 
ATOM      7  C   UNL     1      -4.000  11.723  19.533  0.00  0.00    +0.000 C 
ATOM      8  C   UNL     1      -2.873  11.478  18.488  0.00  0.00    +0.000 C 
ATOM      9  C   UNL     1      -3.100  11.559  17.139  0.00  0.00    +0.000 C 
ATOM     10  N   UNL     1      -4.383  11.821  16.671  0.00  0.00    +0.000 N 
ATOM     11  H   UNL     1      -7.058  12.610  16.258  0.00  0.00    +0.000 HD
ATOM     12  H   UNL     1      -4.504  11.733  15.670  0.00  0.00    +0.000 HD
ENDROOT
BRANCH   8  13
ATOM     13  C   UNL     1      -1.534  11.218  19.111  0.00  0.00    +0.000 C 
ATOM     14  O   UNL     1      -1.202  10.124  19.558  0.00  0.00    +0.000 OA
ATOM     15  N   UNL     1      -0.598  12.264  19.224  0.00  0.00    +0.000 N 
ATOM     16  N   UNL     1      -0.593  13.342  18.387  0.00  0.00    +0.000 NA
ATOM     17  C   UNL     1       0.467  14.053  18.767  0.00  0.00    +0.000 A 
ATOM     18  C   UNL     1       1.190  13.447  19.809  0.00  0.00    +0.000 A 
ATOM     19  C   UNL     1       0.478  12.309  20.120  0.00  0.00    +0.000 A 
BRANCH  19  20
ATOM     20  N   UNL     1       0.668  11.379  21.096  0.00  0.00    +0.000 N 
ATOM     21  H   UNL     1       0.550  10.382  20.937  0.00  0.00    +0.000 HD
ATOM     22  H   UNL     1       0.492  11.643  22.078  0.00  0.00    +0.000 HD
ENDBRANCH  19  20
BRANCH  18  23
ATOM     23  C   UNL     1       2.376  13.916  20.425  0.00  0.00    +0.000 C 
ATOM     24  N   UNL     1       3.347  14.291  20.939  0.00  0.00    +0.000 NA
ENDBRANCH  18  23
ENDBRANCH   8  13
BRANCH   7  25
ATOM     25  C   UNL     1      -3.736  12.789  20.586  0.00  0.00    +0.000 A 
ATOM     26  C   UNL     1      -3.658  12.425  21.936  0.00  0.00    +0.000 A 
ATOM     27  C   UNL     1      -3.463  13.387  22.935  0.00  0.00    +0.000 A 
ATOM     28  C   UNL     1      -3.256  14.745  22.647  0.00  0.00    +0.000 A 
ATOM     29  C   UNL     1      -3.297  15.082  21.285  0.00  0.00    +0.000 A 
ATOM     30  C   UNL     1      -3.561  14.140  20.277  0.00  0.00    +0.000 A 
BRANCH  28  31
ATOM     31  N   UNL     1      -3.086  15.687  23.656  0.00  0.00    +0.000 N 
ATOM     32  C   UNL     1      -3.953  16.862  23.750  0.00  0.00    +0.000 C 
ATOM     33  C   UNL     1      -2.373  15.379  24.894  0.00  0.00    +0.000 C 
ENDBRANCH  28  31
ENDBRANCH   7  25
BRANCH   9  34
ATOM     34  N   UNL     1      -2.146  11.439  16.162  0.00  0.00    +0.000 N 
ATOM     35  H   UNL     1      -2.170  12.120  15.412  0.00  0.00    +0.000 HD
ATOM     36  H   UNL     1      -1.996  10.495  15.830  0.00  0.00    +0.000 HD
ENDBRANCH   9  34
TORSDOF 6
ENDMDL
MODEL 5
REMARK VINA RESULT:      -6.0      1.672      6.514
REMARK  Name = 
REMARK  9 active torsions:
REMARK  status: ('A' for Active; 'I' for Inactive)
REMARK    1  A    between atoms: C_1  and  C_2
REMARK    2  A    between atoms: C_7  and  C_8
REMARK    3  A    between atoms: C_11  and  N_12
REMARK    4  A    between atoms: N_12  and  C_13
REMARK    5  A    between atoms: N_12  and  C_14
REMARK    6  A    between atoms: C_17  and  C_18
REMARK    7  A    between atoms: C_23  and  C_24
REMARK    8  A    between atoms: C_26  and  N_27
REMARK    9  A    between atoms: C_28  and  N_29
REMARK                            x       y       z     vdW  Elec       q    Type
REMARK                         _______ _______ _______ _____ _____    ______ ____
ROOT
ATOM      1  C   UNL     1       0.285  15.675  22.098  0.00  0.00    +0.000 C 
ATOM      2  C   UNL     1      -0.696  14.970  21.236  0.00  0.00    +0.000 A 
ATOM      3  N   UNL     1      -1.938  15.475  21.118  0.00  0.00    +0.000 NA
ATOM      4  N   UNL     1      -2.559  14.632  20.275  0.00  0.00    +0.000 N 
ATOM      5  C   UNL     1      -1.755  13.620  19.865  0.00  0.00    +0.000 A 
ATOM      6  C   UNL     1      -0.535  13.784  20.465  0.00  0.00    +0.000 A 
ATOM      7  C   UNL     1       0.556  12.774  20.222  0.00  0.00    +0.000 C 
ATOM      8  C   UNL     1       0.140  11.724  19.151  0.00  0.00    +0.000 C 
ATOM      9  C   UNL     1      -1.109  11.712  18.589  0.00  0.00    +0.000 C 
ATOM     10  N   UNL     1      -2.063  12.632  19.011  0.00  0.00    +0.000 N 
ATOM     11  H   UNL     1      -3.519  14.825  20.019  0.00  0.00    +0.000 HD
ATOM     12  H   UNL     1      -2.998  12.479  18.653  0.00  0.00    +0.000 HD
ENDROOT
BRANCH   8  13
ATOM     13  C   UNL     1       1.255  10.796  18.768  0.00  0.00    +0.000 C 
ATOM     14  O   UNL     1       2.074  11.056  17.891  0.00  0.00    +0.000 OA
ATOM     15  N   UNL     1       1.381   9.549  19.410  0.00  0.00    +0.000 N 
ATOM     16  N   UNL     1       0.907   9.318  20.670  0.00  0.00    +0.000 NA
ATOM     17  C   UNL     1       1.281   8.069  20.941  0.00  0.00    +0.000 A 
ATOM     18  C   UNL     1       2.030   7.483  19.906  0.00  0.00    +0.000 A 
ATOM     19  C   UNL     1       2.063   8.433  18.909  0.00  0.00    +0.000 A 
BRANCH  19  20
ATOM     20  N   UNL     1       2.585   8.387  17.652  0.00  0.00    +0.000 N 
ATOM     21  H   UNL     1       2.218   7.777  16.926  0.00  0.00    +0.000 HD
ATOM     22  H   UNL     1       3.586   8.597  17.520  0.00  0.00    +0.000 HD
ENDBRANCH  19  20
BRANCH  18  23
ATOM     23  C   UNL     1       2.603   6.188  19.880  0.00  0.00    +0.000 C 
ATOM     24  N   UNL     1       3.063   5.122  19.866  0.00  0.00    +0.000 NA
ENDBRANCH  18  23
ENDBRANCH   8  13
BRANCH   7  25
ATOM     25  C   UNL     1       1.799  13.600  19.923  0.00  0.00    +0.000 A 
ATOM     26  C   UNL     1       1.865  14.352  18.744  0.00  0.00    +0.000 A 
ATOM     27  C   UNL     1       3.012  15.086  18.417  0.00  0.00    +0.000 A 
ATOM     28  C   UNL     1       4.120  15.179  19.273  0.00  0.00    +0.000 A 
ATOM     29  C   UNL     1       4.017  14.450  20.469  0.00  0.00    +0.000 A 
ATOM     30  C   UNL     1       2.902  13.653  20.779  0.00  0.00    +0.000 A 
BRANCH  28  31
ATOM     31  N   UNL     1       5.258  15.895  18.918  0.00  0.00    +0.000 N 
ATOM     32  C   UNL     1       5.543  17.205  19.502  0.00  0.00    +0.000 C 
ATOM     33  C   UNL     1       6.425  15.250  18.318  0.00  0.00    +0.000 C 
ENDBRANCH  28  31
ENDBRANCH   7  25
BRANCH   9  34
ATOM     34  N   UNL     1      -1.523  10.876  17.584  0.00  0.00    +0.000 N 
ATOM     35  H   UNL     1      -0.861  10.690  16.841  0.00  0.00    +0.000 HD
ATOM     36  H   UNL     1      -2.458  11.058  17.241  0.00  0.00    +0.000 HD
ENDBRANCH   9  34
TORSDOF 6
ENDMDL
MODEL 6
REMARK VINA RESULT:      -6.0      2.828      6.331
REMARK  Name = 
REMARK  9 active torsions:
REMARK  status: ('A' for Active; 'I' for Inactive)
REMARK    1  A    between atoms: C_1  and  C_2
REMARK    2  A    between atoms: C_7  and  C_8
REMARK    3  A    between atoms: C_11  and  N_12
REMARK    4  A    between atoms: N_12  and  C_13
REMARK    5  A    between atoms: N_12  and  C_14
REMARK    6  A    between atoms: C_17  and  C_18
REMARK    7  A    between atoms: C_23  and  C_24
REMARK    8  A    between atoms: C_26  and  N_27
REMARK    9  A    between atoms: C_28  and  N_29
REMARK                            x       y       z     vdW  Elec       q    Type
REMARK                         _______ _______ _______ _____ _____    ______ ____
ROOT
ATOM      1  C   UNL     1       2.762  12.236  17.875  0.00  0.00    +0.000 C 
ATOM      2  C   UNL     1       2.632  13.566  18.522  0.00  0.00    +0.000 A 
ATOM      3  N   UNL     1       3.338  14.601  18.027  0.00  0.00    +0.000 NA
ATOM      4  N   UNL     1       2.992  15.639  18.808  0.00  0.00    +0.000 N 
ATOM      5  C   UNL     1       2.103  15.292  19.770  0.00  0.00    +0.000 A 
ATOM      6  C   UNL     1       1.839  13.956  19.637  0.00  0.00    +0.000 A 
ATOM      7  C   UNL     1       0.904  13.281  20.608  0.00  0.00    +0.000 C 
ATOM      8  C   UNL     1       0.239  14.305  21.573  0.00  0.00    +0.000 C 
ATOM      9  C   UNL     1       0.562  15.636  21.557  0.00  0.00    +0.000 C 
ATOM     10  N   UNL     1       1.546  16.097  20.690  0.00  0.00    +0.000 N 
ATOM     11  H   UNL     1       3.394  16.547  18.609  0.00  0.00    +0.000 HD
ATOM     12  H   UNL     1       1.826  17.060  20.827  0.00  0.00    +0.000 HD
ENDROOT
BRANCH   8  13
ATOM     13  C   UNL     1      -0.814  13.694  22.449  0.00  0.00    +0.000 C 
ATOM     14  O   UNL     1      -0.563  13.146  23.518  0.00  0.00    +0.000 OA
ATOM     15  N   UNL     1      -2.162  13.716  22.043  0.00  0.00    +0.000 N 
ATOM     16  N   UNL     1      -2.661  14.660  21.193  0.00  0.00    +0.000 NA
ATOM     17  C   UNL     1      -3.962  14.385  21.118  0.00  0.00    +0.000 A 
ATOM     18  C   UNL     1      -4.343  13.305  21.933  0.00  0.00    +0.000 A 
ATOM     19  C   UNL     1      -3.171  12.859  22.503  0.00  0.00    +0.000 A 
BRANCH  19  20
ATOM     20  N   UNL     1      -2.925  11.797  23.320  0.00  0.00    +0.000 N 
ATOM     21  H   UNL     1      -3.147  10.840  23.059  0.00  0.00    +0.000 HD
ATOM     22  H   UNL     1      -2.942  11.940  24.342  0.00  0.00    +0.000 HD
ENDBRANCH  19  20
BRANCH  18  23
ATOM     23  C   UNL     1      -5.644  12.773  22.111  0.00  0.00    +0.000 C 
ATOM     24  N   UNL     1      -6.715  12.346  22.248  0.00  0.00    +0.000 NA
ENDBRANCH  18  23
ENDBRANCH   8  13
BRANCH   7  25
ATOM     25  C   UNL     1      -0.030  12.450  19.741  0.00  0.00    +0.000 A 
ATOM     26  C   UNL     1      -0.168  11.079  19.988  0.00  0.00    +0.000 A 
ATOM     27  C   UNL     1      -0.984  10.276  19.180  0.00  0.00    +0.000 A 
ATOM     28  C   UNL     1      -1.766  10.799  18.139  0.00  0.00    +0.000 A 
ATOM     29  C   UNL     1      -1.645  12.183  17.935  0.00  0.00    +0.000 A 
ATOM     30  C   UNL     1      -0.778  12.989  18.691  0.00  0.00    +0.000 A 
BRANCH  28  31
ATOM     31  N   UNL     1      -2.552   9.981  17.336  0.00  0.00    +0.000 N 
ATOM     32  C   UNL     1      -3.734   9.304  17.868  0.00  0.00    +0.000 C 
ATOM     33  C   UNL     1      -2.534  10.078  15.877  0.00  0.00    +0.000 C 
ENDBRANCH  28  31
ENDBRANCH   7  25
BRANCH   9  34
ATOM     34  N   UNL     1      -0.038  16.610  22.314  0.00  0.00    +0.000 N 
ATOM     35  H   UNL     1       0.342  17.546  22.241  0.00  0.00    +0.000 HD
ATOM     36  H   UNL     1      -0.236  16.340  23.269  0.00  0.00    +0.000 HD
ENDBRANCH   9  34
TORSDOF 6
ENDMDL
MODEL 7
REMARK VINA RESULT:      -6.0      3.653      6.571
REMARK  Name = 
REMARK  9 active torsions:
REMARK  status: ('A' for Active; 'I' for Inactive)
REMARK    1  A    between atoms: C_1  and  C_2
REMARK    2  A    between atoms: C_7  and  C_8
REMARK    3  A    between atoms: C_11  and  N_12
REMARK    4  A    between atoms: N_12  and  C_13
REMARK    5  A    between atoms: N_12  and  C_14
REMARK    6  A    between atoms: C_17  and  C_18
REMARK    7  A    between atoms: C_23  and  C_24
REMARK    8  A    between atoms: C_26  and  N_27
REMARK    9  A    between atoms: C_28  and  N_29
REMARK                            x       y       z     vdW  Elec       q    Type
REMARK                         _______ _______ _______ _____ _____    ______ ____
ROOT
ATOM      1  C   UNL     1      -7.517  12.746  20.295  0.00  0.00    +0.000 C 
ATOM      2  C   UNL     1      -6.822  12.528  19.001  0.00  0.00    +0.000 A 
ATOM      3  N   UNL     1      -7.517  12.683  17.858  0.00  0.00    +0.000 NA
ATOM      4  N   UNL     1      -6.617  12.436  16.890  0.00  0.00    +0.000 N 
ATOM      5  C   UNL     1      -5.392  12.131  17.384  0.00  0.00    +0.000 A 
ATOM      6  C   UNL     1      -5.469  12.168  18.750  0.00  0.00    +0.000 A 
ATOM      7  C   UNL     1      -4.254  11.828  19.574  0.00  0.00    +0.000 C 
ATOM      8  C   UNL     1      -2.995  11.619  18.683  0.00  0.00    +0.000 C 
ATOM      9  C   UNL     1      -3.054  11.665  17.315  0.00  0.00    +0.000 C 
ATOM     10  N   UNL     1      -4.279  11.857  16.685  0.00  0.00    +0.000 N 
ATOM     11  H   UNL     1      -6.914  12.511  15.925  0.00  0.00    +0.000 HD
ATOM     12  H   UNL     1      -4.269  11.746  15.679  0.00  0.00    +0.000 HD
ENDROOT
BRANCH   8  13
ATOM     13  C   UNL     1      -1.734  11.434  19.474  0.00  0.00    +0.000 C 
ATOM     14  O   UNL     1      -1.359  10.343  19.895  0.00  0.00    +0.000 OA
ATOM     15  N   UNL     1      -0.931  12.548  19.785  0.00  0.00    +0.000 N 
ATOM     16  N   UNL     1      -0.920  13.683  19.026  0.00  0.00    +0.000 NA
ATOM     17  C   UNL     1       0.002  14.455  19.597  0.00  0.00    +0.000 A 
ATOM     18  C   UNL     1       0.633  13.839  20.692  0.00  0.00    +0.000 A 
ATOM     19  C   UNL     1       0.003  12.621  20.827  0.00  0.00    +0.000 A 
BRANCH  19  20
ATOM     20  N   UNL     1       0.150  11.641  21.760  0.00  0.00    +0.000 N 
ATOM     21  H   UNL     1       0.945  11.007  21.772  0.00  0.00    +0.000 HD
ATOM     22  H   UNL     1      -0.695  11.220  22.177  0.00  0.00    +0.000 HD
ENDBRANCH  19  20
BRANCH  18  23
ATOM     23  C   UNL     1       1.672  14.365  21.500  0.00  0.00    +0.000 C 
ATOM     24  N   UNL     1       2.526  14.783  22.165  0.00  0.00    +0.000 NA
ENDBRANCH  18  23
ENDBRANCH   8  13
BRANCH   7  25
ATOM     25  C   UNL     1      -4.172  12.924  20.627  0.00  0.00    +0.000 A 
ATOM     26  C   UNL     1      -4.058  14.261  20.228  0.00  0.00    +0.000 A 
ATOM     27  C   UNL     1      -3.935  15.289  21.171  0.00  0.00    +0.000 A 
ATOM     28  C   UNL     1      -3.997  15.059  22.554  0.00  0.00    +0.000 A 
ATOM     29  C   UNL     1      -4.152  13.715  22.932  0.00  0.00    +0.000 A 
ATOM     30  C   UNL     1      -4.208  12.666  22.000  0.00  0.00    +0.000 A 
BRANCH  28  31
ATOM     31  N   UNL     1      -3.849  16.092  23.473  0.00  0.00    +0.000 N 
ATOM     32  C   UNL     1      -4.815  16.290  24.553  0.00  0.00    +0.000 C 
ATOM     33  C   UNL     1      -2.563  16.747  23.703  0.00  0.00    +0.000 C 
ENDBRANCH  28  31
ENDBRANCH   7  25
BRANCH   9  34
ATOM     34  N   UNL     1      -1.981  11.574  16.467  0.00  0.00    +0.000 N 
ATOM     35  H   UNL     1      -2.131  11.856  15.506  0.00  0.00    +0.000 HD
ATOM     36  H   UNL     1      -1.451  10.715  16.547  0.00  0.00    +0.000 HD
ENDBRANCH   9  34
TORSDOF 6
ENDMDL
MODEL 8
REMARK VINA RESULT:      -5.9      3.089      7.818
REMARK  Name = 
REMARK  9 active torsions:
REMARK  status: ('A' for Active; 'I' for Inactive)
REMARK    1  A    between atoms: C_1  and  C_2
REMARK    2  A    between atoms: C_7  and  C_8
REMARK    3  A    between atoms: C_11  and  N_12
REMARK    4  A    between atoms: N_12  and  C_13
REMARK    5  A    between atoms: N_12  and  C_14
REMARK    6  A    between atoms: C_17  and  C_18
REMARK    7  A    between atoms: C_23  and  C_24
REMARK    8  A    between atoms: C_26  and  N_27
REMARK    9  A    between atoms: C_28  and  N_29
REMARK                            x       y       z     vdW  Elec       q    Type
REMARK                         _______ _______ _______ _____ _____    ______ ____
ROOT
ATOM      1  C   UNL     1       2.210  16.748  18.363  0.00  0.00    +0.000 C 
ATOM      2  C   UNL     1       2.452  15.288  18.245  0.00  0.00    +0.000 A 
ATOM      3  N   UNL     1       3.672  14.860  17.867  0.00  0.00    +0.000 NA
ATOM      4  N   UNL     1       3.568  13.520  17.873  0.00  0.00    +0.000 N 
ATOM      5  C   UNL     1       2.333  13.096  18.237  0.00  0.00    +0.000 A 
ATOM      6  C   UNL     1       1.565  14.201  18.483  0.00  0.00    +0.000 A 
ATOM      7  C   UNL     1       0.118  14.032  18.872  0.00  0.00    +0.000 C 
ATOM      8  C   UNL     1      -0.249  12.534  19.084  0.00  0.00    +0.000 C 
ATOM      9  C   UNL     1       0.647  11.524  18.850  0.00  0.00    +0.000 C 
ATOM     10  N   UNL     1       1.914  11.826  18.363  0.00  0.00    +0.000 N 
ATOM     11  H   UNL     1       4.384  12.971  17.633  0.00  0.00    +0.000 HD
ATOM     12  H   UNL     1       2.472  11.028  18.087  0.00  0.00    +0.000 HD
ENDROOT
BRANCH   8  13
ATOM     13  C   UNL     1      -1.634  12.335  19.623  0.00  0.00    +0.000 C 
ATOM     14  O   UNL     1      -2.632  12.283  18.909  0.00  0.00    +0.000 OA
ATOM     15  N   UNL     1      -1.837  12.220  21.011  0.00  0.00    +0.000 N 
ATOM     16  N   UNL     1      -0.867  11.775  21.863  0.00  0.00    +0.000 NA
ATOM     17  C   UNL     1      -1.461  11.742  23.054  0.00  0.00    +0.000 A 
ATOM     18  C   UNL     1      -2.815  12.114  23.003  0.00  0.00    +0.000 A 
ATOM     19  C   UNL     1      -3.042  12.451  21.686  0.00  0.00    +0.000 A 
BRANCH  19  20
ATOM     20  N   UNL     1      -4.150  12.951  21.074  0.00  0.00    +0.000 N 
ATOM     21  H   UNL     1      -4.340  12.817  20.084  0.00  0.00    +0.000 HD
ATOM     22  H   UNL     1      -4.574  13.818  21.441  0.00  0.00    +0.000 HD
ENDBRANCH  19  20
BRANCH  18  23
ATOM     23  C   UNL     1      -3.741  12.158  24.075  0.00  0.00    +0.000 C 
ATOM     24  N   UNL     1      -4.509  12.196  24.944  0.00  0.00    +0.000 NA
ENDBRANCH  18  23
ENDBRANCH   8  13
BRANCH   7  25
ATOM     25  C   UNL     1      -0.082  14.960  20.061  0.00  0.00    +0.000 A 
ATOM     26  C   UNL     1      -1.043  15.975  19.992  0.00  0.00    +0.000 A 
ATOM     27  C   UNL     1      -1.221  16.876  21.050  0.00  0.00    +0.000 A 
ATOM     28  C   UNL     1      -0.515  16.772  22.259  0.00  0.00    +0.000 A 
ATOM     29  C   UNL     1       0.415  15.722  22.321  0.00  0.00    +0.000 A 
ATOM     30  C   UNL     1       0.655  14.854  21.243  0.00  0.00    +0.000 A 
BRANCH  28  31
ATOM     31  N   UNL     1      -0.690  17.691  23.288  0.00  0.00    +0.000 N 
ATOM     32  C   UNL     1      -1.871  18.553  23.342  0.00  0.00    +0.000 C 
ATOM     33  C   UNL     1       0.011  17.570  24.564  0.00  0.00    +0.000 C 
ENDBRANCH  28  31
ENDBRANCH   7  25
BRANCH   9  34
ATOM     34  N   UNL     1       0.428  10.192  19.092  0.00  0.00    +0.000 N 
ATOM     35  H   UNL     1      -0.447   9.946  19.539  0.00  0.00    +0.000 HD
ATOM     36  H   UNL     1       1.221   9.697  19.479  0.00  0.00    +0.000 HD
ENDBRANCH   9  34
TORSDOF 6
ENDMDL
MODEL 9
REMARK VINA RESULT:      -5.8      1.618      1.798
REMARK  Name = 
REMARK  9 active torsions:
REMARK  status: ('A' for Active; 'I' for Inactive)
REMARK    1  A    between atoms: C_1  and  C_2
REMARK    2  A    between atoms: C_7  and  C_8
REMARK    3  A    between atoms: C_11  and  N_12
REMARK    4  A    between atoms: N_12  and  C_13
REMARK    5  A    between atoms: N_12  and  C_14
REMARK    6  A    between atoms: C_17  and  C_18
REMARK    7  A    between atoms: C_23  and  C_24
REMARK    8  A    between atoms: C_26  and  N_27
REMARK    9  A    between atoms: C_28  and  N_29
REMARK                            x       y       z     vdW  Elec       q    Type
REMARK                         _______ _______ _______ _____ _____    ______ ____
ROOT
ATOM      1  C   UNL     1      -2.616  10.492  17.126  0.00  0.00    +0.000 C 
ATOM      2  C   UNL     1      -3.275  11.289  18.192  0.00  0.00    +0.000 A 
ATOM      3  N   UNL     1      -4.614  11.224  18.317  0.00  0.00    +0.000 NA
ATOM      4  N   UNL     1      -4.887  12.029  19.359  0.00  0.00    +0.000 N 
ATOM      5  C   UNL     1      -3.773  12.593  19.885  0.00  0.00    +0.000 A 
ATOM      6  C   UNL     1      -2.698  12.155  19.162  0.00  0.00    +0.000 A 
ATOM      7  C   UNL     1      -1.317  12.656  19.501  0.00  0.00    +0.000 C 
ATOM      8  C   UNL     1      -1.323  13.531  20.788  0.00  0.00    +0.000 C 
ATOM      9  C   UNL     1      -2.481  13.849  21.448  0.00  0.00    +0.000 C 
ATOM     10  N   UNL     1      -3.703  13.422  20.940  0.00  0.00    +0.000 N 
ATOM     11  H   UNL     1      -5.851  12.125  19.654  0.00  0.00    +0.000 HD
ATOM     12  H   UNL     1      -4.519  13.804  21.400  0.00  0.00    +0.000 HD
ENDROOT
BRANCH   8  13
ATOM     13  C   UNL     1       0.051  13.919  21.246  0.00  0.00    +0.000 C 
ATOM     14  O   UNL     1       0.550  13.515  22.293  0.00  0.00    +0.000 OA
ATOM     15  N   UNL     1       0.825  14.805  20.472  0.00  0.00    +0.000 N 
ATOM     16  N   UNL     1       0.655  14.946  19.124  0.00  0.00    +0.000 NA
ATOM     17  C   UNL     1       1.605  15.804  18.758  0.00  0.00    +0.000 A 
ATOM     18  C   UNL     1       2.429  16.200  19.826  0.00  0.00    +0.000 A 
ATOM     19  C   UNL     1       1.899  15.575  20.934  0.00  0.00    +0.000 A 
BRANCH  19  20
ATOM     20  N   UNL     1       2.243  15.653  22.249  0.00  0.00    +0.000 N 
ATOM     21  H   UNL     1       2.893  15.005  22.687  0.00  0.00    +0.000 HD
ATOM     22  H   UNL     1       1.562  16.040  22.921  0.00  0.00    +0.000 HD
ENDBRANCH  19  20
BRANCH  18  23
ATOM     23  C   UNL     1       3.545  17.072  19.780  0.00  0.00    +0.000 C 
ATOM     24  N   UNL     1       4.461  17.783  19.729  0.00  0.00    +0.000 NA
ENDBRANCH  18  23
ENDBRANCH   8  13
BRANCH   7  25
ATOM     25  C   UNL     1      -0.440  11.412  19.524  0.00  0.00    +0.000 A 
ATOM     26  C   UNL     1       0.573  11.262  18.570  0.00  0.00    +0.000 A 
ATOM     27  C   UNL     1       1.368  10.109  18.533  0.00  0.00    +0.000 A 
ATOM     28  C   UNL     1       1.255   9.082  19.484  0.00  0.00    +0.000 A 
ATOM     29  C   UNL     1       0.259   9.272  20.456  0.00  0.00    +0.000 A 
ATOM     30  C   UNL     1      -0.592  10.390  20.464  0.00  0.00    +0.000 A 
BRANCH  28  31
ATOM     31  N   UNL     1       2.038   7.936  19.416  0.00  0.00    +0.000 N 
ATOM     32  C   UNL     1       1.920   6.876  20.417  0.00  0.00    +0.000 C 
ATOM     33  C   UNL     1       2.680   7.507  18.175  0.00  0.00    +0.000 C 
ENDBRANCH  28  31
ENDBRANCH   7  25
BRANCH   9  34
ATOM     34  N   UNL     1      -2.561  14.541  22.629  0.00  0.00    +0.000 N 
ATOM     35  H   UNL     1      -1.997  15.378  22.708  0.00  0.00    +0.000 HD
ATOM     36  H   UNL     1      -2.528  13.964  23.460  0.00  0.00    +0.000 HD
ENDBRANCH   9  34
TORSDOF 6
ENDMDL
