MODEL 1
REMARK VINA RESULT:      -5.5      0.000      0.000
REMARK  Name = 
REMARK  15 active torsions:
REMARK  status: ('A' for Active; 'I' for Inactive)
REMARK    1  A    between atoms: C_1  and  C_2
REMARK    2  A    between atoms: C_2  and  C_3
REMARK    3  A    between atoms: C_3  and  C_4
REMARK    4  A    between atoms: C_4  and  C_5
REMARK    5  A    between atoms: C_5  and  C_6
REMARK    6  A    between atoms: C_6  and  C_7
REMARK    7  A    between atoms: C_7  and  C_8
REMARK    8  A    between atoms: C_8  and  C_9
REMARK    9  A    between atoms: C_9  and  C_10
REMARK   10  A    between atoms: C_10  and  C_11
REMARK   11  A    between atoms: C_11  and  C_12
REMARK   12  A    between atoms: C_12  and  C_13
REMARK   13  A    between atoms: C_13  and  C_14
REMARK   14  A    between atoms: N_16  and  C_17
REMARK   15  A    between atoms: C_17  and  O_18
REMARK                            x       y       z     vdW  Elec       q    Type
REMARK                         _______ _______ _______ _____ _____    ______ ____
ROOT
ATOM      1  C   UNL     1       2.915   3.074  17.550  0.00  0.00    +0.000 C 
ENDROOT
BRANCH   1   2
ATOM      2  C   UNL     1       2.556   2.011  18.579  0.00  0.00    +0.000 C 
BRANCH   2   3
ATOM      3  C   UNL     1       1.065   2.046  18.893  0.00  0.00    +0.000 C 
BRANCH   3   4
ATOM      4  C   UNL     1       0.734   3.235  19.785  0.00  0.00    +0.000 C 
BRANCH   4   5
ATOM      5  C   UNL     1       1.648   3.265  21.004  0.00  0.00    +0.000 C 
BRANCH   5   6
ATOM      6  C   UNL     1       2.279   4.641  21.167  0.00  0.00    +0.000 C 
BRANCH   6   7
ATOM      7  C   UNL     1       1.762   5.600  20.099  0.00  0.00    +0.000 C 
BRANCH   7   8
ATOM      8  C   UNL     1       2.879   6.519  19.620  0.00  0.00    +0.000 C 
BRANCH   8  10
ATOM      9  C   UNL     1       2.356   8.385  18.030  0.00  0.00    +0.000 C 
ATOM     10  C   UNL     1       2.678   6.909  18.157  0.00  0.00    +0.000 C 
ENDBRANCH   8  10
ENDBRANCH   7   8
ENDBRANCH   6   7
ENDBRANCH   5   6
ENDBRANCH   4   5
ENDBRANCH   3   4
ENDBRANCH   2   3
ENDBRANCH   1   2
BRANCH   1  11
ATOM     11  C   UNL     1       4.319   3.624  17.796  0.00  0.00    +0.000 C 
BRANCH  11  12
ATOM     12  C   UNL     1       5.121   3.614  16.500  0.00  0.00    +0.000 C 
BRANCH  12  13
ATOM     13  C   UNL     1       5.884   4.918  16.277  0.00  0.00    +0.000 C 
BRANCH  13  14
ATOM     14  C   UNL     1       7.041   5.031  17.254  0.00  0.00    +0.000 C 
ATOM     15  O   UNL     1       7.972   4.234  17.296  0.00  0.00    +0.000 OA
ATOM     16  N   UNL     1       6.969   6.133  18.072  0.00  0.00    +0.000 N 
ATOM     17  H   UNL     1       6.067   6.544  18.265  0.00  0.00    +0.000 HD
BRANCH  16  18
ATOM     18  C   UNL     1       7.975   6.311  19.062  0.00  0.00    +0.000 C 
BRANCH  18  19
ATOM     19  O   UNL     1       7.648   5.438  20.110  0.00  0.00    +0.000 OA
ATOM     20  H   UNL     1       7.594   5.996  20.901  0.00  0.00    +0.000 HD
ENDBRANCH  18  19
ENDBRANCH  16  18
ENDBRANCH  13  14
ENDBRANCH  12  13
ENDBRANCH  11  12
ENDBRANCH   1  11
TORSDOF 14
ENDMDL
MODEL 2
REMARK VINA RESULT:      -5.4      1.223      3.123
REMARK  Name = 
REMARK  15 active torsions:
REMARK  status: ('A' for Active; 'I' for Inactive)
REMARK    1  A    between atoms: C_1  and  C_2
REMARK    2  A    between atoms: C_2  and  C_3
REMARK    3  A    between atoms: C_3  and  C_4
REMARK    4  A    between atoms: C_4  and  C_5
REMARK    5  A    between atoms: C_5  and  C_6
REMARK    6  A    between atoms: C_6  and  C_7
REMARK    7  A    between atoms: C_7  and  C_8
REMARK    8  A    between atoms: C_8  and  C_9
REMARK    9  A    between atoms: C_9  and  C_10
REMARK   10  A    between atoms: C_10  and  C_11
REMARK   11  A    between atoms: C_11  and  C_12
REMARK   12  A    between atoms: C_12  and  C_13
REMARK   13  A    between atoms: C_13  and  C_14
REMARK   14  A    between atoms: N_16  and  C_17
REMARK   15  A    between atoms: C_17  and  O_18
REMARK                            x       y       z     vdW  Elec       q    Type
REMARK                         _______ _______ _______ _____ _____    ______ ____
ROOT
ATOM      1  C   UNL     1       4.247   6.037  17.040  0.00  0.00    +0.000 C 
ENDROOT
BRANCH   1   2
ATOM      2  C   UNL     1       3.776   5.870  18.479  0.00  0.00    +0.000 C 
BRANCH   2   3
ATOM      3  C   UNL     1       2.633   6.828  18.788  0.00  0.00    +0.000 C 
BRANCH   3   4
ATOM      4  C   UNL     1       2.072   6.560  20.179  0.00  0.00    +0.000 C 
BRANCH   4   5
ATOM      5  C   UNL     1       2.266   5.099  20.565  0.00  0.00    +0.000 C 
BRANCH   5   6
ATOM      6  C   UNL     1       0.941   4.350  20.509  0.00  0.00    +0.000 C 
BRANCH   6   7
ATOM      7  C   UNL     1       1.119   2.992  19.840  0.00  0.00    +0.000 C 
BRANCH   7   8
ATOM      8  C   UNL     1       1.363   3.158  18.345  0.00  0.00    +0.000 C 
BRANCH   8  10
ATOM      9  C   UNL     1       3.605   2.094  18.700  0.00  0.00    +0.000 C 
ATOM     10  C   UNL     1       2.360   2.120  17.834  0.00  0.00    +0.000 C 
ENDBRANCH   8  10
ENDBRANCH   7   8
ENDBRANCH   6   7
ENDBRANCH   5   6
ENDBRANCH   4   5
ENDBRANCH   3   4
ENDBRANCH   2   3
ENDBRANCH   1   2
BRANCH   1  11
ATOM     11  C   UNL     1       4.509   4.680  16.387  0.00  0.00    +0.000 C 
BRANCH  11  12
ATOM     12  C   UNL     1       5.747   4.755  15.501  0.00  0.00    +0.000 C 
BRANCH  12  13
ATOM     13  C   UNL     1       7.018   4.343  16.241  0.00  0.00    +0.000 C 
BRANCH  13  14
ATOM     14  C   UNL     1       7.453   5.437  17.199  0.00  0.00    +0.000 C 
ATOM     15  O   UNL     1       7.647   6.600  16.858  0.00  0.00    +0.000 OA
ATOM     16  N   UNL     1       7.579   5.015  18.501  0.00  0.00    +0.000 N 
ATOM     17  H   UNL     1       7.766   4.040  18.685  0.00  0.00    +0.000 HD
BRANCH  16  18
ATOM     18  C   UNL     1       8.031   5.946  19.478  0.00  0.00    +0.000 C 
BRANCH  18  19
ATOM     19  O   UNL     1       8.270   5.203  20.643  0.00  0.00    +0.000 OA
ATOM     20  H   UNL     1       8.797   4.441  20.357  0.00  0.00    +0.000 HD
ENDBRANCH  18  19
ENDBRANCH  16  18
ENDBRANCH  13  14
ENDBRANCH  12  13
ENDBRANCH  11  12
ENDBRANCH   1  11
TORSDOF 14
ENDMDL
MODEL 3
REMARK VINA RESULT:      -5.3      2.663      4.319
REMARK  Name = 
REMARK  15 active torsions:
REMARK  status: ('A' for Active; 'I' for Inactive)
REMARK    1  A    between atoms: C_1  and  C_2
REMARK    2  A    between atoms: C_2  and  C_3
REMARK    3  A    between atoms: C_3  and  C_4
REMARK    4  A    between atoms: C_4  and  C_5
REMARK    5  A    between atoms: C_5  and  C_6
REMARK    6  A    between atoms: C_6  and  C_7
REMARK    7  A    between atoms: C_7  and  C_8
REMARK    8  A    between atoms: C_8  and  C_9
REMARK    9  A    between atoms: C_9  and  C_10
REMARK   10  A    between atoms: C_10  and  C_11
REMARK   11  A    between atoms: C_11  and  C_12
REMARK   12  A    between atoms: C_12  and  C_13
REMARK   13  A    between atoms: C_13  and  C_14
REMARK   14  A    between atoms: N_16  and  C_17
REMARK   15  A    between atoms: C_17  and  O_18
REMARK                            x       y       z     vdW  Elec       q    Type
REMARK                         _______ _______ _______ _____ _____    ______ ____
ROOT
ATOM      1  C   UNL     1       4.405   5.389  17.748  0.00  0.00    +0.000 C 
ENDROOT
BRANCH   1   2
ATOM      2  C   UNL     1       3.149   4.635  17.333  0.00  0.00    +0.000 C 
BRANCH   2   3
ATOM      3  C   UNL     1       1.939   5.128  18.118  0.00  0.00    +0.000 C 
BRANCH   3   4
ATOM      4  C   UNL     1       2.382   5.882  19.365  0.00  0.00    +0.000 C 
BRANCH   4   5
ATOM      5  C   UNL     1       1.964   5.133  20.625  0.00  0.00    +0.000 C 
BRANCH   5   6
ATOM      6  C   UNL     1       0.960   4.038  20.287  0.00  0.00    +0.000 C 
BRANCH   6   7
ATOM      7  C   UNL     1       1.581   2.660  20.484  0.00  0.00    +0.000 C 
BRANCH   7   8
ATOM      8  C   UNL     1       2.970   2.781  21.102  0.00  0.00    +0.000 C 
BRANCH   8  10
ATOM      9  C   UNL     1       3.411   1.633  18.917  0.00  0.00    +0.000 C 
ATOM     10  C   UNL     1       4.040   2.249  20.151  0.00  0.00    +0.000 C 
ENDBRANCH   8  10
ENDBRANCH   7   8
ENDBRANCH   6   7
ENDBRANCH   5   6
ENDBRANCH   4   5
ENDBRANCH   3   4
ENDBRANCH   2   3
ENDBRANCH   1   2
BRANCH   1  11
ATOM     11  C   UNL     1       5.629   4.475  17.721  0.00  0.00    +0.000 C 
BRANCH  11  12
ATOM     12  C   UNL     1       5.904   4.008  16.297  0.00  0.00    +0.000 C 
BRANCH  12  13
ATOM     13  C   UNL     1       6.984   4.840  15.610  0.00  0.00    +0.000 C 
BRANCH  13  14
ATOM     14  C   UNL     1       6.924   4.650  14.105  0.00  0.00    +0.000 C 
ATOM     15  O   UNL     1       7.587   5.311  13.311  0.00  0.00    +0.000 OA
ATOM     16  N   UNL     1       6.079   3.641  13.708  0.00  0.00    +0.000 N 
ATOM     17  H   UNL     1       5.313   3.378  14.309  0.00  0.00    +0.000 HD
BRANCH  16  18
ATOM     18  C   UNL     1       5.906   3.408  12.315  0.00  0.00    +0.000 C 
BRANCH  18  19
ATOM     19  O   UNL     1       7.012   2.648  11.907  0.00  0.00    +0.000 OA
ATOM     20  H   UNL     1       6.653   1.971  11.313  0.00  0.00    +0.000 HD
ENDBRANCH  18  19
ENDBRANCH  16  18
ENDBRANCH  13  14
ENDBRANCH  12  13
ENDBRANCH  11  12
ENDBRANCH   1  11
TORSDOF 14
ENDMDL
MODEL 4
REMARK VINA RESULT:      -5.3      4.012      6.878
REMARK  Name = 
REMARK  15 active torsions:
REMARK  status: ('A' for Active; 'I' for Inactive)
REMARK    1  A    between atoms: C_1  and  C_2
REMARK    2  A    between atoms: C_2  and  C_3
REMARK    3  A    between atoms: C_3  and  C_4
REMARK    4  A    between atoms: C_4  and  C_5
REMARK    5  A    between atoms: C_5  and  C_6
REMARK    6  A    between atoms: C_6  and  C_7
REMARK    7  A    between atoms: C_7  and  C_8
REMARK    8  A    between atoms: C_8  and  C_9
REMARK    9  A    between atoms: C_9  and  C_10
REMARK   10  A    between atoms: C_10  and  C_11
REMARK   11  A    between atoms: C_11  and  C_12
REMARK   12  A    between atoms: C_12  and  C_13
REMARK   13  A    between atoms: C_13  and  C_14
REMARK   14  A    between atoms: N_16  and  C_17
REMARK   15  A    between atoms: C_17  and  O_18
REMARK                            x       y       z     vdW  Elec       q    Type
REMARK                         _______ _______ _______ _____ _____    ______ ____
ROOT
ATOM      1  C   UNL     1       5.496   6.065  17.531  0.00  0.00    +0.000 C 
ENDROOT
BRANCH   1   2
ATOM      2  C   UNL     1       6.933   5.970  17.032  0.00  0.00    +0.000 C 
BRANCH   2   3
ATOM      3  C   UNL     1       7.009   5.135  15.760  0.00  0.00    +0.000 C 
BRANCH   3   4
ATOM      4  C   UNL     1       5.760   5.338  14.912  0.00  0.00    +0.000 C 
BRANCH   4   5
ATOM      5  C   UNL     1       5.382   4.048  14.194  0.00  0.00    +0.000 C 
BRANCH   5   6
ATOM      6  C   UNL     1       6.374   3.746  13.078  0.00  0.00    +0.000 C 
BRANCH   6   7
ATOM      7  C   UNL     1       5.669   3.097  11.892  0.00  0.00    +0.000 C 
BRANCH   7   8
ATOM      8  C   UNL     1       4.214   3.547  11.822  0.00  0.00    +0.000 C 
BRANCH   8  10
ATOM      9  C   UNL     1       2.988   4.185   9.731  0.00  0.00    +0.000 C 
ATOM     10  C   UNL     1       3.543   3.036  10.549  0.00  0.00    +0.000 C 
ENDBRANCH   8  10
ENDBRANCH   7   8
ENDBRANCH   6   7
ENDBRANCH   5   6
ENDBRANCH   4   5
ENDBRANCH   3   4
ENDBRANCH   2   3
ENDBRANCH   1   2
BRANCH   1  11
ATOM     11  C   UNL     1       5.289   5.202  18.774  0.00  0.00    +0.000 C 
BRANCH  11  12
ATOM     12  C   UNL     1       4.732   3.839  18.380  0.00  0.00    +0.000 C 
BRANCH  12  13
ATOM     13  C   UNL     1       3.434   3.949  17.582  0.00  0.00    +0.000 C 
BRANCH  13  14
ATOM     14  C   UNL     1       2.265   3.424  18.395  0.00  0.00    +0.000 C 
ATOM     15  O   UNL     1       1.673   2.380  18.137  0.00  0.00    +0.000 OA
ATOM     16  N   UNL     1       1.946   4.210  19.477  0.00  0.00    +0.000 N 
ATOM     17  H   UNL     1       2.184   5.191  19.458  0.00  0.00    +0.000 HD
BRANCH  16  18
ATOM     18  C   UNL     1       0.831   3.840  20.281  0.00  0.00    +0.000 C 
BRANCH  18  19
ATOM     19  O   UNL     1       1.252   2.742  21.046  0.00  0.00    +0.000 OA
ATOM     20  H   UNL     1       2.141   2.530  20.722  0.00  0.00    +0.000 HD
ENDBRANCH  18  19
ENDBRANCH  16  18
ENDBRANCH  13  14
ENDBRANCH  12  13
ENDBRANCH  11  12
ENDBRANCH   1  11
TORSDOF 14
ENDMDL
MODEL 5
REMARK VINA RESULT:      -5.3      1.013      1.041
REMARK  Name = 
REMARK  15 active torsions:
REMARK  status: ('A' for Active; 'I' for Inactive)
REMARK    1  A    between atoms: C_1  and  C_2
REMARK    2  A    between atoms: C_2  and  C_3
REMARK    3  A    between atoms: C_3  and  C_4
REMARK    4  A    between atoms: C_4  and  C_5
REMARK    5  A    between atoms: C_5  and  C_6
REMARK    6  A    between atoms: C_6  and  C_7
REMARK    7  A    between atoms: C_7  and  C_8
REMARK    8  A    between atoms: C_8  and  C_9
REMARK    9  A    between atoms: C_9  and  C_10
REMARK   10  A    between atoms: C_10  and  C_11
REMARK   11  A    between atoms: C_11  and  C_12
REMARK   12  A    between atoms: C_12  and  C_13
REMARK   13  A    between atoms: C_13  and  C_14
REMARK   14  A    between atoms: N_16  and  C_17
REMARK   15  A    between atoms: C_17  and  O_18
REMARK                            x       y       z     vdW  Elec       q    Type
REMARK                         _______ _______ _______ _____ _____    ______ ____
ROOT
ATOM      1  C   UNL     1       2.631   3.303  17.293  0.00  0.00    +0.000 C 
ENDROOT
BRANCH   1   2
ATOM      2  C   UNL     1       2.108   2.082  18.038  0.00  0.00    +0.000 C 
BRANCH   2   3
ATOM      3  C   UNL     1       2.003   2.365  19.532  0.00  0.00    +0.000 C 
BRANCH   3   4
ATOM      4  C   UNL     1       0.796   3.246  19.826  0.00  0.00    +0.000 C 
BRANCH   4   5
ATOM      5  C   UNL     1       1.223   4.528  20.529  0.00  0.00    +0.000 C 
BRANCH   5   6
ATOM      6  C   UNL     1       2.730   4.541  20.751  0.00  0.00    +0.000 C 
BRANCH   6   7
ATOM      7  C   UNL     1       3.385   5.646  19.931  0.00  0.00    +0.000 C 
BRANCH   7   8
ATOM      8  C   UNL     1       2.336   6.622  19.411  0.00  0.00    +0.000 C 
BRANCH   8  10
ATOM      9  C   UNL     1       2.001   8.551  17.846  0.00  0.00    +0.000 C 
ATOM     10  C   UNL     1       2.804   7.295  18.123  0.00  0.00    +0.000 C 
ENDBRANCH   8  10
ENDBRANCH   7   8
ENDBRANCH   6   7
ENDBRANCH   5   6
ENDBRANCH   4   5
ENDBRANCH   3   4
ENDBRANCH   2   3
ENDBRANCH   1   2
BRANCH   1  11
ATOM     11  C   UNL     1       4.147   3.230  17.114  0.00  0.00    +0.000 C 
BRANCH  11  12
ATOM     12  C   UNL     1       4.670   4.535  16.527  0.00  0.00    +0.000 C 
BRANCH  12  13
ATOM     13  C   UNL     1       6.114   4.418  16.043  0.00  0.00    +0.000 C 
BRANCH  13  14
ATOM     14  C   UNL     1       7.046   5.183  16.965  0.00  0.00    +0.000 C 
ATOM     15  O   UNL     1       7.438   6.324  16.739  0.00  0.00    +0.000 OA
ATOM     16  N   UNL     1       7.389   4.492  18.103  0.00  0.00    +0.000 N 
ATOM     17  H   UNL     1       7.361   3.483  18.091  0.00  0.00    +0.000 HD
BRANCH  16  18
ATOM     18  C   UNL     1       8.301   5.094  19.015  0.00  0.00    +0.000 C 
BRANCH  18  19
ATOM     19  O   UNL     1       7.519   5.630  20.048  0.00  0.00    +0.000 OA
ATOM     20  H   UNL     1       8.081   6.296  20.475  0.00  0.00    +0.000 HD
ENDBRANCH  18  19
ENDBRANCH  16  18
ENDBRANCH  13  14
ENDBRANCH  12  13
ENDBRANCH  11  12
ENDBRANCH   1  11
TORSDOF 14
ENDMDL
MODEL 6
REMARK VINA RESULT:      -5.2      3.783      6.858
REMARK  Name = 
REMARK  15 active torsions:
REMARK  status: ('A' for Active; 'I' for Inactive)
REMARK    1  A    between atoms: C_1  and  C_2
REMARK    2  A    between atoms: C_2  and  C_3
REMARK    3  A    between atoms: C_3  and  C_4
REMARK    4  A    between atoms: C_4  and  C_5
REMARK    5  A    between atoms: C_5  and  C_6
REMARK    6  A    between atoms: C_6  and  C_7
REMARK    7  A    between atoms: C_7  and  C_8
REMARK    8  A    between atoms: C_8  and  C_9
REMARK    9  A    between atoms: C_9  and  C_10
REMARK   10  A    between atoms: C_10  and  C_11
REMARK   11  A    between atoms: C_11  and  C_12
REMARK   12  A    between atoms: C_12  and  C_13
REMARK   13  A    between atoms: C_13  and  C_14
REMARK   14  A    between atoms: N_16  and  C_17
REMARK   15  A    between atoms: C_17  and  O_18
REMARK                            x       y       z     vdW  Elec       q    Type
REMARK                         _______ _______ _______ _____ _____    ______ ____
ROOT
ATOM      1  C   UNL     1       3.978   6.731  17.937  0.00  0.00    +0.000 C 
ENDROOT
BRANCH   1   2
ATOM      2  C   UNL     1       4.766   6.467  16.660  0.00  0.00    +0.000 C 
BRANCH   2   3
ATOM      3  C   UNL     1       6.217   6.129  16.982  0.00  0.00    +0.000 C 
BRANCH   3   4
ATOM      4  C   UNL     1       6.730   5.038  16.052  0.00  0.00    +0.000 C 
BRANCH   4   5
ATOM      5  C   UNL     1       6.007   5.088  14.712  0.00  0.00    +0.000 C 
BRANCH   5   6
ATOM      6  C   UNL     1       5.918   3.696  14.100  0.00  0.00    +0.000 C 
BRANCH   6   7
ATOM      7  C   UNL     1       6.403   3.712  12.654  0.00  0.00    +0.000 C 
BRANCH   7   8
ATOM      8  C   UNL     1       5.470   2.897  11.767  0.00  0.00    +0.000 C 
BRANCH   8  10
ATOM      9  C   UNL     1       3.367   3.012  10.406  0.00  0.00    +0.000 C 
ATOM     10  C   UNL     1       4.140   3.619  11.561  0.00  0.00    +0.000 C 
ENDBRANCH   8  10
ENDBRANCH   7   8
ENDBRANCH   6   7
ENDBRANCH   5   6
ENDBRANCH   4   5
ENDBRANCH   3   4
ENDBRANCH   2   3
ENDBRANCH   1   2
BRANCH   1  11
ATOM     11  C   UNL     1       2.614   6.044  17.892  0.00  0.00    +0.000 C 
BRANCH  11  12
ATOM     12  C   UNL     1       2.791   4.531  17.837  0.00  0.00    +0.000 C 
BRANCH  12  13
ATOM     13  C   UNL     1       1.466   3.785  17.983  0.00  0.00    +0.000 C 
BRANCH  13  14
ATOM     14  C   UNL     1       1.486   2.905  19.221  0.00  0.00    +0.000 C 
ATOM     15  O   UNL     1       1.590   1.683  19.183  0.00  0.00    +0.000 OA
ATOM     16  N   UNL     1       1.411   3.608  20.400  0.00  0.00    +0.000 N 
ATOM     17  H   UNL     1       0.978   4.520  20.401  0.00  0.00    +0.000 HD
BRANCH  16  18
ATOM     18  C   UNL     1       1.370   2.881  21.623  0.00  0.00    +0.000 C 
BRANCH  18  19
ATOM     19  O   UNL     1       2.704   2.610  21.958  0.00  0.00    +0.000 OA
ATOM     20  H   UNL     1       2.666   2.154  22.813  0.00  0.00    +0.000 HD
ENDBRANCH  18  19
ENDBRANCH  16  18
ENDBRANCH  13  14
ENDBRANCH  12  13
ENDBRANCH  11  12
ENDBRANCH   1  11
TORSDOF 14
ENDMDL
MODEL 7
REMARK VINA RESULT:      -5.2      3.776      5.680
REMARK  Name = 
REMARK  15 active torsions:
REMARK  status: ('A' for Active; 'I' for Inactive)
REMARK    1  A    between atoms: C_1  and  C_2
REMARK    2  A    between atoms: C_2  and  C_3
REMARK    3  A    between atoms: C_3  and  C_4
REMARK    4  A    between atoms: C_4  and  C_5
REMARK    5  A    between atoms: C_5  and  C_6
REMARK    6  A    between atoms: C_6  and  C_7
REMARK    7  A    between atoms: C_7  and  C_8
REMARK    8  A    between atoms: C_8  and  C_9
REMARK    9  A    between atoms: C_9  and  C_10
REMARK   10  A    between atoms: C_10  and  C_11
REMARK   11  A    between atoms: C_11  and  C_12
REMARK   12  A    between atoms: C_12  and  C_13
REMARK   13  A    between atoms: C_13  and  C_14
REMARK   14  A    between atoms: N_16  and  C_17
REMARK   15  A    between atoms: C_17  and  O_18
REMARK                            x       y       z     vdW  Elec       q    Type
REMARK                         _______ _______ _______ _____ _____    ______ ____
ROOT
ATOM      1  C   UNL     1       6.285   4.930  16.658  0.00  0.00    +0.000 C 
ENDROOT
BRANCH   1   2
ATOM      2  C   UNL     1       5.394   6.067  16.173  0.00  0.00    +0.000 C 
BRANCH   2   3
ATOM      3  C   UNL     1       4.622   6.681  17.335  0.00  0.00    +0.000 C 
BRANCH   3   4
ATOM      4  C   UNL     1       4.487   5.680  18.475  0.00  0.00    +0.000 C 
BRANCH   4   5
ATOM      5  C   UNL     1       3.027   5.520  18.881  0.00  0.00    +0.000 C 
BRANCH   5   6
ATOM      6  C   UNL     1       2.199   5.011  17.708  0.00  0.00    +0.000 C 
BRANCH   6   7
ATOM      7  C   UNL     1       1.283   3.875  18.150  0.00  0.00    +0.000 C 
BRANCH   7   8
ATOM      8  C   UNL     1       1.976   2.999  19.187  0.00  0.00    +0.000 C 
BRANCH   8  10
ATOM      9  C   UNL     1       2.100   2.995  21.690  0.00  0.00    +0.000 C 
ATOM     10  C   UNL     1       1.178   2.953  20.487  0.00  0.00    +0.000 C 
ENDBRANCH   8  10
ENDBRANCH   7   8
ENDBRANCH   6   7
ENDBRANCH   5   6
ENDBRANCH   4   5
ENDBRANCH   3   4
ENDBRANCH   2   3
ENDBRANCH   1   2
BRANCH   1  11
ATOM     11  C   UNL     1       6.782   4.085  15.487  0.00  0.00    +0.000 C 
BRANCH  11  12
ATOM     12  C   UNL     1       5.793   4.157  14.330  0.00  0.00    +0.000 C 
BRANCH  12  13
ATOM     13  C   UNL     1       6.483   4.100  12.969  0.00  0.00    +0.000 C 
BRANCH  13  14
ATOM     14  C   UNL     1       5.806   3.079  12.072  0.00  0.00    +0.000 C 
ATOM     15  O   UNL     1       4.657   3.196  11.659  0.00  0.00    +0.000 OA
ATOM     16  N   UNL     1       6.614   2.020  11.732  0.00  0.00    +0.000 N 
ATOM     17  H   UNL     1       7.378   1.769  12.342  0.00  0.00    +0.000 HD
BRANCH  16  18
ATOM     18  C   UNL     1       6.065   0.976  10.935  0.00  0.00    +0.000 C 
BRANCH  18  19
ATOM     19  O   UNL     1       6.366  -0.221  11.602  0.00  0.00    +0.000 OA
ATOM     20  H   UNL     1       7.261  -0.098  11.957  0.00  0.00    +0.000 HD
ENDBRANCH  18  19
ENDBRANCH  16  18
ENDBRANCH  13  14
ENDBRANCH  12  13
ENDBRANCH  11  12
ENDBRANCH   1  11
TORSDOF 14
ENDMDL
MODEL 8
REMARK VINA RESULT:      -5.2      1.912      3.706
REMARK  Name = 
REMARK  15 active torsions:
REMARK  status: ('A' for Active; 'I' for Inactive)
REMARK    1  A    between atoms: C_1  and  C_2
REMARK    2  A    between atoms: C_2  and  C_3
REMARK    3  A    between atoms: C_3  and  C_4
REMARK    4  A    between atoms: C_4  and  C_5
REMARK    5  A    between atoms: C_5  and  C_6
REMARK    6  A    between atoms: C_6  and  C_7
REMARK    7  A    between atoms: C_7  and  C_8
REMARK    8  A    between atoms: C_8  and  C_9
REMARK    9  A    between atoms: C_9  and  C_10
REMARK   10  A    between atoms: C_10  and  C_11
REMARK   11  A    between atoms: C_11  and  C_12
REMARK   12  A    between atoms: C_12  and  C_13
REMARK   13  A    between atoms: C_13  and  C_14
REMARK   14  A    between atoms: N_16  and  C_17
REMARK   15  A    between atoms: C_17  and  O_18
REMARK                            x       y       z     vdW  Elec       q    Type
REMARK                         _______ _______ _______ _____ _____    ______ ____
ROOT
ATOM      1  C   UNL     1       4.312   5.471  19.546  0.00  0.00    +0.000 C 
ENDROOT
BRANCH   1   2
ATOM      2  C   UNL     1       2.920   6.016  19.251  0.00  0.00    +0.000 C 
BRANCH   2   3
ATOM      3  C   UNL     1       2.003   5.834  20.454  0.00  0.00    +0.000 C 
BRANCH   3   4
ATOM      4  C   UNL     1       1.341   4.463  20.418  0.00  0.00    +0.000 C 
BRANCH   4   5
ATOM      5  C   UNL     1       1.795   3.615  21.600  0.00  0.00    +0.000 C 
BRANCH   5   6
ATOM      6  C   UNL     1       2.692   2.478  21.128  0.00  0.00    +0.000 C 
BRANCH   6   7
ATOM      7  C   UNL     1       2.431   2.160  19.660  0.00  0.00    +0.000 C 
BRANCH   7   8
ATOM      8  C   UNL     1       3.740   1.878  18.932  0.00  0.00    +0.000 C 
BRANCH   8  10
ATOM      9  C   UNL     1       2.535   3.199  17.175  0.00  0.00    +0.000 C 
ATOM     10  C   UNL     1       3.606   2.159  17.437  0.00  0.00    +0.000 C 
ENDBRANCH   8  10
ENDBRANCH   7   8
ENDBRANCH   6   7
ENDBRANCH   5   6
ENDBRANCH   4   5
ENDBRANCH   3   4
ENDBRANCH   2   3
ENDBRANCH   1   2
BRANCH   1  11
ATOM     11  C   UNL     1       5.217   5.584  18.320  0.00  0.00    +0.000 C 
BRANCH  11  12
ATOM     12  C   UNL     1       6.680   5.600  18.748  0.00  0.00    +0.000 C 
BRANCH  12  13
ATOM     13  C   UNL     1       7.547   4.679  17.892  0.00  0.00    +0.000 C 
BRANCH  13  14
ATOM     14  C   UNL     1       7.198   4.836  16.423  0.00  0.00    +0.000 C 
ATOM     15  O   UNL     1       7.473   5.833  15.763  0.00  0.00    +0.000 OA
ATOM     16  N   UNL     1       6.570   3.738  15.883  0.00  0.00    +0.000 N 
ATOM     17  H   UNL     1       6.052   3.121  16.491  0.00  0.00    +0.000 HD
BRANCH  16  18
ATOM     18  C   UNL     1       6.150   3.795  14.524  0.00  0.00    +0.000 C 
BRANCH  18  19
ATOM     19  O   UNL     1       5.276   4.888  14.433  0.00  0.00    +0.000 OA
ATOM     20  H   UNL     1       4.459   4.599  14.869  0.00  0.00    +0.000 HD
ENDBRANCH  18  19
ENDBRANCH  16  18
ENDBRANCH  13  14
ENDBRANCH  12  13
ENDBRANCH  11  12
ENDBRANCH   1  11
TORSDOF 14
ENDMDL
MODEL 9
REMARK VINA RESULT:      -5.2      3.577      5.598
REMARK  Name = 
REMARK  15 active torsions:
REMARK  status: ('A' for Active; 'I' for Inactive)
REMARK    1  A    between atoms: C_1  and  C_2
REMARK    2  A    between atoms: C_2  and  C_3
REMARK    3  A    between atoms: C_3  and  C_4
REMARK    4  A    between atoms: C_4  and  C_5
REMARK    5  A    between atoms: C_5  and  C_6
REMARK    6  A    between atoms: C_6  and  C_7
REMARK    7  A    between atoms: C_7  and  C_8
REMARK    8  A    between atoms: C_8  and  C_9
REMARK    9  A    between atoms: C_9  and  C_10
REMARK   10  A    between atoms: C_10  and  C_11
REMARK   11  A    between atoms: C_11  and  C_12
REMARK   12  A    between atoms: C_12  and  C_13
REMARK   13  A    between atoms: C_13  and  C_14
REMARK   14  A    between atoms: N_16  and  C_17
REMARK   15  A    between atoms: C_17  and  O_18
REMARK                            x       y       z     vdW  Elec       q    Type
REMARK                         _______ _______ _______ _____ _____    ______ ____
ROOT
ATOM      1  C   UNL     1       6.770   5.791  16.239  0.00  0.00    +0.000 C 
ENDROOT
BRANCH   1   2
ATOM      2  C   UNL     1       5.864   5.887  17.460  0.00  0.00    +0.000 C 
BRANCH   2   3
ATOM      3  C   UNL     1       4.398   5.822  17.051  0.00  0.00    +0.000 C 
BRANCH   3   4
ATOM      4  C   UNL     1       3.557   5.218  18.168  0.00  0.00    +0.000 C 
BRANCH   4   5
ATOM      5  C   UNL     1       2.329   4.518  17.600  0.00  0.00    +0.000 C 
BRANCH   5   6
ATOM      6  C   UNL     1       2.605   3.033  17.399  0.00  0.00    +0.000 C 
BRANCH   6   7
ATOM      7  C   UNL     1       2.252   2.246  18.656  0.00  0.00    +0.000 C 
BRANCH   7   8
ATOM      8  C   UNL     1       0.896   2.681  19.198  0.00  0.00    +0.000 C 
BRANCH   8  10
ATOM      9  C   UNL     1       1.535   2.639  21.621  0.00  0.00    +0.000 C 
ATOM     10  C   UNL     1       1.054   3.505  20.473  0.00  0.00    +0.000 C 
ENDBRANCH   8  10
ENDBRANCH   7   8
ENDBRANCH   6   7
ENDBRANCH   5   6
ENDBRANCH   4   5
ENDBRANCH   3   4
ENDBRANCH   2   3
ENDBRANCH   1   2
BRANCH   1  11
ATOM     11  C   UNL     1       6.767   4.375  15.664  0.00  0.00    +0.000 C 
BRANCH  11  12
ATOM     12  C   UNL     1       6.687   4.427  14.143  0.00  0.00    +0.000 C 
BRANCH  12  13
ATOM     13  C   UNL     1       5.321   3.991  13.617  0.00  0.00    +0.000 C 
BRANCH  13  14
ATOM     14  C   UNL     1       5.476   3.189  12.338  0.00  0.00    +0.000 C 
ATOM     15  O   UNL     1       4.595   3.087  11.490  0.00  0.00    +0.000 OA
ATOM     16  N   UNL     1       6.714   2.607  12.197  0.00  0.00    +0.000 N 
ATOM     17  H   UNL     1       7.258   2.405  13.022  0.00  0.00    +0.000 HD
BRANCH  16  18
ATOM     18  C   UNL     1       6.953   1.787  11.058  0.00  0.00    +0.000 C 
BRANCH  18  19
ATOM     19  O   UNL     1       6.225   0.607  11.269  0.00  0.00    +0.000 OA
ATOM     20  H   UNL     1       6.459   0.319  12.165  0.00  0.00    +0.000 HD
ENDBRANCH  18  19
ENDBRANCH  16  18
ENDBRANCH  13  14
ENDBRANCH  12  13
ENDBRANCH  11  12
ENDBRANCH   1  11
TORSDOF 14
ENDMDL
