MODEL 1
REMARK VINA RESULT:      -7.8      0.000      0.000
REMARK  Name = 
REMARK  7 active torsions:
REMARK  status: ('A' for Active; 'I' for Inactive)
REMARK    1  A    between atoms: C_1  and  C_2
REMARK    2  A    between atoms: C_6  and  N_7
REMARK    3  A    between atoms: C_8  and  C_10
REMARK    4  A    between atoms: N_12  and  C_13
REMARK    5  A    between atoms: C_14  and  C_15
REMARK    6  A    between atoms: C_18  and  C_19
REMARK    7  A    between atoms: C_25  and  C_26
REMARK                            x       y       z     vdW  Elec       q    Type
REMARK                         _______ _______ _______ _____ _____    ______ ____
ROOT
ATOM      1  C   UNL     1       1.081   8.498  19.865  0.00  0.00    +0.000 A 
ATOM      2  N   UNL     1       1.180   7.450  20.700  0.00  0.00    +0.000 NA
ATOM      3  N   UNL     1       2.076   6.634  20.110  0.00  0.00    +0.000 N 
ATOM      4  C   UNL     1       2.477   5.462  20.859  0.00  0.00    +0.000 C 
ATOM      5  C   UNL     1       2.549   7.084  18.887  0.00  0.00    +0.000 A 
ATOM      6  C   UNL     1       1.895   8.305  18.701  0.00  0.00    +0.000 A 
ATOM      7  C   UNL     1       1.981   9.280  17.575  0.00  0.00    +0.000 C 
ENDROOT
BRANCH   5   8
ATOM      8  C   UNL     1       3.556   6.391  18.044  0.00  0.00    +0.000 A 
ATOM      9  C   UNL     1       3.388   5.073  17.602  0.00  0.00    +0.000 A 
ATOM     10  C   UNL     1       4.357   4.424  16.826  0.00  0.00    +0.000 A 
ATOM     11  C   UNL     1       5.506   5.100  16.406  0.00  0.00    +0.000 A 
ATOM     12  C   UNL     1       5.676   6.429  16.812  0.00  0.00    +0.000 A 
ATOM     13  C   UNL     1       4.731   7.050  17.642  0.00  0.00    +0.000 A 
BRANCH  11  14
ATOM     14  C   UNL     1       6.529   4.430  15.522  0.00  0.00    +0.000 C 
ATOM     15  F   UNL     1       6.111   3.232  15.023  0.00  0.00    +0.000 F 
ATOM     16  F   UNL     1       6.861   5.188  14.441  0.00  0.00    +0.000 F 
ATOM     17  F   UNL     1       7.697   4.173  16.174  0.00  0.00    +0.000 F 
ENDBRANCH  11  14
ENDBRANCH   5   8
BRANCH   1  19
ATOM     18  N   UNL     1       0.615  10.267  21.386  0.00  0.00    +0.000 N 
ATOM     19  C   UNL     1       0.238   9.673  20.195  0.00  0.00    +0.000 C 
ATOM     20  O   UNL     1      -0.665  10.030  19.446  0.00  0.00    +0.000 OA
ATOM     21  H   UNL     1       1.373   9.803  21.873  0.00  0.00    +0.000 HD
BRANCH  18  27
ATOM     22  C   UNL     1       0.646  15.039  21.721  0.00  0.00    +0.000 C 
ATOM     23  C   UNL     1       0.014  13.745  22.126  0.00  0.00    +0.000 A 
ATOM     24  C   UNL     1      -1.068  13.698  22.994  0.00  0.00    +0.000 A 
ATOM     25  C   UNL     1      -1.595  12.458  23.328  0.00  0.00    +0.000 A 
ATOM     26  C   UNL     1      -1.030  11.302  22.784  0.00  0.00    +0.000 A 
ATOM     27  C   UNL     1       0.049  11.427  21.919  0.00  0.00    +0.000 A 
ATOM     28  N   UNL     1       0.562  12.627  21.598  0.00  0.00    +0.000 NA
ENDBRANCH  18  27
ENDBRANCH   1  19
TORSDOF 4
ENDMDL
MODEL 2
REMARK VINA RESULT:      -7.8      0.096      1.171
REMARK  Name = 
REMARK  7 active torsions:
REMARK  status: ('A' for Active; 'I' for Inactive)
REMARK    1  A    between atoms: C_1  and  C_2
REMARK    2  A    between atoms: C_6  and  N_7
REMARK    3  A    between atoms: C_8  and  C_10
REMARK    4  A    between atoms: N_12  and  C_13
REMARK    5  A    between atoms: C_14  and  C_15
REMARK    6  A    between atoms: C_18  and  C_19
REMARK    7  A    between atoms: C_25  and  C_26
REMARK                            x       y       z     vdW  Elec       q    Type
REMARK                         _______ _______ _______ _____ _____    ______ ____
ROOT
ATOM      1  C   UNL     1       1.043   8.526  19.887  0.00  0.00    +0.000 A 
ATOM      2  N   UNL     1       1.148   7.474  20.714  0.00  0.00    +0.000 NA
ATOM      3  N   UNL     1       2.051   6.668  20.121  0.00  0.00    +0.000 N 
ATOM      4  C   UNL     1       2.458   5.494  20.863  0.00  0.00    +0.000 C 
ATOM      5  C   UNL     1       2.525   7.130  18.903  0.00  0.00    +0.000 A 
ATOM      6  C   UNL     1       1.862   8.348  18.723  0.00  0.00    +0.000 A 
ATOM      7  C   UNL     1       1.945   9.331  17.605  0.00  0.00    +0.000 C 
ENDROOT
BRANCH   5   8
ATOM      8  C   UNL     1       3.540   6.450  18.059  0.00  0.00    +0.000 A 
ATOM      9  C   UNL     1       4.728   7.076  17.661  0.00  0.00    +0.000 A 
ATOM     10  C   UNL     1       5.666   6.429  16.846  0.00  0.00    +0.000 A 
ATOM     11  C   UNL     1       5.478   5.101  16.454  0.00  0.00    +0.000 A 
ATOM     12  C   UNL     1       4.312   4.449  16.870  0.00  0.00    +0.000 A 
ATOM     13  C   UNL     1       3.347   5.124  17.633  0.00  0.00    +0.000 A 
BRANCH  11  14
ATOM     14  C   UNL     1       6.509   4.376  15.624  0.00  0.00    +0.000 C 
ATOM     15  F   UNL     1       6.865   5.050  14.494  0.00  0.00    +0.000 F 
ATOM     16  F   UNL     1       7.666   4.155  16.306  0.00  0.00    +0.000 F 
ATOM     17  F   UNL     1       6.080   3.153  15.206  0.00  0.00    +0.000 F 
ENDBRANCH  11  14
ENDBRANCH   5   8
BRANCH   1  19
ATOM     18  N   UNL     1       0.548  10.270  21.427  0.00  0.00    +0.000 N 
ATOM     19  C   UNL     1       0.191   9.693  20.222  0.00  0.00    +0.000 C 
ATOM     20  O   UNL     1      -0.703  10.057  19.465  0.00  0.00    +0.000 OA
ATOM     21  H   UNL     1       1.302   9.802  21.918  0.00  0.00    +0.000 HD
BRANCH  18  27
ATOM     22  C   UNL     1       0.570  15.035  21.854  0.00  0.00    +0.000 C 
ATOM     23  C   UNL     1      -0.071  13.733  22.220  0.00  0.00    +0.000 A 
ATOM     24  C   UNL     1      -1.172  13.671  23.061  0.00  0.00    +0.000 A 
ATOM     25  C   UNL     1      -1.707  12.423  23.359  0.00  0.00    +0.000 A 
ATOM     26  C   UNL     1      -1.128  11.279  22.806  0.00  0.00    +0.000 A 
ATOM     27  C   UNL     1      -0.030  11.420  21.969  0.00  0.00    +0.000 A 
ATOM     28  N   UNL     1       0.490  12.626  21.683  0.00  0.00    +0.000 NA
ENDBRANCH  18  27
ENDBRANCH   1  19
TORSDOF 4
ENDMDL
MODEL 3
REMARK VINA RESULT:      -7.7      1.516      2.021
REMARK  Name = 
REMARK  7 active torsions:
REMARK  status: ('A' for Active; 'I' for Inactive)
REMARK    1  A    between atoms: C_1  and  C_2
REMARK    2  A    between atoms: C_6  and  N_7
REMARK    3  A    between atoms: C_8  and  C_10
REMARK    4  A    between atoms: N_12  and  C_13
REMARK    5  A    between atoms: C_14  and  C_15
REMARK    6  A    between atoms: C_18  and  C_19
REMARK    7  A    between atoms: C_25  and  C_26
REMARK                            x       y       z     vdW  Elec       q    Type
REMARK                         _______ _______ _______ _____ _____    ______ ____
ROOT
ATOM      1  C   UNL     1       1.422   8.380  20.289  0.00  0.00    +0.000 A 
ATOM      2  N   UNL     1       1.442   7.221  20.966  0.00  0.00    +0.000 NA
ATOM      3  N   UNL     1       2.151   6.385  20.182  0.00  0.00    +0.000 N 
ATOM      4  C   UNL     1       2.443   5.076  20.726  0.00  0.00    +0.000 C 
ATOM      5  C   UNL     1       2.573   6.938  18.982  0.00  0.00    +0.000 A 
ATOM      6  C   UNL     1       2.091   8.249  19.027  0.00  0.00    +0.000 A 
ATOM      7  C   UNL     1       2.217   9.354  18.033  0.00  0.00    +0.000 C 
ENDROOT
BRANCH   5   8
ATOM      8  C   UNL     1       3.388   6.244  17.953  0.00  0.00    +0.000 A 
ATOM      9  C   UNL     1       3.182   4.903  17.609  0.00  0.00    +0.000 A 
ATOM     10  C   UNL     1       3.974   4.255  16.651  0.00  0.00    +0.000 A 
ATOM     11  C   UNL     1       4.962   4.952  15.951  0.00  0.00    +0.000 A 
ATOM     12  C   UNL     1       5.160   6.303  16.259  0.00  0.00    +0.000 A 
ATOM     13  C   UNL     1       4.406   6.927  17.264  0.00  0.00    +0.000 A 
BRANCH  11  14
ATOM     14  C   UNL     1       5.782   4.281  14.877  0.00  0.00    +0.000 C 
ATOM     15  F   UNL     1       6.921   4.960  14.562  0.00  0.00    +0.000 F 
ATOM     16  F   UNL     1       6.182   3.029  15.232  0.00  0.00    +0.000 F 
ATOM     17  F   UNL     1       5.099   4.140  13.707  0.00  0.00    +0.000 F 
ENDBRANCH  11  14
ENDBRANCH   5   8
BRANCH   1  19
ATOM     18  N   UNL     1      -0.268  10.043  20.088  0.00  0.00    +0.000 N 
ATOM     19  C   UNL     1       0.793   9.597  20.857  0.00  0.00    +0.000 C 
ATOM     20  O   UNL     1       1.209  10.092  21.899  0.00  0.00    +0.000 OA
ATOM     21  H   UNL     1      -0.438   9.507  19.244  0.00  0.00    +0.000 HD
BRANCH  18  27
ATOM     22  C   UNL     1      -2.737  12.454  23.402  0.00  0.00    +0.000 C 
ATOM     23  C   UNL     1      -2.314  12.340  21.970  0.00  0.00    +0.000 A 
ATOM     24  C   UNL     1      -2.726  13.252  21.010  0.00  0.00    +0.000 A 
ATOM     25  C   UNL     1      -2.296  13.074  19.701  0.00  0.00    +0.000 A 
ATOM     26  C   UNL     1      -1.466  11.995  19.392  0.00  0.00    +0.000 A 
ATOM     27  C   UNL     1      -1.091  11.125  20.407  0.00  0.00    +0.000 A 
ATOM     28  N   UNL     1      -1.509  11.294  21.673  0.00  0.00    +0.000 NA
ENDBRANCH  18  27
ENDBRANCH   1  19
TORSDOF 4
ENDMDL
MODEL 4
REMARK VINA RESULT:      -7.5      1.536      1.998
REMARK  Name = 
REMARK  7 active torsions:
REMARK  status: ('A' for Active; 'I' for Inactive)
REMARK    1  A    between atoms: C_1  and  C_2
REMARK    2  A    between atoms: C_6  and  N_7
REMARK    3  A    between atoms: C_8  and  C_10
REMARK    4  A    between atoms: N_12  and  C_13
REMARK    5  A    between atoms: C_14  and  C_15
REMARK    6  A    between atoms: C_18  and  C_19
REMARK    7  A    between atoms: C_25  and  C_26
REMARK                            x       y       z     vdW  Elec       q    Type
REMARK                         _______ _______ _______ _____ _____    ______ ____
ROOT
ATOM      1  C   UNL     1       1.368   8.435  20.223  0.00  0.00    +0.000 A 
ATOM      2  N   UNL     1       1.345   7.279  20.905  0.00  0.00    +0.000 NA
ATOM      3  N   UNL     1       2.072   6.430  20.153  0.00  0.00    +0.000 N 
ATOM      4  C   UNL     1       2.323   5.119  20.714  0.00  0.00    +0.000 C 
ATOM      5  C   UNL     1       2.550   6.971  18.970  0.00  0.00    +0.000 A 
ATOM      6  C   UNL     1       2.085   8.289  18.990  0.00  0.00    +0.000 A 
ATOM      7  C   UNL     1       2.267   9.388  17.998  0.00  0.00    +0.000 C 
ENDROOT
BRANCH   5   8
ATOM      8  C   UNL     1       3.396   6.262  17.976  0.00  0.00    +0.000 A 
ATOM      9  C   UNL     1       4.374   6.916  17.218  0.00  0.00    +0.000 A 
ATOM     10  C   UNL     1       5.150   6.237  16.269  0.00  0.00    +0.000 A 
ATOM     11  C   UNL     1       5.018   4.857  16.093  0.00  0.00    +0.000 A 
ATOM     12  C   UNL     1       4.067   4.181  16.865  0.00  0.00    +0.000 A 
ATOM     13  C   UNL     1       3.250   4.879  17.768  0.00  0.00    +0.000 A 
BRANCH  11  14
ATOM     14  C   UNL     1       5.887   4.106  15.114  0.00  0.00    +0.000 C 
ATOM     15  F   UNL     1       5.957   2.768  15.369  0.00  0.00    +0.000 F 
ATOM     16  F   UNL     1       5.445   4.217  13.832  0.00  0.00    +0.000 F 
ATOM     17  F   UNL     1       7.175   4.550  15.108  0.00  0.00    +0.000 F 
ENDBRANCH  11  14
ENDBRANCH   5   8
BRANCH   1  19
ATOM     18  N   UNL     1      -0.406  10.012  20.060  0.00  0.00    +0.000 N 
ATOM     19  C   UNL     1       0.735   9.664  20.761  0.00  0.00    +0.000 C 
ATOM     20  O   UNL     1       1.214  10.247  21.728  0.00  0.00    +0.000 OA
ATOM     21  H   UNL     1      -0.621   9.413  19.271  0.00  0.00    +0.000 HD
BRANCH  18  27
ATOM     22  C   UNL     1      -2.130  13.008  23.368  0.00  0.00    +0.000 C 
ATOM     23  C   UNL     1      -2.126  12.565  21.938  0.00  0.00    +0.000 A 
ATOM     24  C   UNL     1      -2.924  13.175  20.981  0.00  0.00    +0.000 A 
ATOM     25  C   UNL     1      -2.870  12.702  19.676  0.00  0.00    +0.000 A 
ATOM     26  C   UNL     1      -2.019  11.638  19.366  0.00  0.00    +0.000 A 
ATOM     27  C   UNL     1      -1.247  11.081  20.375  0.00  0.00    +0.000 A 
ATOM     28  N   UNL     1      -1.301  11.536  21.639  0.00  0.00    +0.000 NA
ENDBRANCH  18  27
ENDBRANCH   1  19
TORSDOF 4
ENDMDL
MODEL 5
REMARK VINA RESULT:      -7.4      0.813      1.432
REMARK  Name = 
REMARK  7 active torsions:
REMARK  status: ('A' for Active; 'I' for Inactive)
REMARK    1  A    between atoms: C_1  and  C_2
REMARK    2  A    between atoms: C_6  and  N_7
REMARK    3  A    between atoms: C_8  and  C_10
REMARK    4  A    between atoms: N_12  and  C_13
REMARK    5  A    between atoms: C_14  and  C_15
REMARK    6  A    between atoms: C_18  and  C_19
REMARK    7  A    between atoms: C_25  and  C_26
REMARK                            x       y       z     vdW  Elec       q    Type
REMARK                         _______ _______ _______ _____ _____    ______ ____
ROOT
ATOM      1  C   UNL     1       1.121   8.784  19.899  0.00  0.00    +0.000 A 
ATOM      2  N   UNL     1       1.180   7.744  20.746  0.00  0.00    +0.000 NA
ATOM      3  N   UNL     1       1.993   6.859  20.137  0.00  0.00    +0.000 N 
ATOM      4  C   UNL     1       2.341   5.673  20.890  0.00  0.00    +0.000 C 
ATOM      5  C   UNL     1       2.450   7.258  18.890  0.00  0.00    +0.000 A 
ATOM      6  C   UNL     1       1.874   8.519  18.708  0.00  0.00    +0.000 A 
ATOM      7  C   UNL     1       1.984   9.469  17.564  0.00  0.00    +0.000 C 
ENDROOT
BRANCH   5   8
ATOM      8  C   UNL     1       3.373   6.485  18.022  0.00  0.00    +0.000 A 
ATOM      9  C   UNL     1       3.200   5.119  17.768  0.00  0.00    +0.000 A 
ATOM     10  C   UNL     1       4.092   4.397  16.964  0.00  0.00    +0.000 A 
ATOM     11  C   UNL     1       5.158   5.037  16.327  0.00  0.00    +0.000 A 
ATOM     12  C   UNL     1       5.328   6.410  16.544  0.00  0.00    +0.000 A 
ATOM     13  C   UNL     1       4.468   7.111  17.401  0.00  0.00    +0.000 A 
BRANCH  11  14
ATOM     14  C   UNL     1       6.093   4.282  15.414  0.00  0.00    +0.000 C 
ATOM     15  F   UNL     1       5.929   2.929  15.471  0.00  0.00    +0.000 F 
ATOM     16  F   UNL     1       5.930   4.621  14.106  0.00  0.00    +0.000 F 
ATOM     17  F   UNL     1       7.404   4.509  15.701  0.00  0.00    +0.000 F 
ENDBRANCH  11  14
ENDBRANCH   5   8
BRANCH   1  19
ATOM     18  N   UNL     1       1.208  11.019  20.710  0.00  0.00    +0.000 N 
ATOM     19  C   UNL     1       0.375  10.020  20.240  0.00  0.00    +0.000 C 
ATOM     20  O   UNL     1      -0.841  10.084  20.086  0.00  0.00    +0.000 OA
ATOM     21  H   UNL     1       2.185  10.758  20.788  0.00  0.00    +0.000 HD
BRANCH  18  27
ATOM     22  C   UNL     1      -1.354  13.874  23.569  0.00  0.00    +0.000 C 
ATOM     23  C   UNL     1      -0.427  13.753  22.400  0.00  0.00    +0.000 A 
ATOM     24  C   UNL     1      -0.005  14.863  21.683  0.00  0.00    +0.000 A 
ATOM     25  C   UNL     1       0.850  14.668  20.606  0.00  0.00    +0.000 A 
ATOM     26  C   UNL     1       1.261  13.373  20.281  0.00  0.00    +0.000 A 
ATOM     27  C   UNL     1       0.801  12.311  21.047  0.00  0.00    +0.000 A 
ATOM     28  N   UNL     1      -0.030  12.499  22.087  0.00  0.00    +0.000 NA
ENDBRANCH  18  27
ENDBRANCH   1  19
TORSDOF 4
ENDMDL
MODEL 6
REMARK VINA RESULT:      -7.4      5.113      9.922
REMARK  Name = 
REMARK  7 active torsions:
REMARK  status: ('A' for Active; 'I' for Inactive)
REMARK    1  A    between atoms: C_1  and  C_2
REMARK    2  A    between atoms: C_6  and  N_7
REMARK    3  A    between atoms: C_8  and  C_10
REMARK    4  A    between atoms: N_12  and  C_13
REMARK    5  A    between atoms: C_14  and  C_15
REMARK    6  A    between atoms: C_18  and  C_19
REMARK    7  A    between atoms: C_25  and  C_26
REMARK                            x       y       z     vdW  Elec       q    Type
REMARK                         _______ _______ _______ _____ _____    ______ ____
ROOT
ATOM      1  C   UNL     1       4.360   4.927  17.414  0.00  0.00    +0.000 A 
ATOM      2  N   UNL     1       3.534   4.076  18.045  0.00  0.00    +0.000 NA
ATOM      3  N   UNL     1       2.710   4.873  18.755  0.00  0.00    +0.000 N 
ATOM      4  C   UNL     1       1.620   4.222  19.450  0.00  0.00    +0.000 C 
ATOM      5  C   UNL     1       2.984   6.228  18.649  0.00  0.00    +0.000 A 
ATOM      6  C   UNL     1       4.077   6.284  17.780  0.00  0.00    +0.000 A 
ATOM      7  C   UNL     1       4.838   7.460  17.267  0.00  0.00    +0.000 C 
ENDROOT
BRANCH   5   8
ATOM      8  C   UNL     1       2.217   7.316  19.306  0.00  0.00    +0.000 A 
ATOM      9  C   UNL     1       1.886   7.288  20.666  0.00  0.00    +0.000 A 
ATOM     10  C   UNL     1       1.142   8.312  21.267  0.00  0.00    +0.000 A 
ATOM     11  C   UNL     1       0.760   9.441  20.537  0.00  0.00    +0.000 A 
ATOM     12  C   UNL     1       1.109   9.501  19.183  0.00  0.00    +0.000 A 
ATOM     13  C   UNL     1       1.798   8.442  18.574  0.00  0.00    +0.000 A 
BRANCH  11  14
ATOM     14  C   UNL     1       0.008  10.576  21.188  0.00  0.00    +0.000 C 
ATOM     15  F   UNL     1      -0.418  10.289  22.451  0.00  0.00    +0.000 F 
ATOM     16  F   UNL     1       0.760  11.705  21.297  0.00  0.00    +0.000 F 
ATOM     17  F   UNL     1      -1.108  10.933  20.492  0.00  0.00    +0.000 F 
ENDBRANCH  11  14
ENDBRANCH   5   8
BRANCH   1  19
ATOM     18  N   UNL     1       5.004   4.640  15.142  0.00  0.00    +0.000 N 
ATOM     19  C   UNL     1       5.385   4.443  16.457  0.00  0.00    +0.000 C 
ATOM     20  O   UNL     1       6.434   3.947  16.856  0.00  0.00    +0.000 OA
ATOM     21  H   UNL     1       4.082   5.044  15.020  0.00  0.00    +0.000 HD
BRANCH  18  27
ATOM     22  C   UNL     1       5.756   1.911  11.285  0.00  0.00    +0.000 C 
ATOM     23  C   UNL     1       6.214   3.052  12.139  0.00  0.00    +0.000 A 
ATOM     24  C   UNL     1       7.363   3.770  11.845  0.00  0.00    +0.000 A 
ATOM     25  C   UNL     1       7.726   4.811  12.690  0.00  0.00    +0.000 A 
ATOM     26  C   UNL     1       6.929   5.106  13.798  0.00  0.00    +0.000 A 
ATOM     27  C   UNL     1       5.790   4.345  14.026  0.00  0.00    +0.000 A 
ATOM     28  N   UNL     1       5.441   3.336  13.211  0.00  0.00    +0.000 NA
ENDBRANCH  18  27
ENDBRANCH   1  19
TORSDOF 4
ENDMDL
MODEL 7
REMARK VINA RESULT:      -7.4      5.131      9.964
REMARK  Name = 
REMARK  7 active torsions:
REMARK  status: ('A' for Active; 'I' for Inactive)
REMARK    1  A    between atoms: C_1  and  C_2
REMARK    2  A    between atoms: C_6  and  N_7
REMARK    3  A    between atoms: C_8  and  C_10
REMARK    4  A    between atoms: N_12  and  C_13
REMARK    5  A    between atoms: C_14  and  C_15
REMARK    6  A    between atoms: C_18  and  C_19
REMARK    7  A    between atoms: C_25  and  C_26
REMARK                            x       y       z     vdW  Elec       q    Type
REMARK                         _______ _______ _______ _____ _____    ______ ____
ROOT
ATOM      1  C   UNL     1       4.376   4.956  17.349  0.00  0.00    +0.000 A 
ATOM      2  N   UNL     1       3.551   4.112  17.990  0.00  0.00    +0.000 NA
ATOM      3  N   UNL     1       2.724   4.916  18.688  0.00  0.00    +0.000 N 
ATOM      4  C   UNL     1       1.634   4.272  19.390  0.00  0.00    +0.000 C 
ATOM      5  C   UNL     1       2.995   6.270  18.565  0.00  0.00    +0.000 A 
ATOM      6  C   UNL     1       4.090   6.317  17.697  0.00  0.00    +0.000 A 
ATOM      7  C   UNL     1       4.848   7.488  17.169  0.00  0.00    +0.000 C 
ENDROOT
BRANCH   5   8
ATOM      8  C   UNL     1       2.224   7.365  19.206  0.00  0.00    +0.000 A 
ATOM      9  C   UNL     1       1.783   8.489  18.497  0.00  0.00    +0.000 A 
ATOM     10  C   UNL     1       1.076   9.526  19.120  0.00  0.00    +0.000 A 
ATOM     11  C   UNL     1       0.724   9.440  20.469  0.00  0.00    +0.000 A 
ATOM     12  C   UNL     1       1.128   8.308  21.186  0.00  0.00    +0.000 A 
ATOM     13  C   UNL     1       1.891   7.305  20.570  0.00  0.00    +0.000 A 
BRANCH  11  14
ATOM     14  C   UNL     1      -0.088  10.523  21.137  0.00  0.00    +0.000 C 
ATOM     15  F   UNL     1       0.653  11.611  21.494  0.00  0.00    +0.000 F 
ATOM     16  F   UNL     1      -1.083  10.997  20.339  0.00  0.00    +0.000 F 
ATOM     17  F   UNL     1      -0.692  10.096  22.280  0.00  0.00    +0.000 F 
ENDBRANCH  11  14
ENDBRANCH   5   8
BRANCH   1  19
ATOM     18  N   UNL     1       5.025   4.643  15.082  0.00  0.00    +0.000 N 
ATOM     19  C   UNL     1       5.403   4.461  16.400  0.00  0.00    +0.000 C 
ATOM     20  O   UNL     1       6.452   3.971  16.807  0.00  0.00    +0.000 OA
ATOM     21  H   UNL     1       4.104   5.045  14.954  0.00  0.00    +0.000 HD
BRANCH  18  27
ATOM     22  C   UNL     1       5.808   1.848  11.279  0.00  0.00    +0.000 C 
ATOM     23  C   UNL     1       6.252   3.011  12.110  0.00  0.00    +0.000 A 
ATOM     24  C   UNL     1       7.393   3.737  11.801  0.00  0.00    +0.000 A 
ATOM     25  C   UNL     1       7.744   4.799  12.625  0.00  0.00    +0.000 A 
ATOM     26  C   UNL     1       6.944   5.106  13.728  0.00  0.00    +0.000 A 
ATOM     27  C   UNL     1       5.815   4.336  13.972  0.00  0.00    +0.000 A 
ATOM     28  N   UNL     1       5.477   3.307  13.177  0.00  0.00    +0.000 NA
ENDBRANCH  18  27
ENDBRANCH   1  19
TORSDOF 4
ENDMDL
MODEL 8
REMARK VINA RESULT:      -7.4      5.093      9.688
REMARK  Name = 
REMARK  7 active torsions:
REMARK  status: ('A' for Active; 'I' for Inactive)
REMARK    1  A    between atoms: C_1  and  C_2
REMARK    2  A    between atoms: C_6  and  N_7
REMARK    3  A    between atoms: C_8  and  C_10
REMARK    4  A    between atoms: N_12  and  C_13
REMARK    5  A    between atoms: C_14  and  C_15
REMARK    6  A    between atoms: C_18  and  C_19
REMARK    7  A    between atoms: C_25  and  C_26
REMARK                            x       y       z     vdW  Elec       q    Type
REMARK                         _______ _______ _______ _____ _____    ______ ____
ROOT
ATOM      1  C   UNL     1       4.271   5.066  17.571  0.00  0.00    +0.000 A 
ATOM      2  N   UNL     1       3.462   4.211  18.218  0.00  0.00    +0.000 NA
ATOM      3  N   UNL     1       2.625   5.003  18.917  0.00  0.00    +0.000 N 
ATOM      4  C   UNL     1       1.549   4.344  19.626  0.00  0.00    +0.000 C 
ATOM      5  C   UNL     1       2.874   6.361  18.789  0.00  0.00    +0.000 A 
ATOM      6  C   UNL     1       3.964   6.423  17.916  0.00  0.00    +0.000 A 
ATOM      7  C   UNL     1       4.702   7.605  17.382  0.00  0.00    +0.000 C 
ENDROOT
BRANCH   5   8
ATOM      8  C   UNL     1       2.089   7.446  19.430  0.00  0.00    +0.000 A 
ATOM      9  C   UNL     1       1.731   7.416  20.784  0.00  0.00    +0.000 A 
ATOM     10  C   UNL     1       0.971   8.437  21.370  0.00  0.00    +0.000 A 
ATOM     11  C   UNL     1       0.597   9.563  20.633  0.00  0.00    +0.000 A 
ATOM     12  C   UNL     1       0.974   9.625  19.286  0.00  0.00    +0.000 A 
ATOM     13  C   UNL     1       1.680   8.570  18.691  0.00  0.00    +0.000 A 
BRANCH  11  14
ATOM     14  C   UNL     1      -0.173  10.695  21.268  0.00  0.00    +0.000 C 
ATOM     15  F   UNL     1      -0.682  10.382  22.494  0.00  0.00    +0.000 F 
ATOM     16  F   UNL     1       0.592  11.805  21.456  0.00  0.00    +0.000 F 
ATOM     17  F   UNL     1      -1.236  11.093  20.516  0.00  0.00    +0.000 F 
ENDBRANCH  11  14
ENDBRANCH   5   8
BRANCH   1  19
ATOM     18  N   UNL     1       4.969   4.866  15.306  0.00  0.00    +0.000 N 
ATOM     19  C   UNL     1       5.302   4.586  16.619  0.00  0.00    +0.000 C 
ATOM     20  O   UNL     1       6.316   4.024  17.020  0.00  0.00    +0.000 OA
ATOM     21  H   UNL     1       4.070   5.316  15.180  0.00  0.00    +0.000 HD
BRANCH  18  27
ATOM     22  C   UNL     1       8.892   5.887  12.764  0.00  0.00    +0.000 C 
ATOM     23  C   UNL     1       7.665   5.044  12.917  0.00  0.00    +0.000 A 
ATOM     24  C   UNL     1       7.339   4.054  12.001  0.00  0.00    +0.000 A 
ATOM     25  C   UNL     1       6.179   3.318  12.208  0.00  0.00    +0.000 A 
ATOM     26  C   UNL     1       5.383   3.590  13.323  0.00  0.00    +0.000 A 
ATOM     27  C   UNL     1       5.775   4.593  14.198  0.00  0.00    +0.000 A 
ATOM     28  N   UNL     1       6.895   5.308  13.997  0.00  0.00    +0.000 NA
ENDBRANCH  18  27
ENDBRANCH   1  19
TORSDOF 4
ENDMDL
MODEL 9
REMARK VINA RESULT:      -7.4      1.666      2.313
REMARK  Name = 
REMARK  7 active torsions:
REMARK  status: ('A' for Active; 'I' for Inactive)
REMARK    1  A    between atoms: C_1  and  C_2
REMARK    2  A    between atoms: C_6  and  N_7
REMARK    3  A    between atoms: C_8  and  C_10
REMARK    4  A    between atoms: N_12  and  C_13
REMARK    5  A    between atoms: C_14  and  C_15
REMARK    6  A    between atoms: C_18  and  C_19
REMARK    7  A    between atoms: C_25  and  C_26
REMARK                            x       y       z     vdW  Elec       q    Type
REMARK                         _______ _______ _______ _____ _____    ______ ____
ROOT
ATOM      1  C   UNL     1       1.389   8.392  20.193  0.00  0.00    +0.000 A 
ATOM      2  N   UNL     1       1.418   7.235  20.874  0.00  0.00    +0.000 NA
ATOM      3  N   UNL     1       2.150   6.408  20.101  0.00  0.00    +0.000 N 
ATOM      4  C   UNL     1       2.454   5.106  20.653  0.00  0.00    +0.000 C 
ATOM      5  C   UNL     1       2.578   6.964  18.905  0.00  0.00    +0.000 A 
ATOM      6  C   UNL     1       2.074   8.267  18.940  0.00  0.00    +0.000 A 
ATOM      7  C   UNL     1       2.195   9.371  17.943  0.00  0.00    +0.000 C 
ENDROOT
BRANCH   5   8
ATOM      8  C   UNL     1       3.415   6.279  17.888  0.00  0.00    +0.000 A 
ATOM      9  C   UNL     1       4.423   6.940  17.176  0.00  0.00    +0.000 A 
ATOM     10  C   UNL     1       5.191   6.287  16.203  0.00  0.00    +0.000 A 
ATOM     11  C   UNL     1       5.021   4.922  15.955  0.00  0.00    +0.000 A 
ATOM     12  C   UNL     1       4.039   4.238  16.681  0.00  0.00    +0.000 A 
ATOM     13  C   UNL     1       3.231   4.914  17.608  0.00  0.00    +0.000 A 
BRANCH  11  14
ATOM     14  C   UNL     1       5.881   4.195  14.951  0.00  0.00    +0.000 C 
ATOM     15  F   UNL     1       7.074   4.811  14.714  0.00  0.00    +0.000 F 
ATOM     16  F   UNL     1       6.188   2.930  15.346  0.00  0.00    +0.000 F 
ATOM     17  F   UNL     1       5.278   4.075  13.735  0.00  0.00    +0.000 F 
ENDBRANCH  11  14
ENDBRANCH   5   8
BRANCH   1  19
ATOM     18  N   UNL     1       0.212  10.414  19.759  0.00  0.00    +0.000 N 
ATOM     19  C   UNL     1       0.735   9.602  20.749  0.00  0.00    +0.000 C 
ATOM     20  O   UNL     1       0.687   9.791  21.960  0.00  0.00    +0.000 OA
ATOM     21  H   UNL     1       0.379  10.093  18.812  0.00  0.00    +0.000 HD
BRANCH  18  27
ATOM     22  C   UNL     1      -4.044  12.584  20.021  0.00  0.00    +0.000 C 
ATOM     23  C   UNL     1      -2.555  12.699  20.120  0.00  0.00    +0.000 A 
ATOM     24  C   UNL     1      -1.931  13.904  20.406  0.00  0.00    +0.000 A 
ATOM     25  C   UNL     1      -0.544  13.931  20.474  0.00  0.00    +0.000 A 
ATOM     26  C   UNL     1       0.177  12.754  20.259  0.00  0.00    +0.000 A 
ATOM     27  C   UNL     1      -0.516  11.584  19.982  0.00  0.00    +0.000 A 
ATOM     28  N   UNL     1      -1.858  11.558  19.912  0.00  0.00    +0.000 NA
ENDBRANCH  18  27
ENDBRANCH   1  19
TORSDOF 4
ENDMDL
