MODEL 1
REMARK VINA RESULT:      -7.2      0.000      0.000
REMARK  Name = 
REMARK  15 active torsions:
REMARK  status: ('A' for Active; 'I' for Inactive)
REMARK    1  A    between atoms: C_1  and  C_2
REMARK    2  A    between atoms: C_2  and  C_3
REMARK    3  A    between atoms: C_3  and  C_4
REMARK    4  A    between atoms: C_4  and  N_5
REMARK    5  A    between atoms: N_5  and  C_6
REMARK    6  A    between atoms: N_5  and  C_10
REMARK    7  A    between atoms: C_6  and  C_7
REMARK    8  A    between atoms: C_7  and  C_8
REMARK    9  A    between atoms: C_8  and  C_9
REMARK   10  A    between atoms: C_10  and  C_11
REMARK   11  A    between atoms: C_11  and  C_12
REMARK   12  A    between atoms: C_12  and  O_13
REMARK   13  A    between atoms: O_13  and  C_14
REMARK   14  A    between atoms: C_17  and  C_18
REMARK   15  A    between atoms: C_18  and  C_20
REMARK                            x       y       z     vdW  Elec       q    Type
REMARK                         _______ _______ _______ _____ _____    ______ ____
ROOT
ATOM      1  C   UNL     1       3.195   6.792  18.849  0.00  0.00    +0.000 A 
ATOM      2  C   UNL     1       3.132   7.678  17.770  0.00  0.00    +0.000 A 
ATOM      3  C   UNL     1       2.274   8.779  17.808  0.00  0.00    +0.000 A 
ATOM      4  C   UNL     1       1.474   9.005  18.928  0.00  0.00    +0.000 A 
ATOM      5  C   UNL     1       1.521   8.111  20.006  0.00  0.00    +0.000 A 
ATOM      6  C   UNL     1       2.386   7.012  19.963  0.00  0.00    +0.000 A 
ENDROOT
BRANCH   4   7
ATOM      7  C   UNL     1       0.552  10.173  18.898  0.00  0.00    +0.000 C 
ATOM      8  O   UNL     1      -0.396  10.126  18.117  0.00  0.00    +0.000 OA
BRANCH   7   9
ATOM      9  C   UNL     1       0.792  11.295  19.767  0.00  0.00    +0.000 A 
ATOM     10  C   UNL     1       0.314  11.561  21.034  0.00  0.00    +0.000 A 
ATOM     11  N   UNL     1       0.791  12.749  21.515  0.00  0.00    +0.000 NA
ATOM     12  C   UNL     1       1.588  13.224  20.579  0.00  0.00    +0.000 A 
ATOM     13  N   UNL     1       2.303  14.385  20.585  0.00  0.00    +0.000 NA
ATOM     14  C   UNL     1       3.008  14.626  19.523  0.00  0.00    +0.000 A 
ATOM     15  C   UNL     1       3.108  13.769  18.309  0.00  0.00    +0.000 A 
ATOM     16  C   UNL     1       2.390  12.641  18.357  0.00  0.00    +0.000 A 
ATOM     17  N   UNL     1       1.629  12.356  19.488  0.00  0.00    +0.000 N 
ENDBRANCH   7   9
ENDBRANCH   4   7
BRANCH   1  18
ATOM     18  O   UNL     1       3.992   5.679  18.910  0.00  0.00    +0.000 OA
BRANCH  18  19
ATOM     19  C   UNL     1       3.357   4.475  18.472  0.00  0.00    +0.000 C 
BRANCH  19  20
ATOM     20  C   UNL     1       3.676   4.218  17.007  0.00  0.00    +0.000 C 
BRANCH  20  21
ATOM     21  C   UNL     1       5.101   3.667  16.854  0.00  0.00    +0.000 C 
BRANCH  21  22
ATOM     22  N   UNL     1       6.125   4.658  16.433  0.00  0.00    +0.000 NA
BRANCH  22  23
ATOM     23  C   UNL     1       7.216   4.691  17.441  0.00  0.00    +0.000 C 
BRANCH  23  24
ATOM     24  C   UNL     1       7.500   6.008  18.180  0.00  0.00    +0.000 C 
BRANCH  24  26
ATOM     25  C   UNL     1       7.992   8.433  17.816  0.00  0.00    +0.000 C 
ATOM     26  C   UNL     1       7.088   7.270  17.424  0.00  0.00    +0.000 C 
ENDBRANCH  24  26
ENDBRANCH  23  24
ENDBRANCH  22  23
BRANCH  22  27
ATOM     27  C   UNL     1       6.646   4.331  15.087  0.00  0.00    +0.000 C 
BRANCH  27  28
ATOM     28  C   UNL     1       5.600   4.078  13.982  0.00  0.00    +0.000 C 
BRANCH  28  29
ATOM     29  C   UNL     1       6.179   3.560  12.663  0.00  0.00    +0.000 C 
ATOM     30  C   UNL     1       5.063   3.104  11.730  0.00  0.00    +0.000 C 
ENDBRANCH  28  29
ENDBRANCH  27  28
ENDBRANCH  22  27
ENDBRANCH  21  22
ENDBRANCH  20  21
ENDBRANCH  19  20
ENDBRANCH  18  19
ENDBRANCH   1  18
TORSDOF 13
ENDMDL
MODEL 2
REMARK VINA RESULT:      -6.8      5.309      9.041
REMARK  Name = 
REMARK  15 active torsions:
REMARK  status: ('A' for Active; 'I' for Inactive)
REMARK    1  A    between atoms: C_1  and  C_2
REMARK    2  A    between atoms: C_2  and  C_3
REMARK    3  A    between atoms: C_3  and  C_4
REMARK    4  A    between atoms: C_4  and  N_5
REMARK    5  A    between atoms: N_5  and  C_6
REMARK    6  A    between atoms: N_5  and  C_10
REMARK    7  A    between atoms: C_6  and  C_7
REMARK    8  A    between atoms: C_7  and  C_8
REMARK    9  A    between atoms: C_8  and  C_9
REMARK   10  A    between atoms: C_10  and  C_11
REMARK   11  A    between atoms: C_11  and  C_12
REMARK   12  A    between atoms: C_12  and  O_13
REMARK   13  A    between atoms: O_13  and  C_14
REMARK   14  A    between atoms: C_17  and  C_18
REMARK   15  A    between atoms: C_18  and  C_20
REMARK                            x       y       z     vdW  Elec       q    Type
REMARK                         _______ _______ _______ _____ _____    ______ ____
ROOT
ATOM      1  C   UNL     1       6.809   7.098  17.333  0.00  0.00    +0.000 A 
ATOM      2  C   UNL     1       7.259   6.003  18.077  0.00  0.00    +0.000 A 
ATOM      3  C   UNL     1       6.475   4.854  18.190  0.00  0.00    +0.000 A 
ATOM      4  C   UNL     1       5.233   4.788  17.558  0.00  0.00    +0.000 A 
ATOM      5  C   UNL     1       4.769   5.888  16.824  0.00  0.00    +0.000 A 
ATOM      6  C   UNL     1       5.562   7.035  16.711  0.00  0.00    +0.000 A 
ENDROOT
BRANCH   4   7
ATOM      7  C   UNL     1       4.424   3.553  17.743  0.00  0.00    +0.000 C 
ATOM      8  O   UNL     1       3.938   3.038  16.738  0.00  0.00    +0.000 OA
BRANCH   7   9
ATOM      9  C   UNL     1       4.242   3.009  19.064  0.00  0.00    +0.000 A 
ATOM     10  C   UNL     1       5.110   2.290  19.860  0.00  0.00    +0.000 A 
ATOM     11  N   UNL     1       4.540   1.960  21.059  0.00  0.00    +0.000 NA
ATOM     12  C   UNL     1       3.333   2.488  21.042  0.00  0.00    +0.000 A 
ATOM     13  N   UNL     1       2.373   2.436  22.009  0.00  0.00    +0.000 NA
ATOM     14  C   UNL     1       1.255   3.035  21.735  0.00  0.00    +0.000 A 
ATOM     15  C   UNL     1       0.919   3.761  20.479  0.00  0.00    +0.000 A 
ATOM     16  C   UNL     1       1.897   3.784  19.565  0.00  0.00    +0.000 A 
ATOM     17  N   UNL     1       3.109   3.154  19.837  0.00  0.00    +0.000 N 
ENDBRANCH   7   9
ENDBRANCH   4   7
BRANCH   1  18
ATOM     18  O   UNL     1       7.492   8.273  17.166  0.00  0.00    +0.000 OA
BRANCH  18  19
ATOM     19  C   UNL     1       8.311   8.642  18.280  0.00  0.00    +0.000 C 
BRANCH  19  20
ATOM     20  C   UNL     1       8.788  10.078  18.126  0.00  0.00    +0.000 C 
BRANCH  20  21
ATOM     21  C   UNL     1       9.486  10.554  19.407  0.00  0.00    +0.000 C 
BRANCH  21  22
ATOM     22  N   UNL     1      10.820  11.182  19.210  0.00  0.00    +0.000 NA
BRANCH  22  23
ATOM     23  C   UNL     1      10.831  11.906  17.914  0.00  0.00    +0.000 C 
BRANCH  23  24
ATOM     24  C   UNL     1      10.684  13.436  17.922  0.00  0.00    +0.000 C 
BRANCH  24  26
ATOM     25  C   UNL     1       9.190  15.434  18.104  0.00  0.00    +0.000 C 
ATOM     26  C   UNL     1       9.249  13.943  17.789  0.00  0.00    +0.000 C 
ENDBRANCH  24  26
ENDBRANCH  23  24
ENDBRANCH  22  23
BRANCH  22  27
ATOM     27  C   UNL     1      11.141  12.087  20.336  0.00  0.00    +0.000 C 
BRANCH  27  28
ATOM     28  C   UNL     1      10.021  12.339  21.366  0.00  0.00    +0.000 C 
BRANCH  28  29
ATOM     29  C   UNL     1       9.633  13.809  21.539  0.00  0.00    +0.000 C 
ATOM     30  C   UNL     1       8.131  13.993  21.343  0.00  0.00    +0.000 C 
ENDBRANCH  28  29
ENDBRANCH  27  28
ENDBRANCH  22  27
ENDBRANCH  21  22
ENDBRANCH  20  21
ENDBRANCH  19  20
ENDBRANCH  18  19
ENDBRANCH   1  18
TORSDOF 13
ENDMDL
MODEL 3
REMARK VINA RESULT:      -6.7      1.994      9.349
REMARK  Name = 
REMARK  15 active torsions:
REMARK  status: ('A' for Active; 'I' for Inactive)
REMARK    1  A    between atoms: C_1  and  C_2
REMARK    2  A    between atoms: C_2  and  C_3
REMARK    3  A    between atoms: C_3  and  C_4
REMARK    4  A    between atoms: C_4  and  N_5
REMARK    5  A    between atoms: N_5  and  C_6
REMARK    6  A    between atoms: N_5  and  C_10
REMARK    7  A    between atoms: C_6  and  C_7
REMARK    8  A    between atoms: C_7  and  C_8
REMARK    9  A    between atoms: C_8  and  C_9
REMARK   10  A    between atoms: C_10  and  C_11
REMARK   11  A    between atoms: C_11  and  C_12
REMARK   12  A    between atoms: C_12  and  O_13
REMARK   13  A    between atoms: O_13  and  C_14
REMARK   14  A    between atoms: C_17  and  C_18
REMARK   15  A    between atoms: C_18  and  C_20
REMARK                            x       y       z     vdW  Elec       q    Type
REMARK                         _______ _______ _______ _____ _____    ______ ____
ROOT
ATOM      1  C   UNL     1       1.651   8.545  19.254  0.00  0.00    +0.000 A 
ATOM      2  C   UNL     1       2.438   8.226  18.144  0.00  0.00    +0.000 A 
ATOM      3  C   UNL     1       3.130   7.015  18.092  0.00  0.00    +0.000 A 
ATOM      4  C   UNL     1       3.039   6.109  19.149  0.00  0.00    +0.000 A 
ATOM      5  C   UNL     1       2.264   6.430  20.272  0.00  0.00    +0.000 A 
ATOM      6  C   UNL     1       1.569   7.644  20.316  0.00  0.00    +0.000 A 
ENDROOT
BRANCH   4   7
ATOM      7  C   UNL     1       3.827   4.851  19.055  0.00  0.00    +0.000 C 
ATOM      8  O   UNL     1       3.262   3.804  19.368  0.00  0.00    +0.000 OA
BRANCH   7   9
ATOM      9  C   UNL     1       5.195   4.896  18.609  0.00  0.00    +0.000 A 
ATOM     10  C   UNL     1       6.360   5.099  19.322  0.00  0.00    +0.000 A 
ATOM     11  N   UNL     1       7.461   5.066  18.511  0.00  0.00    +0.000 NA
ATOM     12  C   UNL     1       7.009   4.815  17.299  0.00  0.00    +0.000 A 
ATOM     13  N   UNL     1       7.718   4.685  16.141  0.00  0.00    +0.000 NA
ATOM     14  C   UNL     1       7.023   4.448  15.071  0.00  0.00    +0.000 A 
ATOM     15  C   UNL     1       5.543   4.309  14.984  0.00  0.00    +0.000 A 
ATOM     16  C   UNL     1       4.896   4.442  16.149  0.00  0.00    +0.000 A 
ATOM     17  N   UNL     1       5.619   4.691  17.313  0.00  0.00    +0.000 N 
ENDBRANCH   7   9
ENDBRANCH   4   7
BRANCH   1  18
ATOM     18  O   UNL     1       0.941   9.706  19.411  0.00  0.00    +0.000 OA
BRANCH  18  19
ATOM     19  C   UNL     1       0.871  10.176  20.760  0.00  0.00    +0.000 C 
BRANCH  19  20
ATOM     20  C   UNL     1       0.813  11.695  20.783  0.00  0.00    +0.000 C 
BRANCH  20  21
ATOM     21  C   UNL     1      -0.559  12.191  20.306  0.00  0.00    +0.000 C 
BRANCH  21  22
ATOM     22  N   UNL     1      -0.772  12.159  18.835  0.00  0.00    +0.000 NA
BRANCH  22  23
ATOM     23  C   UNL     1      -2.200  11.864  18.555  0.00  0.00    +0.000 C 
BRANCH  23  24
ATOM     24  C   UNL     1      -2.591  10.437  18.140  0.00  0.00    +0.000 C 
BRANCH  24  26
ATOM     25  C   UNL     1      -2.761  10.750  15.664  0.00  0.00    +0.000 C 
ATOM     26  C   UNL     1      -2.052   9.993  16.781  0.00  0.00    +0.000 C 
ENDBRANCH  24  26
ENDBRANCH  23  24
ENDBRANCH  22  23
BRANCH  22  27
ATOM     27  C   UNL     1      -0.356  13.440  18.221  0.00  0.00    +0.000 C 
BRANCH  27  28
ATOM     28  C   UNL     1      -0.426  14.694  19.116  0.00  0.00    +0.000 C 
BRANCH  28  29
ATOM     29  C   UNL     1       0.770  15.639  18.984  0.00  0.00    +0.000 C 
ATOM     30  C   UNL     1       2.079  14.873  19.148  0.00  0.00    +0.000 C 
ENDBRANCH  28  29
ENDBRANCH  27  28
ENDBRANCH  22  27
ENDBRANCH  21  22
ENDBRANCH  20  21
ENDBRANCH  19  20
ENDBRANCH  18  19
ENDBRANCH   1  18
TORSDOF 13
ENDMDL
MODEL 4
REMARK VINA RESULT:      -6.7      4.804      8.833
REMARK  Name = 
REMARK  15 active torsions:
REMARK  status: ('A' for Active; 'I' for Inactive)
REMARK    1  A    between atoms: C_1  and  C_2
REMARK    2  A    between atoms: C_2  and  C_3
REMARK    3  A    between atoms: C_3  and  C_4
REMARK    4  A    between atoms: C_4  and  N_5
REMARK    5  A    between atoms: N_5  and  C_6
REMARK    6  A    between atoms: N_5  and  C_10
REMARK    7  A    between atoms: C_6  and  C_7
REMARK    8  A    between atoms: C_7  and  C_8
REMARK    9  A    between atoms: C_8  and  C_9
REMARK   10  A    between atoms: C_10  and  C_11
REMARK   11  A    between atoms: C_11  and  C_12
REMARK   12  A    between atoms: C_12  and  O_13
REMARK   13  A    between atoms: O_13  and  C_14
REMARK   14  A    between atoms: C_17  and  C_18
REMARK   15  A    between atoms: C_18  and  C_20
REMARK                            x       y       z     vdW  Elec       q    Type
REMARK                         _______ _______ _______ _____ _____    ______ ____
ROOT
ATOM      1  C   UNL     1       7.822   7.346  18.297  0.00  0.00    +0.000 A 
ATOM      2  C   UNL     1       7.861   6.146  19.012  0.00  0.00    +0.000 A 
ATOM      3  C   UNL     1       6.990   5.103  18.693  0.00  0.00    +0.000 A 
ATOM      4  C   UNL     1       6.073   5.250  17.652  0.00  0.00    +0.000 A 
ATOM      5  C   UNL     1       6.018   6.456  16.941  0.00  0.00    +0.000 A 
ATOM      6  C   UNL     1       6.897   7.496  17.263  0.00  0.00    +0.000 A 
ENDROOT
BRANCH   4   7
ATOM      7  C   UNL     1       5.144   4.120  17.380  0.00  0.00    +0.000 C 
ATOM      8  O   UNL     1       5.194   3.602  16.266  0.00  0.00    +0.000 OA
BRANCH   7   9
ATOM      9  C   UNL     1       4.239   3.676  18.407  0.00  0.00    +0.000 A 
ATOM     10  C   UNL     1       4.025   2.414  18.923  0.00  0.00    +0.000 A 
ATOM     11  N   UNL     1       3.066   2.422  19.899  0.00  0.00    +0.000 NA
ATOM     12  C   UNL     1       2.693   3.680  20.027  0.00  0.00    +0.000 A 
ATOM     13  N   UNL     1       1.760   4.204  20.872  0.00  0.00    +0.000 NA
ATOM     14  C   UNL     1       1.571   5.485  20.789  0.00  0.00    +0.000 A 
ATOM     15  C   UNL     1       2.263   6.428  19.868  0.00  0.00    +0.000 A 
ATOM     16  C   UNL     1       3.171   5.862  19.062  0.00  0.00    +0.000 A 
ATOM     17  N   UNL     1       3.397   4.490  19.136  0.00  0.00    +0.000 N 
ENDBRANCH   7   9
ENDBRANCH   4   7
BRANCH   1  18
ATOM     18  O   UNL     1       8.623   8.432  18.533  0.00  0.00    +0.000 OA
BRANCH  18  19
ATOM     19  C   UNL     1       8.386   9.540  17.661  0.00  0.00    +0.000 C 
BRANCH  19  20
ATOM     20  C   UNL     1       8.755  10.842  18.355  0.00  0.00    +0.000 C 
BRANCH  20  21
ATOM     21  C   UNL     1       9.690  10.573  19.542  0.00  0.00    +0.000 C 
BRANCH  21  22
ATOM     22  N   UNL     1      10.981  11.310  19.515  0.00  0.00    +0.000 NA
BRANCH  22  23
ATOM     23  C   UNL     1      11.291  11.701  18.116  0.00  0.00    +0.000 C 
BRANCH  23  24
ATOM     24  C   UNL     1      11.975  13.052  17.861  0.00  0.00    +0.000 C 
BRANCH  24  26
ATOM     25  C   UNL     1      10.611  15.147  17.754  0.00  0.00    +0.000 C 
ATOM     26  C   UNL     1      11.203  13.999  16.944  0.00  0.00    +0.000 C 
ENDBRANCH  24  26
ENDBRANCH  23  24
ENDBRANCH  22  23
BRANCH  22  27
ATOM     27  C   UNL     1      10.926  12.492  20.404  0.00  0.00    +0.000 C 
BRANCH  27  28
ATOM     28  C   UNL     1       9.828  12.494  21.488  0.00  0.00    +0.000 C 
BRANCH  28  29
ATOM     29  C   UNL     1       9.364  13.886  21.922  0.00  0.00    +0.000 C 
ATOM     30  C   UNL     1      10.373  14.946  21.490  0.00  0.00    +0.000 C 
ENDBRANCH  28  29
ENDBRANCH  27  28
ENDBRANCH  22  27
ENDBRANCH  21  22
ENDBRANCH  20  21
ENDBRANCH  19  20
ENDBRANCH  18  19
ENDBRANCH   1  18
TORSDOF 13
ENDMDL
MODEL 5
REMARK VINA RESULT:      -6.7      2.194      3.141
REMARK  Name = 
REMARK  15 active torsions:
REMARK  status: ('A' for Active; 'I' for Inactive)
REMARK    1  A    between atoms: C_1  and  C_2
REMARK    2  A    between atoms: C_2  and  C_3
REMARK    3  A    between atoms: C_3  and  C_4
REMARK    4  A    between atoms: C_4  and  N_5
REMARK    5  A    between atoms: N_5  and  C_6
REMARK    6  A    between atoms: N_5  and  C_10
REMARK    7  A    between atoms: C_6  and  C_7
REMARK    8  A    between atoms: C_7  and  C_8
REMARK    9  A    between atoms: C_8  and  C_9
REMARK   10  A    between atoms: C_10  and  C_11
REMARK   11  A    between atoms: C_11  and  C_12
REMARK   12  A    between atoms: C_12  and  O_13
REMARK   13  A    between atoms: O_13  and  C_14
REMARK   14  A    between atoms: C_17  and  C_18
REMARK   15  A    between atoms: C_18  and  C_20
REMARK                            x       y       z     vdW  Elec       q    Type
REMARK                         _______ _______ _______ _____ _____    ______ ____
ROOT
ATOM      1  C   UNL     1       2.327   7.053  19.584  0.00  0.00    +0.000 A 
ATOM      2  C   UNL     1       2.585   7.619  18.332  0.00  0.00    +0.000 A 
ATOM      3  C   UNL     1       2.186   8.927  18.051  0.00  0.00    +0.000 A 
ATOM      4  C   UNL     1       1.528   9.683  19.021  0.00  0.00    +0.000 A 
ATOM      5  C   UNL     1       1.252   9.115  20.272  0.00  0.00    +0.000 A 
ATOM      6  C   UNL     1       1.658   7.805  20.549  0.00  0.00    +0.000 A 
ENDROOT
BRANCH   4   7
ATOM      7  C   UNL     1       1.093  11.057  18.654  0.00  0.00    +0.000 C 
ATOM      8  O   UNL     1       1.918  11.783  18.100  0.00  0.00    +0.000 OA
BRANCH   7   9
ATOM      9  C   UNL     1      -0.250  11.485  18.948  0.00  0.00    +0.000 A 
ATOM     10  C   UNL     1      -0.710  12.419  19.854  0.00  0.00    +0.000 A 
ATOM     11  N   UNL     1      -2.073  12.529  19.818  0.00  0.00    +0.000 NA
ATOM     12  C   UNL     1      -2.477  11.697  18.879  0.00  0.00    +0.000 A 
ATOM     13  N   UNL     1      -3.751  11.444  18.464  0.00  0.00    +0.000 NA
ATOM     14  C   UNL     1      -3.879  10.563  17.520  0.00  0.00    +0.000 A 
ATOM     15  C   UNL     1      -2.782   9.806  16.856  0.00  0.00    +0.000 A 
ATOM     16  C   UNL     1      -1.552  10.094  17.299  0.00  0.00    +0.000 A 
ATOM     17  N   UNL     1      -1.387  11.041  18.307  0.00  0.00    +0.000 N 
ENDBRANCH   7   9
ENDBRANCH   4   7
BRANCH   1  18
ATOM     18  O   UNL     1       2.666   5.780  19.959  0.00  0.00    +0.000 OA
BRANCH  18  19
ATOM     19  C   UNL     1       1.874   4.756  19.351  0.00  0.00    +0.000 C 
BRANCH  19  20
ATOM     20  C   UNL     1       2.507   4.313  18.041  0.00  0.00    +0.000 C 
BRANCH  20  21
ATOM     21  C   UNL     1       4.035   4.257  18.172  0.00  0.00    +0.000 C 
BRANCH  21  22
ATOM     22  N   UNL     1       4.793   4.961  17.105  0.00  0.00    +0.000 NA
BRANCH  22  23
ATOM     23  C   UNL     1       6.196   5.156  17.550  0.00  0.00    +0.000 C 
BRANCH  23  24
ATOM     24  C   UNL     1       6.863   6.520  17.317  0.00  0.00    +0.000 C 
BRANCH  24  26
ATOM     25  C   UNL     1       7.997   5.839  19.441  0.00  0.00    +0.000 C 
ATOM     26  C   UNL     1       7.849   6.946  18.404  0.00  0.00    +0.000 C 
ENDBRANCH  24  26
ENDBRANCH  23  24
ENDBRANCH  22  23
BRANCH  22  27
ATOM     27  C   UNL     1       4.731   4.204  15.835  0.00  0.00    +0.000 C 
BRANCH  27  28
ATOM     28  C   UNL     1       6.077   3.762  15.225  0.00  0.00    +0.000 C 
BRANCH  28  29
ATOM     29  C   UNL     1       6.406   4.403  13.875  0.00  0.00    +0.000 C 
ATOM     30  C   UNL     1       6.050   3.457  12.732  0.00  0.00    +0.000 C 
ENDBRANCH  28  29
ENDBRANCH  27  28
ENDBRANCH  22  27
ENDBRANCH  21  22
ENDBRANCH  20  21
ENDBRANCH  19  20
ENDBRANCH  18  19
ENDBRANCH   1  18
TORSDOF 13
ENDMDL
MODEL 6
REMARK VINA RESULT:      -6.7      2.554      9.427
REMARK  Name = 
REMARK  15 active torsions:
REMARK  status: ('A' for Active; 'I' for Inactive)
REMARK    1  A    between atoms: C_1  and  C_2
REMARK    2  A    between atoms: C_2  and  C_3
REMARK    3  A    between atoms: C_3  and  C_4
REMARK    4  A    between atoms: C_4  and  N_5
REMARK    5  A    between atoms: N_5  and  C_6
REMARK    6  A    between atoms: N_5  and  C_10
REMARK    7  A    between atoms: C_6  and  C_7
REMARK    8  A    between atoms: C_7  and  C_8
REMARK    9  A    between atoms: C_8  and  C_9
REMARK   10  A    between atoms: C_10  and  C_11
REMARK   11  A    between atoms: C_11  and  C_12
REMARK   12  A    between atoms: C_12  and  O_13
REMARK   13  A    between atoms: O_13  and  C_14
REMARK   14  A    between atoms: C_17  and  C_18
REMARK   15  A    between atoms: C_18  and  C_20
REMARK                            x       y       z     vdW  Elec       q    Type
REMARK                         _______ _______ _______ _____ _____    ______ ____
ROOT
ATOM      1  C   UNL     1       1.836   6.351  20.497  0.00  0.00    +0.000 A 
ATOM      2  C   UNL     1       2.124   5.032  20.859  0.00  0.00    +0.000 A 
ATOM      3  C   UNL     1       2.944   4.240  20.054  0.00  0.00    +0.000 A 
ATOM      4  C   UNL     1       3.488   4.762  18.879  0.00  0.00    +0.000 A 
ATOM      5  C   UNL     1       3.189   6.079  18.503  0.00  0.00    +0.000 A 
ATOM      6  C   UNL     1       2.369   6.868  19.317  0.00  0.00    +0.000 A 
ENDROOT
BRANCH   4   7
ATOM      7  C   UNL     1       4.325   3.862  18.042  0.00  0.00    +0.000 C 
ATOM      8  O   UNL     1       3.909   2.722  17.846  0.00  0.00    +0.000 OA
BRANCH   7   9
ATOM      9  C   UNL     1       5.567   4.344  17.496  0.00  0.00    +0.000 A 
ATOM     10  C   UNL     1       6.706   4.794  18.132  0.00  0.00    +0.000 A 
ATOM     11  N   UNL     1       7.672   5.164  17.237  0.00  0.00    +0.000 NA
ATOM     12  C   UNL     1       7.168   4.924  16.043  0.00  0.00    +0.000 A 
ATOM     13  N   UNL     1       7.746   5.126  14.824  0.00  0.00    +0.000 NA
ATOM     14  C   UNL     1       7.024   4.815  13.792  0.00  0.00    +0.000 A 
ATOM     15  C   UNL     1       5.639   4.269  13.808  0.00  0.00    +0.000 A 
ATOM     16  C   UNL     1       5.120   4.087  15.029  0.00  0.00    +0.000 A 
ATOM     17  N   UNL     1       5.877   4.407  16.153  0.00  0.00    +0.000 N 
ENDBRANCH   7   9
ENDBRANCH   4   7
BRANCH   1  18
ATOM     18  O   UNL     1       1.037   7.207  21.208  0.00  0.00    +0.000 OA
BRANCH  18  19
ATOM     19  C   UNL     1       1.190   8.585  20.854  0.00  0.00    +0.000 C 
BRANCH  19  20
ATOM     20  C   UNL     1       0.089   9.415  21.497  0.00  0.00    +0.000 C 
BRANCH  20  21
ATOM     21  C   UNL     1       0.093  10.843  20.933  0.00  0.00    +0.000 C 
BRANCH  21  22
ATOM     22  N   UNL     1      -1.193  11.298  20.341  0.00  0.00    +0.000 NA
BRANCH  22  23
ATOM     23  C   UNL     1      -1.632  12.541  21.024  0.00  0.00    +0.000 C 
BRANCH  23  24
ATOM     24  C   UNL     1      -1.479  12.640  22.550  0.00  0.00    +0.000 C 
BRANCH  24  26
ATOM     25  C   UNL     1      -3.708  13.007  23.624  0.00  0.00    +0.000 C 
ATOM     26  C   UNL     1      -2.606  11.990  23.351  0.00  0.00    +0.000 C 
ENDBRANCH  24  26
ENDBRANCH  23  24
ENDBRANCH  22  23
BRANCH  22  27
ATOM     27  C   UNL     1      -1.050  11.506  18.883  0.00  0.00    +0.000 C 
BRANCH  27  28
ATOM     28  C   UNL     1      -0.741  10.259  18.030  0.00  0.00    +0.000 C 
BRANCH  28  29
ATOM     29  C   UNL     1      -1.863   9.846  17.074  0.00  0.00    +0.000 C 
ATOM     30  C   UNL     1      -3.212  10.339  17.587  0.00  0.00    +0.000 C 
ENDBRANCH  28  29
ENDBRANCH  27  28
ENDBRANCH  22  27
ENDBRANCH  21  22
ENDBRANCH  20  21
ENDBRANCH  19  20
ENDBRANCH  18  19
ENDBRANCH   1  18
TORSDOF 13
ENDMDL
MODEL 7
REMARK VINA RESULT:      -6.6      2.338      9.510
REMARK  Name = 
REMARK  15 active torsions:
REMARK  status: ('A' for Active; 'I' for Inactive)
REMARK    1  A    between atoms: C_1  and  C_2
REMARK    2  A    between atoms: C_2  and  C_3
REMARK    3  A    between atoms: C_3  and  C_4
REMARK    4  A    between atoms: C_4  and  N_5
REMARK    5  A    between atoms: N_5  and  C_6
REMARK    6  A    between atoms: N_5  and  C_10
REMARK    7  A    between atoms: C_6  and  C_7
REMARK    8  A    between atoms: C_7  and  C_8
REMARK    9  A    between atoms: C_8  and  C_9
REMARK   10  A    between atoms: C_10  and  C_11
REMARK   11  A    between atoms: C_11  and  C_12
REMARK   12  A    between atoms: C_12  and  O_13
REMARK   13  A    between atoms: O_13  and  C_14
REMARK   14  A    between atoms: C_17  and  C_18
REMARK   15  A    between atoms: C_18  and  C_20
REMARK                            x       y       z     vdW  Elec       q    Type
REMARK                         _______ _______ _______ _____ _____    ______ ____
ROOT
ATOM      1  C   UNL     1       1.496   8.530  19.449  0.00  0.00    +0.000 A 
ATOM      2  C   UNL     1       1.596   7.627  20.511  0.00  0.00    +0.000 A 
ATOM      3  C   UNL     1       2.369   6.472  20.388  0.00  0.00    +0.000 A 
ATOM      4  C   UNL     1       3.054   6.211  19.201  0.00  0.00    +0.000 A 
ATOM      5  C   UNL     1       2.946   7.104  18.127  0.00  0.00    +0.000 A 
ATOM      6  C   UNL     1       2.172   8.263  18.258  0.00  0.00    +0.000 A 
ENDROOT
BRANCH   4   7
ATOM      7  C   UNL     1       3.833   4.947  19.113  0.00  0.00    +0.000 C 
ATOM      8  O   UNL     1       3.261   3.906  19.430  0.00  0.00    +0.000 OA
BRANCH   7   9
ATOM      9  C   UNL     1       5.202   4.980  18.666  0.00  0.00    +0.000 A 
ATOM     10  C   UNL     1       6.366   5.194  19.375  0.00  0.00    +0.000 A 
ATOM     11  N   UNL     1       7.467   5.142  18.565  0.00  0.00    +0.000 NA
ATOM     12  C   UNL     1       7.015   4.869  17.358  0.00  0.00    +0.000 A 
ATOM     13  N   UNL     1       7.724   4.715  16.203  0.00  0.00    +0.000 NA
ATOM     14  C   UNL     1       7.028   4.458  15.138  0.00  0.00    +0.000 A 
ATOM     15  C   UNL     1       5.549   4.322  15.053  0.00  0.00    +0.000 A 
ATOM     16  C   UNL     1       4.902   4.479  16.215  0.00  0.00    +0.000 A 
ATOM     17  N   UNL     1       5.625   4.748  17.374  0.00  0.00    +0.000 N 
ENDBRANCH   7   9
ENDBRANCH   4   7
BRANCH   1  18
ATOM     18  O   UNL     1       0.759   9.685  19.461  0.00  0.00    +0.000 OA
BRANCH  18  19
ATOM     19  C   UNL     1       1.382  10.788  18.797  0.00  0.00    +0.000 C 
BRANCH  19  20
ATOM     20  C   UNL     1       0.925  12.099  19.419  0.00  0.00    +0.000 C 
BRANCH  20  21
ATOM     21  C   UNL     1      -0.540  12.384  19.063  0.00  0.00    +0.000 C 
BRANCH  21  22
ATOM     22  N   UNL     1      -1.518  12.158  20.160  0.00  0.00    +0.000 NA
BRANCH  22  23
ATOM     23  C   UNL     1      -1.246  13.116  21.261  0.00  0.00    +0.000 C 
BRANCH  23  24
ATOM     24  C   UNL     1      -0.842  12.566  22.637  0.00  0.00    +0.000 C 
BRANCH  24  26
ATOM     25  C   UNL     1      -0.335  10.124  22.835  0.00  0.00    +0.000 C 
ATOM     26  C   UNL     1      -1.416  11.190  22.972  0.00  0.00    +0.000 C 
ENDBRANCH  24  26
ENDBRANCH  23  24
ENDBRANCH  22  23
BRANCH  22  27
ATOM     27  C   UNL     1      -2.904  12.293  19.660  0.00  0.00    +0.000 C 
BRANCH  27  28
ATOM     28  C   UNL     1      -3.198  11.705  18.264  0.00  0.00    +0.000 C 
BRANCH  28  29
ATOM     29  C   UNL     1      -4.595  11.100  18.109  0.00  0.00    +0.000 C 
ATOM     30  C   UNL     1      -5.626  11.931  18.867  0.00  0.00    +0.000 C 
ENDBRANCH  28  29
ENDBRANCH  27  28
ENDBRANCH  22  27
ENDBRANCH  21  22
ENDBRANCH  20  21
ENDBRANCH  19  20
ENDBRANCH  18  19
ENDBRANCH   1  18
TORSDOF 13
ENDMDL
MODEL 8
REMARK VINA RESULT:      -6.6      1.546      3.508
REMARK  Name = 
REMARK  15 active torsions:
REMARK  status: ('A' for Active; 'I' for Inactive)
REMARK    1  A    between atoms: C_1  and  C_2
REMARK    2  A    between atoms: C_2  and  C_3
REMARK    3  A    between atoms: C_3  and  C_4
REMARK    4  A    between atoms: C_4  and  N_5
REMARK    5  A    between atoms: N_5  and  C_6
REMARK    6  A    between atoms: N_5  and  C_10
REMARK    7  A    between atoms: C_6  and  C_7
REMARK    8  A    between atoms: C_7  and  C_8
REMARK    9  A    between atoms: C_8  and  C_9
REMARK   10  A    between atoms: C_10  and  C_11
REMARK   11  A    between atoms: C_11  and  C_12
REMARK   12  A    between atoms: C_12  and  O_13
REMARK   13  A    between atoms: O_13  and  C_14
REMARK   14  A    between atoms: C_17  and  C_18
REMARK   15  A    between atoms: C_18  and  C_20
REMARK                            x       y       z     vdW  Elec       q    Type
REMARK                         _______ _______ _______ _____ _____    ______ ____
ROOT
ATOM      1  C   UNL     1       1.964   7.585  18.914  0.00  0.00    +0.000 A 
ATOM      2  C   UNL     1       1.676   7.657  20.280  0.00  0.00    +0.000 A 
ATOM      3  C   UNL     1       1.226   8.851  20.846  0.00  0.00    +0.000 A 
ATOM      4  C   UNL     1       1.056   9.984  20.049  0.00  0.00    +0.000 A 
ATOM      5  C   UNL     1       1.358   9.922  18.682  0.00  0.00    +0.000 A 
ATOM      6  C   UNL     1       1.805   8.721  18.120  0.00  0.00    +0.000 A 
ENDROOT
BRANCH   4   7
ATOM      7  C   UNL     1       0.609  11.238  20.713  0.00  0.00    +0.000 C 
ATOM      8  O   UNL     1       0.392  11.192  21.923  0.00  0.00    +0.000 OA
BRANCH   7   9
ATOM      9  C   UNL     1       0.451  12.440  19.937  0.00  0.00    +0.000 A 
ATOM     10  C   UNL     1      -0.638  12.908  19.230  0.00  0.00    +0.000 A 
ATOM     11  N   UNL     1      -0.371  14.106  18.626  0.00  0.00    +0.000 NA
ATOM     12  C   UNL     1       0.864  14.415  18.968  0.00  0.00    +0.000 A 
ATOM     13  N   UNL     1       1.589  15.516  18.617  0.00  0.00    +0.000 NA
ATOM     14  C   UNL     1       2.799  15.573  19.083  0.00  0.00    +0.000 A 
ATOM     15  C   UNL     1       3.466  14.565  19.950  0.00  0.00    +0.000 A 
ATOM     16  C   UNL     1       2.710  13.506  20.267  0.00  0.00    +0.000 A 
ATOM     17  N   UNL     1       1.406  13.423  19.785  0.00  0.00    +0.000 N 
ENDBRANCH   7   9
ENDBRANCH   4   7
BRANCH   1  18
ATOM     18  O   UNL     1       2.419   6.470  18.261  0.00  0.00    +0.000 OA
BRANCH  18  19
ATOM     19  C   UNL     1       3.836   6.439  18.065  0.00  0.00    +0.000 C 
BRANCH  19  20
ATOM     20  C   UNL     1       4.491   5.563  19.122  0.00  0.00    +0.000 C 
BRANCH  20  21
ATOM     21  C   UNL     1       5.252   4.403  18.464  0.00  0.00    +0.000 C 
BRANCH  21  22
ATOM     22  N   UNL     1       6.733   4.527  18.471  0.00  0.00    +0.000 NA
BRANCH  22  23
ATOM     23  C   UNL     1       7.239   4.417  17.080  0.00  0.00    +0.000 C 
BRANCH  23  24
ATOM     24  C   UNL     1       6.247   4.073  15.958  0.00  0.00    +0.000 C 
BRANCH  24  26
ATOM     25  C   UNL     1       6.131   3.889  13.466  0.00  0.00    +0.000 C 
ATOM     26  C   UNL     1       6.498   4.795  14.635  0.00  0.00    +0.000 C 
ENDBRANCH  24  26
ENDBRANCH  23  24
ENDBRANCH  22  23
BRANCH  22  27
ATOM     27  C   UNL     1       7.147   5.805  19.094  0.00  0.00    +0.000 C 
BRANCH  27  28
ATOM     28  C   UNL     1       8.094   6.703  18.273  0.00  0.00    +0.000 C 
BRANCH  28  29
ATOM     29  C   UNL     1       7.443   7.967  17.708  0.00  0.00    +0.000 C 
ATOM     30  C   UNL     1       8.279   9.197  18.047  0.00  0.00    +0.000 C 
ENDBRANCH  28  29
ENDBRANCH  27  28
ENDBRANCH  22  27
ENDBRANCH  21  22
ENDBRANCH  20  21
ENDBRANCH  19  20
ENDBRANCH  18  19
ENDBRANCH   1  18
TORSDOF 13
ENDMDL
MODEL 9
REMARK VINA RESULT:      -6.6      1.568      1.988
REMARK  Name = 
REMARK  15 active torsions:
REMARK  status: ('A' for Active; 'I' for Inactive)
REMARK    1  A    between atoms: C_1  and  C_2
REMARK    2  A    between atoms: C_2  and  C_3
REMARK    3  A    between atoms: C_3  and  C_4
REMARK    4  A    between atoms: C_4  and  N_5
REMARK    5  A    between atoms: N_5  and  C_6
REMARK    6  A    between atoms: N_5  and  C_10
REMARK    7  A    between atoms: C_6  and  C_7
REMARK    8  A    between atoms: C_7  and  C_8
REMARK    9  A    between atoms: C_8  and  C_9
REMARK   10  A    between atoms: C_10  and  C_11
REMARK   11  A    between atoms: C_11  and  C_12
REMARK   12  A    between atoms: C_12  and  O_13
REMARK   13  A    between atoms: O_13  and  C_14
REMARK   14  A    between atoms: C_17  and  C_18
REMARK   15  A    between atoms: C_18  and  C_20
REMARK                            x       y       z     vdW  Elec       q    Type
REMARK                         _______ _______ _______ _____ _____    ______ ____
ROOT
ATOM      1  C   UNL     1       2.290   5.810  19.376  0.00  0.00    +0.000 A 
ATOM      2  C   UNL     1       2.496   6.975  18.632  0.00  0.00    +0.000 A 
ATOM      3  C   UNL     1       2.095   8.215  19.132  0.00  0.00    +0.000 A 
ATOM      4  C   UNL     1       1.486   8.302  20.385  0.00  0.00    +0.000 A 
ATOM      5  C   UNL     1       1.262   7.136  21.129  0.00  0.00    +0.000 A 
ATOM      6  C   UNL     1       1.670   5.896  20.623  0.00  0.00    +0.000 A 
ENDROOT
BRANCH   4   7
ATOM      7  C   UNL     1       1.046   9.644  20.851  0.00  0.00    +0.000 C 
ATOM      8  O   UNL     1       1.349   9.973  21.997  0.00  0.00    +0.000 OA
BRANCH   7   9
ATOM      9  C   UNL     1       0.299  10.499  19.967  0.00  0.00    +0.000 A 
ATOM     10  C   UNL     1      -0.868  10.261  19.271  0.00  0.00    +0.000 A 
ATOM     11  N   UNL     1      -1.251  11.349  18.536  0.00  0.00    +0.000 NA
ATOM     12  C   UNL     1      -0.354  12.283  18.783  0.00  0.00    +0.000 A 
ATOM     13  N   UNL     1      -0.295  13.552  18.286  0.00  0.00    +0.000 NA
ATOM     14  C   UNL     1       0.708  14.274  18.684  0.00  0.00    +0.000 A 
ATOM     15  C   UNL     1       1.791  13.855  19.614  0.00  0.00    +0.000 A 
ATOM     16  C   UNL     1       1.684  12.601  20.074  0.00  0.00    +0.000 A 
ATOM     17  N   UNL     1       0.614  11.808  19.668  0.00  0.00    +0.000 N 
ENDBRANCH   7   9
ENDBRANCH   4   7
BRANCH   1  18
ATOM     18  O   UNL     1       2.635   4.546  18.976  0.00  0.00    +0.000 OA
BRANCH  18  19
ATOM     19  C   UNL     1       2.906   4.425  17.577  0.00  0.00    +0.000 C 
BRANCH  19  20
ATOM     20  C   UNL     1       4.127   3.546  17.354  0.00  0.00    +0.000 C 
BRANCH  20  21
ATOM     21  C   UNL     1       5.410   4.300  17.730  0.00  0.00    +0.000 C 
BRANCH  21  22
ATOM     22  N   UNL     1       5.879   5.297  16.731  0.00  0.00    +0.000 NA
BRANCH  22  23
ATOM     23  C   UNL     1       6.114   6.595  17.412  0.00  0.00    +0.000 C 
BRANCH  23  24
ATOM     24  C   UNL     1       7.428   7.344  17.141  0.00  0.00    +0.000 C 
BRANCH  24  26
ATOM     25  C   UNL     1       8.488   9.341  18.212  0.00  0.00    +0.000 C 
ATOM     26  C   UNL     1       8.137   7.868  18.388  0.00  0.00    +0.000 C 
ENDBRANCH  24  26
ENDBRANCH  23  24
ENDBRANCH  22  23
BRANCH  22  27
ATOM     27  C   UNL     1       7.102   4.817  16.050  0.00  0.00    +0.000 C 
BRANCH  27  28
ATOM     28  C   UNL     1       7.022   4.644  14.519  0.00  0.00    +0.000 C 
BRANCH  28  29
ATOM     29  C   UNL     1       5.643   4.235  13.996  0.00  0.00    +0.000 C 
ATOM     30  C   UNL     1       5.769   3.528  12.650  0.00  0.00    +0.000 C 
ENDBRANCH  28  29
ENDBRANCH  27  28
ENDBRANCH  22  27
ENDBRANCH  21  22
ENDBRANCH  20  21
ENDBRANCH  19  20
ENDBRANCH  18  19
ENDBRANCH   1  18
TORSDOF 13
ENDMDL
