MODEL 1
REMARK VINA RESULT:      -8.1      0.000      0.000
REMARK  Name = 
REMARK  3 active torsions:
REMARK  status: ('A' for Active; 'I' for Inactive)
REMARK    1  A    between atoms: S_2  and  N_4
REMARK    2  A    between atoms: S_2  and  C_10
REMARK    3  A    between atoms: N_19  and  C_20
REMARK                            x       y       z     vdW  Elec       q    Type
REMARK                         _______ _______ _______ _____ _____    ______ ____
ROOT
ATOM      1  C   UNL     1       1.660   7.713  20.174  0.00  0.00    +0.000 A 
ATOM      2  C   UNL     1       2.176   7.973  18.903  0.00  0.00    +0.000 A 
ATOM      3  C   UNL     1       2.815   6.959  18.195  0.00  0.00    +0.000 A 
ATOM      4  C   UNL     1       3.010   5.684  18.754  0.00  0.00    +0.000 A 
ATOM      5  C   UNL     1       2.478   5.451  20.045  0.00  0.00    +0.000 A 
ATOM      6  C   UNL     1       1.805   6.452  20.749  0.00  0.00    +0.000 A 
ATOM      7  O   UNL     1       2.577   4.244  20.699  0.00  0.00    +0.000 OA
ATOM      8  C   UNL     1       3.541   3.371  20.108  0.00  0.00    +0.000 C 
ATOM      9  C   UNL     1       3.414   3.328  18.588  0.00  0.00    +0.000 C 
ATOM     10  N   UNL     1       3.694   4.666  18.038  0.00  0.00    +0.000 N 
ENDROOT
BRANCH  10  11
ATOM     11  C   UNL     1       4.691   4.789  17.047  0.00  0.00    +0.000 A 
ATOM     12  C   UNL     1       5.928   5.403  17.314  0.00  0.00    +0.000 A 
ATOM     13  C   UNL     1       6.905   5.554  16.320  0.00  0.00    +0.000 A 
ATOM     14  C   UNL     1       6.672   5.067  15.040  0.00  0.00    +0.000 A 
ATOM     15 CL   UNL     1       7.869   5.264  13.824  0.00  0.00    +0.000 Cl
ATOM     16  C   UNL     1       5.467   4.435  14.761  0.00  0.00    +0.000 A 
ATOM     17  F   UNL     1       5.221   3.941  13.538  0.00  0.00    +0.000 F 
ATOM     18  C   UNL     1       4.486   4.308  15.743  0.00  0.00    +0.000 A 
ENDBRANCH  10  11
BRANCH   1  20
ATOM     19  O   UNL     1       1.745   9.277  22.254  0.00  0.00    +0.000 OA
ATOM     20  S   UNL     1       0.925   9.052  21.079  0.00  0.00    +0.000 S 
ATOM     21  O   UNL     1      -0.488   8.765  21.206  0.00  0.00    +0.000 OA
BRANCH  20  22
ATOM     22  N   UNL     1       1.042  10.330  19.977  0.00  0.00    +0.000 N 
ATOM     23  C   UNL     1      -0.233  10.754  19.538  0.00  0.00    +0.000 A 
ATOM     24  N   UNL     1      -0.708  10.310  18.403  0.00  0.00    +0.000 NA
ATOM     25  C   UNL     1      -1.972  10.844  18.213  0.00  0.00    +0.000 A 
ATOM     26  C   UNL     1      -2.368  11.783  19.144  0.00  0.00    +0.000 A 
ATOM     27  S   UNL     1      -1.154  11.948  20.342  0.00  0.00    +0.000 S 
ATOM     28  H   UNL     1       1.570   9.956  19.187  0.00  0.00    +0.000 HD
ENDBRANCH  20  22
ENDBRANCH   1  20
TORSDOF 3
ENDMDL
MODEL 2
REMARK VINA RESULT:      -8.0      0.946      1.314
REMARK  Name = 
REMARK  3 active torsions:
REMARK  status: ('A' for Active; 'I' for Inactive)
REMARK    1  A    between atoms: S_2  and  N_4
REMARK    2  A    between atoms: S_2  and  C_10
REMARK    3  A    between atoms: N_19  and  C_20
REMARK                            x       y       z     vdW  Elec       q    Type
REMARK                         _______ _______ _______ _____ _____    ______ ____
ROOT
ATOM      1  C   UNL     1       1.552   7.784  20.326  0.00  0.00    +0.000 A 
ATOM      2  C   UNL     1       2.087   8.053  19.064  0.00  0.00    +0.000 A 
ATOM      3  C   UNL     1       2.704   7.034  18.344  0.00  0.00    +0.000 A 
ATOM      4  C   UNL     1       2.857   5.744  18.880  0.00  0.00    +0.000 A 
ATOM      5  C   UNL     1       2.305   5.502  20.161  0.00  0.00    +0.000 A 
ATOM      6  C   UNL     1       1.654   6.509  20.878  0.00  0.00    +0.000 A 
ATOM      7  O   UNL     1       2.363   4.281  20.793  0.00  0.00    +0.000 OA
ATOM      8  C   UNL     1       3.307   3.391  20.194  0.00  0.00    +0.000 C 
ATOM      9  C   UNL     1       3.195   3.380  18.673  0.00  0.00    +0.000 C 
ATOM     10  N   UNL     1       3.518   4.719  18.151  0.00  0.00    +0.000 N 
ENDROOT
BRANCH  10  11
ATOM     11  C   UNL     1       4.528   4.832  17.172  0.00  0.00    +0.000 A 
ATOM     12  C   UNL     1       4.468   4.120  15.960  0.00  0.00    +0.000 A 
ATOM     13  C   UNL     1       5.487   4.208  15.003  0.00  0.00    +0.000 A 
ATOM     14  C   UNL     1       6.581   5.034  15.230  0.00  0.00    +0.000 A 
ATOM     15 CL   UNL     1       7.832   5.130  14.057  0.00  0.00    +0.000 Cl
ATOM     16  C   UNL     1       6.650   5.765  16.409  0.00  0.00    +0.000 A 
ATOM     17  F   UNL     1       7.686   6.583  16.648  0.00  0.00    +0.000 F 
ATOM     18  C   UNL     1       5.648   5.658  17.372  0.00  0.00    +0.000 A 
ENDBRANCH  10  11
BRANCH   1  20
ATOM     19  O   UNL     1       1.678   9.324  22.421  0.00  0.00    +0.000 OA
ATOM     20  S   UNL     1       0.847   9.126  21.249  0.00  0.00    +0.000 S 
ATOM     21  O   UNL     1      -0.570   8.864  21.381  0.00  0.00    +0.000 OA
BRANCH  20  22
ATOM     22  N   UNL     1       0.981  10.413  20.159  0.00  0.00    +0.000 N 
ATOM     23  C   UNL     1      -0.288  10.843  19.706  0.00  0.00    +0.000 A 
ATOM     24  N   UNL     1      -0.746  10.409  18.561  0.00  0.00    +0.000 NA
ATOM     25  C   UNL     1      -2.007  10.946  18.357  0.00  0.00    +0.000 A 
ATOM     26  C   UNL     1      -2.415  11.877  19.291  0.00  0.00    +0.000 A 
ATOM     27  S   UNL     1      -1.219  12.031  20.507  0.00  0.00    +0.000 S 
ATOM     28  H   UNL     1       1.519  10.046  19.374  0.00  0.00    +0.000 HD
ENDBRANCH  20  22
ENDBRANCH   1  20
TORSDOF 3
ENDMDL
MODEL 3
REMARK VINA RESULT:      -7.9      1.809      2.243
REMARK  Name = 
REMARK  3 active torsions:
REMARK  status: ('A' for Active; 'I' for Inactive)
REMARK    1  A    between atoms: S_2  and  N_4
REMARK    2  A    between atoms: S_2  and  C_10
REMARK    3  A    between atoms: N_19  and  C_20
REMARK                            x       y       z     vdW  Elec       q    Type
REMARK                         _______ _______ _______ _____ _____    ______ ____
ROOT
ATOM      1  C   UNL     1       1.116   9.503  19.390  0.00  0.00    +0.000 A 
ATOM      2  C   UNL     1       1.761   9.351  18.161  0.00  0.00    +0.000 A 
ATOM      3  C   UNL     1       2.360   8.136  17.840  0.00  0.00    +0.000 A 
ATOM      4  C   UNL     1       2.384   7.066  18.752  0.00  0.00    +0.000 A 
ATOM      5  C   UNL     1       1.723   7.251  19.990  0.00  0.00    +0.000 A 
ATOM      6  C   UNL     1       1.090   8.455  20.307  0.00  0.00    +0.000 A 
ATOM      7  O   UNL     1       1.650   6.280  20.963  0.00  0.00    +0.000 OA
ATOM      8  C   UNL     1       2.574   5.211  20.749  0.00  0.00    +0.000 C 
ATOM      9  C   UNL     1       2.575   4.740  19.298  0.00  0.00    +0.000 C 
ATOM     10  N   UNL     1       3.027   5.841  18.429  0.00  0.00    +0.000 N 
ENDROOT
BRANCH  10  11
ATOM     11  C   UNL     1       4.112   5.606  17.559  0.00  0.00    +0.000 A 
ATOM     12  C   UNL     1       4.086   4.575  16.602  0.00  0.00    +0.000 A 
ATOM     13  C   UNL     1       5.177   4.322  15.761  0.00  0.00    +0.000 A 
ATOM     14  C   UNL     1       6.314   5.118  15.843  0.00  0.00    +0.000 A 
ATOM     15 CL   UNL     1       7.652   4.797  14.815  0.00  0.00    +0.000 Cl
ATOM     16  C   UNL     1       6.353   6.158  16.764  0.00  0.00    +0.000 A 
ATOM     17  F   UNL     1       7.430   6.951  16.854  0.00  0.00    +0.000 F 
ATOM     18  C   UNL     1       5.276   6.392  17.617  0.00  0.00    +0.000 A 
ENDBRANCH  10  11
BRANCH   1  20
ATOM     19  O   UNL     1       1.538  11.933  20.224  0.00  0.00    +0.000 OA
ATOM     20  S   UNL     1       0.436  11.092  19.798  0.00  0.00    +0.000 S 
ATOM     21  O   UNL     1      -0.702  10.868  20.662  0.00  0.00    +0.000 OA
BRANCH  20  22
ATOM     22  N   UNL     1      -0.201  11.595  18.313  0.00  0.00    +0.000 N 
ATOM     23  C   UNL     1      -1.509  11.097  18.115  0.00  0.00    +0.000 A 
ATOM     24  N   UNL     1      -1.689  10.016  17.403  0.00  0.00    +0.000 NA
ATOM     25  C   UNL     1      -3.042   9.720  17.381  0.00  0.00    +0.000 A 
ATOM     26  C   UNL     1      -3.866  10.659  17.968  0.00  0.00    +0.000 A 
ATOM     27  S   UNL     1      -2.915  11.916  18.637  0.00  0.00    +0.000 S 
ATOM     28  H   UNL     1       0.425  11.206  17.606  0.00  0.00    +0.000 HD
ENDBRANCH  20  22
ENDBRANCH   1  20
TORSDOF 3
ENDMDL
MODEL 4
REMARK VINA RESULT:      -7.8      4.429      8.044
REMARK  Name = 
REMARK  3 active torsions:
REMARK  status: ('A' for Active; 'I' for Inactive)
REMARK    1  A    between atoms: S_2  and  N_4
REMARK    2  A    between atoms: S_2  and  C_10
REMARK    3  A    between atoms: N_19  and  C_20
REMARK                            x       y       z     vdW  Elec       q    Type
REMARK                         _______ _______ _______ _____ _____    ______ ____
ROOT
ATOM      1  C   UNL     1       2.990   7.224  18.622  0.00  0.00    +0.000 A 
ATOM      2  C   UNL     1       2.374   8.000  17.638  0.00  0.00    +0.000 A 
ATOM      3  C   UNL     1       1.374   8.901  17.994  0.00  0.00    +0.000 A 
ATOM      4  C   UNL     1       0.922   9.010  19.321  0.00  0.00    +0.000 A 
ATOM      5  C   UNL     1       1.565   8.208  20.295  0.00  0.00    +0.000 A 
ATOM      6  C   UNL     1       2.592   7.326  19.953  0.00  0.00    +0.000 A 
ATOM      7  O   UNL     1       1.238   8.232  21.632  0.00  0.00    +0.000 OA
ATOM      8  C   UNL     1      -0.012   8.876  21.885  0.00  0.00    +0.000 C 
ATOM      9  C   UNL     1      -0.144  10.187  21.116  0.00  0.00    +0.000 C 
ATOM     10  N   UNL     1      -0.123   9.907  19.670  0.00  0.00    +0.000 N 
ENDROOT
BRANCH  10  11
ATOM     11  C   UNL     1      -1.189  10.384  18.878  0.00  0.00    +0.000 A 
ATOM     12  C   UNL     1      -2.014  11.441  19.306  0.00  0.00    +0.000 A 
ATOM     13  C   UNL     1      -3.092  11.891  18.534  0.00  0.00    +0.000 A 
ATOM     14  C   UNL     1      -3.353  11.308  17.300  0.00  0.00    +0.000 A 
ATOM     15 CL   UNL     1      -4.682  11.859  16.362  0.00  0.00    +0.000 Cl
ATOM     16  C   UNL     1      -2.537  10.279  16.847  0.00  0.00    +0.000 A 
ATOM     17  F   UNL     1      -2.755   9.708  15.653  0.00  0.00    +0.000 F 
ATOM     18  C   UNL     1      -1.480   9.814  17.627  0.00  0.00    +0.000 A 
ENDBRANCH  10  11
BRANCH   1  20
ATOM     19  O   UNL     1       4.721   5.410  19.325  0.00  0.00    +0.000 OA
ATOM     20  S   UNL     1       4.202   6.028  18.119  0.00  0.00    +0.000 S 
ATOM     21  O   UNL     1       5.089   6.679  17.180  0.00  0.00    +0.000 OA
BRANCH  20  22
ATOM     22  N   UNL     1       3.274   4.946  17.207  0.00  0.00    +0.000 N 
ATOM     23  C   UNL     1       2.925   3.801  17.959  0.00  0.00    +0.000 A 
ATOM     24  N   UNL     1       3.636   2.709  17.843  0.00  0.00    +0.000 NA
ATOM     25  C   UNL     1       3.115   1.750  18.695  0.00  0.00    +0.000 A 
ATOM     26  C   UNL     1       1.943   2.096  19.337  0.00  0.00    +0.000 A 
ATOM     27  S   UNL     1       1.518   3.703  18.923  0.00  0.00    +0.000 S 
ATOM     28  H   UNL     1       3.870   4.674  16.424  0.00  0.00    +0.000 HD
ENDBRANCH  20  22
ENDBRANCH   1  20
TORSDOF 3
ENDMDL
MODEL 5
REMARK VINA RESULT:      -7.8      2.392      2.760
REMARK  Name = 
REMARK  3 active torsions:
REMARK  status: ('A' for Active; 'I' for Inactive)
REMARK    1  A    between atoms: S_2  and  N_4
REMARK    2  A    between atoms: S_2  and  C_10
REMARK    3  A    between atoms: N_19  and  C_20
REMARK                            x       y       z     vdW  Elec       q    Type
REMARK                         _______ _______ _______ _____ _____    ______ ____
ROOT
ATOM      1  C   UNL     1       1.137   9.352  19.578  0.00  0.00    +0.000 A 
ATOM      2  C   UNL     1       1.762   9.253  18.333  0.00  0.00    +0.000 A 
ATOM      3  C   UNL     1       2.364   8.056  17.955  0.00  0.00    +0.000 A 
ATOM      4  C   UNL     1       2.411   6.952  18.823  0.00  0.00    +0.000 A 
ATOM      5  C   UNL     1       1.770   7.083  20.079  0.00  0.00    +0.000 A 
ATOM      6  C   UNL     1       1.134   8.269  20.454  0.00  0.00    +0.000 A 
ATOM      7  O   UNL     1       1.721   6.074  21.014  0.00  0.00    +0.000 OA
ATOM      8  C   UNL     1       2.649   5.023  20.744  0.00  0.00    +0.000 C 
ATOM      9  C   UNL     1       2.629   4.608  19.275  0.00  0.00    +0.000 C 
ATOM     10  N   UNL     1       3.058   5.745  18.443  0.00  0.00    +0.000 N 
ENDROOT
BRANCH  10  11
ATOM     11  C   UNL     1       4.130   5.553  17.546  0.00  0.00    +0.000 A 
ATOM     12  C   UNL     1       4.099   4.552  16.558  0.00  0.00    +0.000 A 
ATOM     13  C   UNL     1       5.178   4.342  15.689  0.00  0.00    +0.000 A 
ATOM     14  C   UNL     1       6.305   5.150  15.775  0.00  0.00    +0.000 A 
ATOM     15 CL   UNL     1       7.628   4.880  14.714  0.00  0.00    +0.000 Cl
ATOM     16  C   UNL     1       6.348   6.160  16.728  0.00  0.00    +0.000 A 
ATOM     17  F   UNL     1       7.416   6.966  16.824  0.00  0.00    +0.000 F 
ATOM     18  C   UNL     1       5.284   6.353  17.608  0.00  0.00    +0.000 A 
ENDBRANCH  10  11
BRANCH   1  20
ATOM     19  O   UNL     1       1.412  11.553  20.941  0.00  0.00    +0.000 OA
ATOM     20  S   UNL     1       0.452  10.918  20.058  0.00  0.00    +0.000 S 
ATOM     21  O   UNL     1      -0.908  10.683  20.489  0.00  0.00    +0.000 OA
BRANCH  20  22
ATOM     22  N   UNL     1       0.336  11.723  18.574  0.00  0.00    +0.000 N 
ATOM     23  C   UNL     1       0.956  12.992  18.623  0.00  0.00    +0.000 A 
ATOM     24  N   UNL     1       0.231  14.059  18.835  0.00  0.00    +0.000 NA
ATOM     25  C   UNL     1       1.067  15.163  18.866  0.00  0.00    +0.000 A 
ATOM     26  C   UNL     1       2.388  14.920  18.545  0.00  0.00    +0.000 A 
ATOM     27  S   UNL     1       2.609  13.244  18.270  0.00  0.00    +0.000 S 
ATOM     28  H   UNL     1      -0.665  11.837  18.407  0.00  0.00    +0.000 HD
ENDBRANCH  20  22
ENDBRANCH   1  20
TORSDOF 3
ENDMDL
MODEL 6
REMARK VINA RESULT:      -7.8      1.580      1.817
REMARK  Name = 
REMARK  3 active torsions:
REMARK  status: ('A' for Active; 'I' for Inactive)
REMARK    1  A    between atoms: S_2  and  N_4
REMARK    2  A    between atoms: S_2  and  C_10
REMARK    3  A    between atoms: N_19  and  C_20
REMARK                            x       y       z     vdW  Elec       q    Type
REMARK                         _______ _______ _______ _____ _____    ______ ____
ROOT
ATOM      1  C   UNL     1       1.150   9.391  19.363  0.00  0.00    +0.000 A 
ATOM      2  C   UNL     1       1.722   9.273  18.095  0.00  0.00    +0.000 A 
ATOM      3  C   UNL     1       2.324   8.076  17.717  0.00  0.00    +0.000 A 
ATOM      4  C   UNL     1       2.423   6.992  18.606  0.00  0.00    +0.000 A 
ATOM      5  C   UNL     1       1.835   7.142  19.884  0.00  0.00    +0.000 A 
ATOM      6  C   UNL     1       1.199   8.328  20.261  0.00  0.00    +0.000 A 
ATOM      7  O   UNL     1       1.839   6.153  20.842  0.00  0.00    +0.000 OA
ATOM      8  C   UNL     1       2.769   5.108  20.555  0.00  0.00    +0.000 C 
ATOM      9  C   UNL     1       2.691   4.661  19.098  0.00  0.00    +0.000 C 
ATOM     10  N   UNL     1       3.069   5.785  18.223  0.00  0.00    +0.000 N 
ENDROOT
BRANCH  10  11
ATOM     11  C   UNL     1       4.104   5.587  17.286  0.00  0.00    +0.000 A 
ATOM     12  C   UNL     1       4.821   6.666  16.736  0.00  0.00    +0.000 A 
ATOM     13  C   UNL     1       5.827   6.470  15.780  0.00  0.00    +0.000 A 
ATOM     14  C   UNL     1       6.155   5.183  15.373  0.00  0.00    +0.000 A 
ATOM     15 CL   UNL     1       7.383   4.951  14.194  0.00  0.00    +0.000 Cl
ATOM     16  C   UNL     1       5.477   4.101  15.920  0.00  0.00    +0.000 A 
ATOM     17  F   UNL     1       5.783   2.847  15.558  0.00  0.00    +0.000 F 
ATOM     18  C   UNL     1       4.459   4.299  16.852  0.00  0.00    +0.000 A 
ENDBRANCH  10  11
BRANCH   1  20
ATOM     19  O   UNL     1       1.562  11.776  20.323  0.00  0.00    +0.000 OA
ATOM     20  S   UNL     1       0.465  10.959  19.839  0.00  0.00    +0.000 S 
ATOM     21  O   UNL     1      -0.686  10.694  20.674  0.00  0.00    +0.000 OA
BRANCH  20  22
ATOM     22  N   UNL     1      -0.149  11.537  18.372  0.00  0.00    +0.000 N 
ATOM     23  C   UNL     1      -1.469  11.082  18.148  0.00  0.00    +0.000 A 
ATOM     24  N   UNL     1      -1.673  10.035  17.393  0.00  0.00    +0.000 NA
ATOM     25  C   UNL     1      -3.034   9.777  17.354  0.00  0.00    +0.000 A 
ATOM     26  C   UNL     1      -3.836  10.714  17.973  0.00  0.00    +0.000 A 
ATOM     27  S   UNL     1      -2.855  11.918  18.695  0.00  0.00    +0.000 S 
ATOM     28  H   UNL     1       0.470  11.159  17.654  0.00  0.00    +0.000 HD
ENDBRANCH  20  22
ENDBRANCH   1  20
TORSDOF 3
ENDMDL
MODEL 7
REMARK VINA RESULT:      -7.7      2.416      2.709
REMARK  Name = 
REMARK  3 active torsions:
REMARK  status: ('A' for Active; 'I' for Inactive)
REMARK    1  A    between atoms: S_2  and  N_4
REMARK    2  A    between atoms: S_2  and  C_10
REMARK    3  A    between atoms: N_19  and  C_20
REMARK                            x       y       z     vdW  Elec       q    Type
REMARK                         _______ _______ _______ _____ _____    ______ ____
ROOT
ATOM      1  C   UNL     1       1.100   9.606  19.539  0.00  0.00    +0.000 A 
ATOM      2  C   UNL     1       1.675   9.479  18.273  0.00  0.00    +0.000 A 
ATOM      3  C   UNL     1       2.232   8.263  17.886  0.00  0.00    +0.000 A 
ATOM      4  C   UNL     1       2.285   7.167  18.764  0.00  0.00    +0.000 A 
ATOM      5  C   UNL     1       1.695   7.327  20.041  0.00  0.00    +0.000 A 
ATOM      6  C   UNL     1       1.103   8.532  20.427  0.00  0.00    +0.000 A 
ATOM      7  O   UNL     1       1.656   6.329  20.989  0.00  0.00    +0.000 OA
ATOM      8  C   UNL     1       2.547   5.252  20.695  0.00  0.00    +0.000 C 
ATOM      9  C   UNL     1       2.461   4.824  19.233  0.00  0.00    +0.000 C 
ATOM     10  N   UNL     1       2.886   5.941  18.372  0.00  0.00    +0.000 N 
ENDROOT
BRANCH  10  11
ATOM     11  C   UNL     1       3.918   5.713  17.438  0.00  0.00    +0.000 A 
ATOM     12  C   UNL     1       4.624   6.773  16.841  0.00  0.00    +0.000 A 
ATOM     13  C   UNL     1       5.626   6.547  15.888  0.00  0.00    +0.000 A 
ATOM     14  C   UNL     1       5.963   5.246  15.533  0.00  0.00    +0.000 A 
ATOM     15 CL   UNL     1       7.186   4.976  14.358  0.00  0.00    +0.000 Cl
ATOM     16  C   UNL     1       5.296   4.183  16.128  0.00  0.00    +0.000 A 
ATOM     17  F   UNL     1       5.611   2.917  15.816  0.00  0.00    +0.000 F 
ATOM     18  C   UNL     1       4.281   4.410  17.056  0.00  0.00    +0.000 A 
ENDBRANCH  10  11
BRANCH   1  20
ATOM     19  O   UNL     1       1.443  11.777  20.935  0.00  0.00    +0.000 OA
ATOM     20  S   UNL     1       0.473  11.194  20.027  0.00  0.00    +0.000 S 
ATOM     21  O   UNL     1      -0.904  11.011  20.433  0.00  0.00    +0.000 OA
BRANCH  20  22
ATOM     22  N   UNL     1       0.417  12.021  18.552  0.00  0.00    +0.000 N 
ATOM     23  C   UNL     1       1.069  13.272  18.634  0.00  0.00    +0.000 A 
ATOM     24  N   UNL     1       0.367  14.355  18.842  0.00  0.00    +0.000 NA
ATOM     25  C   UNL     1       1.231  15.436  18.910  0.00  0.00    +0.000 A 
ATOM     26  C   UNL     1       2.552  15.161  18.619  0.00  0.00    +0.000 A 
ATOM     27  S   UNL     1       2.737  13.483  18.328  0.00  0.00    +0.000 S 
ATOM     28  H   UNL     1      -0.576  12.163  18.362  0.00  0.00    +0.000 HD
ENDBRANCH  20  22
ENDBRANCH   1  20
TORSDOF 3
ENDMDL
MODEL 8
REMARK VINA RESULT:      -7.7      0.949      1.057
REMARK  Name = 
REMARK  3 active torsions:
REMARK  status: ('A' for Active; 'I' for Inactive)
REMARK    1  A    between atoms: S_2  and  N_4
REMARK    2  A    between atoms: S_2  and  C_10
REMARK    3  A    between atoms: N_19  and  C_20
REMARK                            x       y       z     vdW  Elec       q    Type
REMARK                         _______ _______ _______ _____ _____    ______ ____
ROOT
ATOM      1  C   UNL     1       1.662   7.487  20.160  0.00  0.00    +0.000 A 
ATOM      2  C   UNL     1       2.181   7.753  18.890  0.00  0.00    +0.000 A 
ATOM      3  C   UNL     1       2.842   6.748  18.190  0.00  0.00    +0.000 A 
ATOM      4  C   UNL     1       3.056   5.478  18.755  0.00  0.00    +0.000 A 
ATOM      5  C   UNL     1       2.520   5.240  20.043  0.00  0.00    +0.000 A 
ATOM      6  C   UNL     1       1.825   6.232  20.740  0.00  0.00    +0.000 A 
ATOM      7  O   UNL     1       2.636   4.037  20.702  0.00  0.00    +0.000 OA
ATOM      8  C   UNL     1       3.619   3.180  20.120  0.00  0.00    +0.000 C 
ATOM      9  C   UNL     1       3.503   3.129  18.600  0.00  0.00    +0.000 C 
ATOM     10  N   UNL     1       3.762   4.469  18.047  0.00  0.00    +0.000 N 
ENDROOT
BRANCH  10  11
ATOM     11  C   UNL     1       4.763   4.607  17.062  0.00  0.00    +0.000 A 
ATOM     12  C   UNL     1       6.038   5.118  17.367  0.00  0.00    +0.000 A 
ATOM     13  C   UNL     1       7.020   5.284  16.381  0.00  0.00    +0.000 A 
ATOM     14  C   UNL     1       6.753   4.916  15.068  0.00  0.00    +0.000 A 
ATOM     15 CL   UNL     1       7.958   5.132  13.863  0.00  0.00    +0.000 Cl
ATOM     16  C   UNL     1       5.509   4.387  14.748  0.00  0.00    +0.000 A 
ATOM     17  F   UNL     1       5.229   4.008  13.493  0.00  0.00    +0.000 F 
ATOM     18  C   UNL     1       4.524   4.245  15.725  0.00  0.00    +0.000 A 
ENDBRANCH  10  11
BRANCH   1  20
ATOM     19  O   UNL     1       1.859   9.281  22.037  0.00  0.00    +0.000 OA
ATOM     20  S   UNL     1       0.898   8.817  21.055  0.00  0.00    +0.000 S 
ATOM     21  O   UNL     1      -0.416   8.366  21.461  0.00  0.00    +0.000 OA
BRANCH  20  22
ATOM     22  N   UNL     1       0.639   9.962  19.837  0.00  0.00    +0.000 N 
ATOM     23  C   UNL     1      -0.004  11.116  20.338  0.00  0.00    +0.000 A 
ATOM     24  N   UNL     1      -1.299  11.241  20.214  0.00  0.00    +0.000 NA
ATOM     25  C   UNL     1      -1.687  12.432  20.805  0.00  0.00    +0.000 A 
ATOM     26  C   UNL     1      -0.660  13.242  21.244  0.00  0.00    +0.000 A 
ATOM     27  S   UNL     1       0.839  12.456  20.982  0.00  0.00    +0.000 S 
ATOM     28  H   UNL     1       0.034   9.500  19.157  0.00  0.00    +0.000 HD
ENDBRANCH  20  22
ENDBRANCH   1  20
TORSDOF 3
ENDMDL
MODEL 9
REMARK VINA RESULT:      -7.7      1.285      1.405
REMARK  Name = 
REMARK  3 active torsions:
REMARK  status: ('A' for Active; 'I' for Inactive)
REMARK    1  A    between atoms: S_2  and  N_4
REMARK    2  A    between atoms: S_2  and  C_10
REMARK    3  A    between atoms: N_19  and  C_20
REMARK                            x       y       z     vdW  Elec       q    Type
REMARK                         _______ _______ _______ _____ _____    ______ ____
ROOT
ATOM      1  C   UNL     1       1.670   8.601  19.601  0.00  0.00    +0.000 A 
ATOM      2  C   UNL     1       2.229   8.670  18.322  0.00  0.00    +0.000 A 
ATOM      3  C   UNL     1       2.843   7.547  17.775  0.00  0.00    +0.000 A 
ATOM      4  C   UNL     1       2.970   6.352  18.504  0.00  0.00    +0.000 A 
ATOM      5  C   UNL     1       2.395   6.313  19.797  0.00  0.00    +0.000 A 
ATOM      6  C   UNL     1       1.746   7.424  20.341  0.00  0.00    +0.000 A 
ATOM      7  O   UNL     1       2.427   5.201  20.608  0.00  0.00    +0.000 OA
ATOM      8  C   UNL     1       3.368   4.221  20.168  0.00  0.00    +0.000 C 
ATOM      9  C   UNL     1       3.280   3.981  18.664  0.00  0.00    +0.000 C 
ATOM     10  N   UNL     1       3.630   5.221  17.951  0.00  0.00    +0.000 N 
ENDROOT
BRANCH  10  11
ATOM     11  C   UNL     1       4.656   5.173  16.984  0.00  0.00    +0.000 A 
ATOM     12  C   UNL     1       5.912   5.768  17.207  0.00  0.00    +0.000 A 
ATOM     13  C   UNL     1       6.919   5.748  16.233  0.00  0.00    +0.000 A 
ATOM     14  C   UNL     1       6.699   5.107  15.021  0.00  0.00    +0.000 A 
ATOM     15 CL   UNL     1       7.934   5.094  13.828  0.00  0.00    +0.000 Cl
ATOM     16  C   UNL     1       5.475   4.491  14.789  0.00  0.00    +0.000 A 
ATOM     17  F   UNL     1       5.239   3.851  13.634  0.00  0.00    +0.000 F 
ATOM     18  C   UNL     1       4.464   4.534  15.748  0.00  0.00    +0.000 A 
ENDBRANCH  10  11
BRANCH   1  20
ATOM     19  O   UNL     1       1.339  11.178  19.430  0.00  0.00    +0.000 OA
ATOM     20  S   UNL     1       0.967  10.076  20.297  0.00  0.00    +0.000 S 
ATOM     21  O   UNL     1       1.305  10.094  21.704  0.00  0.00    +0.000 OA
BRANCH  20  22
ATOM     22  N   UNL     1      -0.691   9.748  20.221  0.00  0.00    +0.000 N 
ATOM     23  C   UNL     1      -1.319  10.485  19.192  0.00  0.00    +0.000 A 
ATOM     24  N   UNL     1      -1.932  11.604  19.479  0.00  0.00    +0.000 NA
ATOM     25  C   UNL     1      -2.435  12.145  18.307  0.00  0.00    +0.000 A 
ATOM     26  C   UNL     1      -2.304  11.357  17.182  0.00  0.00    +0.000 A 
ATOM     27  S   UNL     1      -1.455   9.924  17.584  0.00  0.00    +0.000 S 
ATOM     28  H   UNL     1      -1.064  10.036  21.127  0.00  0.00    +0.000 HD
ENDBRANCH  20  22
ENDBRANCH   1  20
TORSDOF 3
ENDMDL
