MODEL 1
REMARK VINA RESULT:      -8.2      0.000      0.000
REMARK  Name = 
REMARK  3 active torsions:
REMARK  status: ('A' for Active; 'I' for Inactive)
REMARK    1  A    between atoms: C_1  and  C_2
REMARK    2  A    between atoms: C_5  and  C_6
REMARK    3  A    between atoms: N_8  and  C_9
REMARK                            x       y       z     vdW  Elec       q    Type
REMARK                         _______ _______ _______ _____ _____    ______ ____
ROOT
ATOM      1  C   UNL     1      -0.381  10.193  18.171  0.00  0.00    +0.000 C 
ATOM      2  C   UNL     1      -1.522   9.889  17.171  0.00  0.00    +0.000 C 
ATOM      3  C   UNL     1      -2.933  10.010  17.736  0.00  0.00    +0.000 C 
ATOM      4  C   UNL     1      -3.317  11.460  18.044  0.00  0.00    +0.000 C 
ATOM      5  O   UNL     1      -2.251  12.281  18.542  0.00  0.00    +0.000 OA
ATOM      6  C   UNL     1      -1.698  11.751  19.685  0.00  0.00    +0.000 A 
ATOM      7  C   UNL     1      -0.817  10.662  19.557  0.00  0.00    +0.000 A 
ATOM      8  C   UNL     1      -0.306  10.101  20.735  0.00  0.00    +0.000 A 
ATOM      9  C   UNL     1      -0.596  10.655  21.983  0.00  0.00    +0.000 A 
ATOM     10  C   UNL     1      -1.387  11.803  22.095  0.00  0.00    +0.000 A 
ATOM     11  C   UNL     1      -1.588  12.410  23.344  0.00  0.00    +0.000 A 
ATOM     12  C   UNL     1      -2.363  13.563  23.465  0.00  0.00    +0.000 A 
ATOM     13  C   UNL     1      -2.963  14.112  22.336  0.00  0.00    +0.000 A 
ATOM     14  C   UNL     1      -2.768  13.520  21.085  0.00  0.00    +0.000 A 
ATOM     15  C   UNL     1      -1.967  12.365  20.935  0.00  0.00    +0.000 A 
ENDROOT
BRANCH   1  18
ATOM     16  C   UNL     1       1.844   9.082  17.957  0.00  0.00    +0.000 C 
ATOM     17  O   UNL     1       2.398  10.066  17.473  0.00  0.00    +0.000 OA
ATOM     18  N   UNL     1       0.503   9.032  18.240  0.00  0.00    +0.000 N 
ATOM     19  H   UNL     1       0.130   8.189  18.670  0.00  0.00    +0.000 HD
BRANCH  16  24
ATOM     20  C   UNL     1       5.129   4.467  19.281  0.00  0.00    +0.000 C 
ATOM     21  C   UNL     1       4.262   5.619  18.876  0.00  0.00    +0.000 A 
ATOM     22  C   UNL     1       4.364   6.253  17.699  0.00  0.00    +0.000 A 
ATOM     23  C   UNL     1       3.529   7.400  17.414  0.00  0.00    +0.000 A 
ATOM     24  C   UNL     1       2.613   7.846  18.294  0.00  0.00    +0.000 A 
ATOM     25  C   UNL     1       2.455   7.094  19.574  0.00  0.00    +0.000 A 
ATOM     26  O   UNL     1       1.608   7.394  20.410  0.00  0.00    +0.000 OA
ATOM     27  N   UNL     1       3.317   6.041  19.782  0.00  0.00    +0.000 N 
ATOM     28  H   UNL     1       3.210   5.558  20.667  0.00  0.00    +0.000 HD
ENDBRANCH  16  24
ENDBRANCH   1  18
TORSDOF 2
ENDMDL
MODEL 2
REMARK VINA RESULT:      -8.2      2.335      8.531
REMARK  Name = 
REMARK  3 active torsions:
REMARK  status: ('A' for Active; 'I' for Inactive)
REMARK    1  A    between atoms: C_1  and  C_2
REMARK    2  A    between atoms: C_5  and  C_6
REMARK    3  A    between atoms: N_8  and  C_9
REMARK                            x       y       z     vdW  Elec       q    Type
REMARK                         _______ _______ _______ _____ _____    ______ ____
ROOT
ATOM      1  C   UNL     1       2.040   6.390  20.463  0.00  0.00    +0.000 C 
ATOM      2  C   UNL     1       1.263   5.102  20.824  0.00  0.00    +0.000 C 
ATOM      3  C   UNL     1       1.348   3.979  19.795  0.00  0.00    +0.000 C 
ATOM      4  C   UNL     1       2.745   3.357  19.725  0.00  0.00    +0.000 C 
ATOM      5  O   UNL     1       3.833   4.275  19.906  0.00  0.00    +0.000 OA
ATOM      6  C   UNL     1       3.790   5.294  18.983  0.00  0.00    +0.000 A 
ATOM      7  C   UNL     1       2.863   6.333  19.178  0.00  0.00    +0.000 A 
ATOM      8  C   UNL     1       2.797   7.334  18.200  0.00  0.00    +0.000 A 
ATOM      9  C   UNL     1       3.676   7.343  17.116  0.00  0.00    +0.000 A 
ATOM     10  C   UNL     1       4.667   6.364  16.984  0.00  0.00    +0.000 A 
ATOM     11  C   UNL     1       5.609   6.439  15.947  0.00  0.00    +0.000 A 
ATOM     12  C   UNL     1       6.609   5.477  15.815  0.00  0.00    +0.000 A 
ATOM     13  C   UNL     1       6.667   4.415  16.712  0.00  0.00    +0.000 A 
ATOM     14  C   UNL     1       5.737   4.330  17.752  0.00  0.00    +0.000 A 
ATOM     15  C   UNL     1       4.729   5.306  17.919  0.00  0.00    +0.000 A 
ENDROOT
BRANCH   1  18
ATOM     16  C   UNL     1       1.186   8.558  21.357  0.00  0.00    +0.000 C 
ATOM     17  O   UNL     1       1.942   8.569  22.325  0.00  0.00    +0.000 OA
ATOM     18  N   UNL     1       1.111   7.516  20.469  0.00  0.00    +0.000 N 
ATOM     19  H   UNL     1       0.480   7.601  19.675  0.00  0.00    +0.000 HD
BRANCH  16  24
ATOM     20  C   UNL     1      -2.558  12.823  20.075  0.00  0.00    +0.000 C 
ATOM     21  C   UNL     1      -1.541  11.761  20.362  0.00  0.00    +0.000 A 
ATOM     22  C   UNL     1      -0.903  11.061  19.411  0.00  0.00    +0.000 A 
ATOM     23  C   UNL     1       0.016  10.006  19.777  0.00  0.00    +0.000 A 
ATOM     24  C   UNL     1       0.284   9.712  21.063  0.00  0.00    +0.000 A 
ATOM     25  C   UNL     1      -0.375  10.540  22.116  0.00  0.00    +0.000 A 
ATOM     26  O   UNL     1      -0.149  10.381  23.312  0.00  0.00    +0.000 OA
ATOM     27  N   UNL     1      -1.267  11.495  21.683  0.00  0.00    +0.000 N 
ATOM     28  H   UNL     1      -1.722  12.030  22.413  0.00  0.00    +0.000 HD
ENDBRANCH  16  24
ENDBRANCH   1  18
TORSDOF 2
ENDMDL
MODEL 3
REMARK VINA RESULT:      -8.0      1.989      8.548
REMARK  Name = 
REMARK  3 active torsions:
REMARK  status: ('A' for Active; 'I' for Inactive)
REMARK    1  A    between atoms: C_1  and  C_2
REMARK    2  A    between atoms: C_5  and  C_6
REMARK    3  A    between atoms: N_8  and  C_9
REMARK                            x       y       z     vdW  Elec       q    Type
REMARK                         _______ _______ _______ _____ _____    ______ ____
ROOT
ATOM      1  C   UNL     1       2.034   6.459  20.477  0.00  0.00    +0.000 C 
ATOM      2  C   UNL     1       1.256   5.169  20.831  0.00  0.00    +0.000 C 
ATOM      3  C   UNL     1       1.365   4.043  19.808  0.00  0.00    +0.000 C 
ATOM      4  C   UNL     1       2.765   3.426  19.764  0.00  0.00    +0.000 C 
ATOM      5  O   UNL     1       3.845   4.350  19.960  0.00  0.00    +0.000 OA
ATOM      6  C   UNL     1       3.815   5.365  19.032  0.00  0.00    +0.000 A 
ATOM      7  C   UNL     1       2.879   6.401  19.207  0.00  0.00    +0.000 A 
ATOM      8  C   UNL     1       2.826   7.397  18.223  0.00  0.00    +0.000 A 
ATOM      9  C   UNL     1       3.723   7.405  17.154  0.00  0.00    +0.000 A 
ATOM     10  C   UNL     1       4.720   6.430  17.044  0.00  0.00    +0.000 A 
ATOM     11  C   UNL     1       5.680   6.506  16.023  0.00  0.00    +0.000 A 
ATOM     12  C   UNL     1       6.686   5.547  15.913  0.00  0.00    +0.000 A 
ATOM     13  C   UNL     1       6.733   4.489  16.815  0.00  0.00    +0.000 A 
ATOM     14  C   UNL     1       5.787   4.404  17.839  0.00  0.00    +0.000 A 
ATOM     15  C   UNL     1       4.771   5.377  17.985  0.00  0.00    +0.000 A 
ENDROOT
BRANCH   1  18
ATOM     16  C   UNL     1       1.154   8.626  21.349  0.00  0.00    +0.000 C 
ATOM     17  O   UNL     1       1.892   8.643  22.330  0.00  0.00    +0.000 OA
ATOM     18  N   UNL     1       1.100   7.581  20.462  0.00  0.00    +0.000 N 
ATOM     19  H   UNL     1       0.483   7.661  19.656  0.00  0.00    +0.000 HD
BRANCH  16  24
ATOM     20  C   UNL     1      -2.129  13.312  20.294  0.00  0.00    +0.000 C 
ATOM     21  C   UNL     1      -1.344  12.074  20.600  0.00  0.00    +0.000 A 
ATOM     22  C   UNL     1      -1.185  11.577  21.837  0.00  0.00    +0.000 A 
ATOM     23  C   UNL     1      -0.355  10.412  22.053  0.00  0.00    +0.000 A 
ATOM     24  C   UNL     1       0.253   9.775  21.034  0.00  0.00    +0.000 A 
ATOM     25  C   UNL     1       0.016  10.290  19.653  0.00  0.00    +0.000 A 
ATOM     26  O   UNL     1       0.482   9.741  18.660  0.00  0.00    +0.000 OA
ATOM     27  N   UNL     1      -0.753  11.427  19.541  0.00  0.00    +0.000 N 
ATOM     28  H   UNL     1      -0.882  11.775  18.598  0.00  0.00    +0.000 HD
ENDBRANCH  16  24
ENDBRANCH   1  18
TORSDOF 2
ENDMDL
MODEL 4
REMARK VINA RESULT:      -7.8      1.935      3.570
REMARK  Name = 
REMARK  3 active torsions:
REMARK  status: ('A' for Active; 'I' for Inactive)
REMARK    1  A    between atoms: C_1  and  C_2
REMARK    2  A    between atoms: C_5  and  C_6
REMARK    3  A    between atoms: N_8  and  C_9
REMARK                            x       y       z     vdW  Elec       q    Type
REMARK                         _______ _______ _______ _____ _____    ______ ____
ROOT
ATOM      1  C   UNL     1       0.313  10.040  19.730  0.00  0.00    +0.000 C 
ATOM      2  C   UNL     1       1.083  11.234  20.342  0.00  0.00    +0.000 C 
ATOM      3  C   UNL     1       0.623  12.612  19.878  0.00  0.00    +0.000 C 
ATOM      4  C   UNL     1      -0.765  12.975  20.412  0.00  0.00    +0.000 C 
ATOM      5  O   UNL     1      -1.689  11.881  20.502  0.00  0.00    +0.000 OA
ATOM      6  C   UNL     1      -1.865  11.269  19.283  0.00  0.00    +0.000 A 
ATOM      7  C   UNL     1      -0.860  10.399  18.821  0.00  0.00    +0.000 A 
ATOM      8  C   UNL     1      -1.032   9.826  17.554  0.00  0.00    +0.000 A 
ATOM      9  C   UNL     1      -2.194  10.046  16.814  0.00  0.00    +0.000 A 
ATOM     10  C   UNL     1      -3.236  10.828  17.325  0.00  0.00    +0.000 A 
ATOM     11  C   UNL     1      -4.440  10.959  16.617  0.00  0.00    +0.000 A 
ATOM     12  C   UNL     1      -5.491  11.723  17.124  0.00  0.00    +0.000 A 
ATOM     13  C   UNL     1      -5.340  12.381  18.340  0.00  0.00    +0.000 A 
ATOM     14  C   UNL     1      -4.148  12.256  19.057  0.00  0.00    +0.000 A 
ATOM     15  C   UNL     1      -3.078  11.468  18.575  0.00  0.00    +0.000 A 
ENDROOT
BRANCH   1  18
ATOM     16  C   UNL     1       1.819   8.050  19.662  0.00  0.00    +0.000 C 
ATOM     17  O   UNL     1       1.682   7.784  20.853  0.00  0.00    +0.000 OA
ATOM     18  N   UNL     1       1.268   9.156  19.067  0.00  0.00    +0.000 N 
ATOM     19  H   UNL     1       1.403   9.286  18.066  0.00  0.00    +0.000 HD
BRANCH  16  24
ATOM     20  C   UNL     1       5.155   4.708  16.264  0.00  0.00    +0.000 C 
ATOM     21  C   UNL     1       4.266   5.599  17.075  0.00  0.00    +0.000 A 
ATOM     22  C   UNL     1       4.240   6.935  16.957  0.00  0.00    +0.000 A 
ATOM     23  C   UNL     1       3.398   7.727  17.827  0.00  0.00    +0.000 A 
ATOM     24  C   UNL     1       2.600   7.160  18.751  0.00  0.00    +0.000 A 
ATOM     25  C   UNL     1       2.581   5.669  18.831  0.00  0.00    +0.000 A 
ATOM     26  O   UNL     1       1.844   5.063  19.603  0.00  0.00    +0.000 OA
ATOM     27  N   UNL     1       3.443   4.995  17.995  0.00  0.00    +0.000 N 
ATOM     28  H   UNL     1       3.433   3.985  18.081  0.00  0.00    +0.000 HD
ENDBRANCH  16  24
ENDBRANCH   1  18
TORSDOF 2
ENDMDL
MODEL 5
REMARK VINA RESULT:      -7.8      1.588      3.690
REMARK  Name = 
REMARK  3 active torsions:
REMARK  status: ('A' for Active; 'I' for Inactive)
REMARK    1  A    between atoms: C_1  and  C_2
REMARK    2  A    between atoms: C_5  and  C_6
REMARK    3  A    between atoms: N_8  and  C_9
REMARK                            x       y       z     vdW  Elec       q    Type
REMARK                         _______ _______ _______ _____ _____    ______ ____
ROOT
ATOM      1  C   UNL     1       0.192  10.142  20.125  0.00  0.00    +0.000 C 
ATOM      2  C   UNL     1       0.876  11.337  20.830  0.00  0.00    +0.000 C 
ATOM      3  C   UNL     1       0.435  12.716  20.351  0.00  0.00    +0.000 C 
ATOM      4  C   UNL     1      -1.005  13.042  20.756  0.00  0.00    +0.000 C 
ATOM      5  O   UNL     1      -1.912  11.930  20.735  0.00  0.00    +0.000 OA
ATOM      6  C   UNL     1      -1.958  11.340  19.494  0.00  0.00    +0.000 A 
ATOM      7  C   UNL     1      -0.896  10.498  19.115  0.00  0.00    +0.000 A 
ATOM      8  C   UNL     1      -0.935   9.949  17.826  0.00  0.00    +0.000 A 
ATOM      9  C   UNL     1      -2.025  10.163  16.983  0.00  0.00    +0.000 A 
ATOM     10  C   UNL     1      -3.127  10.914  17.406  0.00  0.00    +0.000 A 
ATOM     11  C   UNL     1      -4.260  11.038  16.589  0.00  0.00    +0.000 A 
ATOM     12  C   UNL     1      -5.369  11.772  17.007  0.00  0.00    +0.000 A 
ATOM     13  C   UNL     1      -5.349  12.408  18.244  0.00  0.00    +0.000 A 
ATOM     14  C   UNL     1      -4.228  12.290  19.070  0.00  0.00    +0.000 A 
ATOM     15  C   UNL     1      -3.101  11.531  18.677  0.00  0.00    +0.000 A 
ENDROOT
BRANCH   1  18
ATOM     16  C   UNL     1       1.597   8.079  20.066  0.00  0.00    +0.000 C 
ATOM     17  O   UNL     1       1.212   7.668  21.157  0.00  0.00    +0.000 OA
ATOM     18  N   UNL     1       1.223   9.290  19.540  0.00  0.00    +0.000 N 
ATOM     19  H   UNL     1       1.563   9.541  18.613  0.00  0.00    +0.000 HD
BRANCH  16  24
ATOM     20  C   UNL     1       4.887   4.665  16.696  0.00  0.00    +0.000 C 
ATOM     21  C   UNL     1       4.096   5.541  17.617  0.00  0.00    +0.000 A 
ATOM     22  C   UNL     1       3.761   5.198  18.870  0.00  0.00    +0.000 A 
ATOM     23  C   UNL     1       2.937   6.077  19.671  0.00  0.00    +0.000 A 
ATOM     24  C   UNL     1       2.507   7.265  19.206  0.00  0.00    +0.000 A 
ATOM     25  C   UNL     1       2.940   7.672  17.836  0.00  0.00    +0.000 A 
ATOM     26  O   UNL     1       2.644   8.760  17.352  0.00  0.00    +0.000 OA
ATOM     27  N   UNL     1       3.689   6.759  17.128  0.00  0.00    +0.000 N 
ATOM     28  H   UNL     1       3.952   7.044  16.192  0.00  0.00    +0.000 HD
ENDBRANCH  16  24
ENDBRANCH   1  18
TORSDOF 2
ENDMDL
MODEL 6
REMARK VINA RESULT:      -7.5      2.678      7.841
REMARK  Name = 
REMARK  3 active torsions:
REMARK  status: ('A' for Active; 'I' for Inactive)
REMARK    1  A    between atoms: C_1  and  C_2
REMARK    2  A    between atoms: C_5  and  C_6
REMARK    3  A    between atoms: N_8  and  C_9
REMARK                            x       y       z     vdW  Elec       q    Type
REMARK                         _______ _______ _______ _____ _____    ______ ____
ROOT
ATOM      1  C   UNL     1       2.782   7.782  17.657  0.00  0.00    +0.000 C 
ATOM      2  C   UNL     1       4.158   7.785  16.950  0.00  0.00    +0.000 C 
ATOM      3  C   UNL     1       5.148   6.736  17.446  0.00  0.00    +0.000 C 
ATOM      4  C   UNL     1       4.731   5.313  17.066  0.00  0.00    +0.000 C 
ATOM      5  O   UNL     1       3.318   5.063  17.092  0.00  0.00    +0.000 OA
ATOM      6  C   UNL     1       2.782   5.331  18.330  0.00  0.00    +0.000 A 
ATOM      7  C   UNL     1       2.565   6.675  18.686  0.00  0.00    +0.000 A 
ATOM      8  C   UNL     1       2.068   6.931  19.971  0.00  0.00    +0.000 A 
ATOM      9  C   UNL     1       1.725   5.889  20.833  0.00  0.00    +0.000 A 
ATOM     10  C   UNL     1       1.844   4.554  20.433  0.00  0.00    +0.000 A 
ATOM     11  C   UNL     1       1.400   3.518  21.268  0.00  0.00    +0.000 A 
ATOM     12  C   UNL     1       1.501   2.185  20.873  0.00  0.00    +0.000 A 
ATOM     13  C   UNL     1       2.065   1.872  19.640  0.00  0.00    +0.000 A 
ATOM     14  C   UNL     1       2.506   2.894  18.796  0.00  0.00    +0.000 A 
ATOM     15  C   UNL     1       2.393   4.254  19.166  0.00  0.00    +0.000 A 
ENDROOT
BRANCH   1  18
ATOM     16  C   UNL     1       1.318   9.729  18.202  0.00  0.00    +0.000 C 
ATOM     17  O   UNL     1       0.351   9.300  17.579  0.00  0.00    +0.000 OA
ATOM     18  N   UNL     1       2.541   9.107  18.220  0.00  0.00    +0.000 N 
ATOM     19  H   UNL     1       3.282   9.512  18.788  0.00  0.00    +0.000 HD
BRANCH  16  24
ATOM     20  C   UNL     1       1.098  14.413  21.645  0.00  0.00    +0.000 C 
ATOM     21  C   UNL     1       1.079  13.214  20.748  0.00  0.00    +0.000 A 
ATOM     22  C   UNL     1       0.296  12.143  20.949  0.00  0.00    +0.000 A 
ATOM     23  C   UNL     1       0.388  10.998  20.069  0.00  0.00    +0.000 A 
ATOM     24  C   UNL     1       1.227  10.978  19.017  0.00  0.00    +0.000 A 
ATOM     25  C   UNL     1       2.045  12.199  18.757  0.00  0.00    +0.000 A 
ATOM     26  O   UNL     1       2.795  12.292  17.791  0.00  0.00    +0.000 OA
ATOM     27  N   UNL     1       1.927  13.226  19.666  0.00  0.00    +0.000 N 
ATOM     28  H   UNL     1       2.509  14.037  19.486  0.00  0.00    +0.000 HD
ENDBRANCH  16  24
ENDBRANCH   1  18
TORSDOF 2
ENDMDL
MODEL 7
REMARK VINA RESULT:      -7.4      3.054      7.785
REMARK  Name = 
REMARK  3 active torsions:
REMARK  status: ('A' for Active; 'I' for Inactive)
REMARK    1  A    between atoms: C_1  and  C_2
REMARK    2  A    between atoms: C_5  and  C_6
REMARK    3  A    between atoms: N_8  and  C_9
REMARK                            x       y       z     vdW  Elec       q    Type
REMARK                         _______ _______ _______ _____ _____    ______ ____
ROOT
ATOM      1  C   UNL     1       3.071   7.633  17.454  0.00  0.00    +0.000 C 
ATOM      2  C   UNL     1       4.465   7.533  16.790  0.00  0.00    +0.000 C 
ATOM      3  C   UNL     1       5.387   6.466  17.371  0.00  0.00    +0.000 C 
ATOM      4  C   UNL     1       4.911   5.046  17.055  0.00  0.00    +0.000 C 
ATOM      5  O   UNL     1       3.488   4.866  17.051  0.00  0.00    +0.000 OA
ATOM      6  C   UNL     1       2.931   5.226  18.255  0.00  0.00    +0.000 A 
ATOM      7  C   UNL     1       2.771   6.596  18.534  0.00  0.00    +0.000 A 
ATOM      8  C   UNL     1       2.251   6.945  19.787  0.00  0.00    +0.000 A 
ATOM      9  C   UNL     1       1.833   5.969  20.693  0.00  0.00    +0.000 A 
ATOM     10  C   UNL     1       1.897   4.610  20.367  0.00  0.00    +0.000 A 
ATOM     11  C   UNL     1       1.380   3.644  21.242  0.00  0.00    +0.000 A 
ATOM     12  C   UNL     1       1.426   2.287  20.922  0.00  0.00    +0.000 A 
ATOM     13  C   UNL     1       2.008   1.881  19.725  0.00  0.00    +0.000 A 
ATOM     14  C   UNL     1       2.523   2.834  18.842  0.00  0.00    +0.000 A 
ATOM     15  C   UNL     1       2.466   4.216  19.135  0.00  0.00    +0.000 A 
ENDROOT
BRANCH   1  18
ATOM     16  C   UNL     1       1.662   9.628  17.973  0.00  0.00    +0.000 C 
ATOM     17  O   UNL     1       0.647   9.166  17.460  0.00  0.00    +0.000 OA
ATOM     18  N   UNL     1       2.880   8.998  17.939  0.00  0.00    +0.000 N 
ATOM     19  H   UNL     1       3.665   9.435  18.417  0.00  0.00    +0.000 HD
BRANCH  16  24
ATOM     20  C   UNL     1       1.389  14.841  20.539  0.00  0.00    +0.000 C 
ATOM     21  C   UNL     1       1.536  13.505  19.881  0.00  0.00    +0.000 A 
ATOM     22  C   UNL     1       2.237  13.299  18.756  0.00  0.00    +0.000 A 
ATOM     23  C   UNL     1       2.273  11.985  18.150  0.00  0.00    +0.000 A 
ATOM     24  C   UNL     1       1.641  10.932  18.701  0.00  0.00    +0.000 A 
ATOM     25  C   UNL     1       0.920  11.151  19.990  0.00  0.00    +0.000 A 
ATOM     26  O   UNL     1       0.363  10.239  20.593  0.00  0.00    +0.000 OA
ATOM     27  N   UNL     1       0.901  12.440  20.476  0.00  0.00    +0.000 N 
ATOM     28  H   UNL     1       0.387  12.573  21.339  0.00  0.00    +0.000 HD
ENDBRANCH  16  24
ENDBRANCH   1  18
TORSDOF 2
ENDMDL
MODEL 8
REMARK VINA RESULT:      -7.3      3.560      4.362
REMARK  Name = 
REMARK  3 active torsions:
REMARK  status: ('A' for Active; 'I' for Inactive)
REMARK    1  A    between atoms: C_1  and  C_2
REMARK    2  A    between atoms: C_5  and  C_6
REMARK    3  A    between atoms: N_8  and  C_9
REMARK                            x       y       z     vdW  Elec       q    Type
REMARK                         _______ _______ _______ _____ _____    ______ ____
ROOT
ATOM      1  C   UNL     1       0.114  11.796  19.828  0.00  0.00    +0.000 C 
ATOM      2  C   UNL     1      -0.545  12.028  21.208  0.00  0.00    +0.000 C 
ATOM      3  C   UNL     1      -0.106  13.295  21.935  0.00  0.00    +0.000 C 
ATOM      4  C   UNL     1      -0.616  14.567  21.253  0.00  0.00    +0.000 C 
ATOM      5  O   UNL     1      -0.656  14.517  19.820  0.00  0.00    +0.000 OA
ATOM      6  C   UNL     1       0.581  14.235  19.290  0.00  0.00    +0.000 A 
ATOM      7  C   UNL     1       1.041  12.906  19.337  0.00  0.00    +0.000 A 
ATOM      8  C   UNL     1       2.326  12.648  18.842  0.00  0.00    +0.000 A 
ATOM      9  C   UNL     1       3.087  13.656  18.249  0.00  0.00    +0.000 A 
ATOM     10  C   UNL     1       2.581  14.953  18.110  0.00  0.00    +0.000 A 
ATOM     11  C   UNL     1       3.313  15.932  17.422  0.00  0.00    +0.000 A 
ATOM     12  C   UNL     1       2.812  17.224  17.265  0.00  0.00    +0.000 A 
ATOM     13  C   UNL     1       1.576  17.556  17.812  0.00  0.00    +0.000 A 
ATOM     14  C   UNL     1       0.835  16.588  18.496  0.00  0.00    +0.000 A 
ATOM     15  C   UNL     1       1.312  15.266  18.647  0.00  0.00    +0.000 A 
ENDROOT
BRANCH   1  18
ATOM     16  C   UNL     1       0.743   9.617  18.785  0.00  0.00    +0.000 C 
ATOM     17  O   UNL     1       0.029   9.772  17.798  0.00  0.00    +0.000 OA
ATOM     18  N   UNL     1       0.777  10.495  19.838  0.00  0.00    +0.000 N 
ATOM     19  H   UNL     1       1.422  10.308  20.604  0.00  0.00    +0.000 HD
BRANCH  16  24
ATOM     20  C   UNL     1       4.578   5.264  19.215  0.00  0.00    +0.000 C 
ATOM     21  C   UNL     1       3.559   6.348  19.045  0.00  0.00    +0.000 A 
ATOM     22  C   UNL     1       3.374   7.026  17.902  0.00  0.00    +0.000 A 
ATOM     23  C   UNL     1       2.412   8.105  17.842  0.00  0.00    +0.000 A 
ATOM     24  C   UNL     1       1.658   8.442  18.905  0.00  0.00    +0.000 A 
ATOM     25  C   UNL     1       1.818   7.640  20.153  0.00  0.00    +0.000 A 
ATOM     26  O   UNL     1       1.135   7.839  21.153  0.00  0.00    +0.000 OA
ATOM     27  N   UNL     1       2.784   6.659  20.137  0.00  0.00    +0.000 N 
ATOM     28  H   UNL     1       2.895   6.141  21.001  0.00  0.00    +0.000 HD
ENDBRANCH  16  24
ENDBRANCH   1  18
TORSDOF 2
ENDMDL
MODEL 9
REMARK VINA RESULT:      -7.2      0.966      1.381
REMARK  Name = 
REMARK  3 active torsions:
REMARK  status: ('A' for Active; 'I' for Inactive)
REMARK    1  A    between atoms: C_1  and  C_2
REMARK    2  A    between atoms: C_5  and  C_6
REMARK    3  A    between atoms: N_8  and  C_9
REMARK                            x       y       z     vdW  Elec       q    Type
REMARK                         _______ _______ _______ _____ _____    ______ ____
ROOT
ATOM      1  C   UNL     1      -0.135  10.002  18.230  0.00  0.00    +0.000 C 
ATOM      2  C   UNL     1      -1.244   9.770  17.176  0.00  0.00    +0.000 C 
ATOM      3  C   UNL     1      -2.669  10.002  17.668  0.00  0.00    +0.000 C 
ATOM      4  C   UNL     1      -2.959  11.480  17.942  0.00  0.00    +0.000 C 
ATOM      5  O   UNL     1      -1.861  12.227  18.485  0.00  0.00    +0.000 OA
ATOM      6  C   UNL     1      -1.407  11.674  19.660  0.00  0.00    +0.000 A 
ATOM      7  C   UNL     1      -0.604  10.521  19.587  0.00  0.00    +0.000 A 
ATOM      8  C   UNL     1      -0.195   9.941  20.796  0.00  0.00    +0.000 A 
ATOM      9  C   UNL     1      -0.505  10.532  22.021  0.00  0.00    +0.000 A 
ATOM     10  C   UNL     1      -1.214  11.736  22.082  0.00  0.00    +0.000 A 
ATOM     11  C   UNL     1      -1.430  12.373  23.312  0.00  0.00    +0.000 A 
ATOM     12  C   UNL     1      -2.123  13.581  23.383  0.00  0.00    +0.000 A 
ATOM     13  C   UNL     1      -2.623  14.158  22.219  0.00  0.00    +0.000 A 
ATOM     14  C   UNL     1      -2.411  13.536  20.986  0.00  0.00    +0.000 A 
ATOM     15  C   UNL     1      -1.691  12.323  20.888  0.00  0.00    +0.000 A 
ENDROOT
BRANCH   1  18
ATOM     16  C   UNL     1       1.978   8.694  17.999  0.00  0.00    +0.000 C 
ATOM     17  O   UNL     1       2.578   9.583  17.401  0.00  0.00    +0.000 OA
ATOM     18  N   UNL     1       0.656   8.781  18.355  0.00  0.00    +0.000 N 
ATOM     19  H   UNL     1       0.243   8.011  18.877  0.00  0.00    +0.000 HD
BRANCH  16  24
ATOM     20  C   UNL     1       4.342   3.602  19.526  0.00  0.00    +0.000 C 
ATOM     21  C   UNL     1       3.754   4.941  19.201  0.00  0.00    +0.000 A 
ATOM     22  C   UNL     1       2.829   5.553  19.956  0.00  0.00    +0.000 A 
ATOM     23  C   UNL     1       2.265   6.817  19.535  0.00  0.00    +0.000 A 
ATOM     24  C   UNL     1       2.664   7.430  18.404  0.00  0.00    +0.000 A 
ATOM     25  C   UNL     1       3.743   6.778  17.604  0.00  0.00    +0.000 A 
ATOM     26  O   UNL     1       4.208   7.291  16.591  0.00  0.00    +0.000 OA
ATOM     27  N   UNL     1       4.194   5.558  18.054  0.00  0.00    +0.000 N 
ATOM     28  H   UNL     1       4.910   5.120  17.485  0.00  0.00    +0.000 HD
ENDBRANCH  16  24
ENDBRANCH   1  18
TORSDOF 2
ENDMDL
