MODEL 1
REMARK VINA RESULT:      -6.5      0.000      0.000
REMARK  Name = 
REMARK  6 active torsions:
REMARK  status: ('A' for Active; 'I' for Inactive)
REMARK    1  A    between atoms: C_1  and  C_2
REMARK    2  A    between atoms: N_4  and  O_5
REMARK    3  A    between atoms: N_4  and  C_6
REMARK    4  A    between atoms: C_9  and  C_10
REMARK    5  A    between atoms: C_11  and  C_12
REMARK    6  A    between atoms: C_11  and  C_13
REMARK                            x       y       z     vdW  Elec       q    Type
REMARK                         _______ _______ _______ _____ _____    ______ ____
ROOT
ATOM      1  C   UNL     1       5.849   4.816  15.303  0.00  0.00    +0.000 A 
ATOM      2  C   UNL     1       5.537   3.739  16.133  0.00  0.00    +0.000 A 
ATOM      3  C   UNL     1       4.806   3.949  17.310  0.00  0.00    +0.000 A 
ATOM      4  C   UNL     1       4.324   5.225  17.647  0.00  0.00    +0.000 A 
ATOM      5  C   UNL     1       4.531   6.265  16.737  0.00  0.00    +0.000 A 
ATOM      6  C   UNL     1       5.335   6.078  15.608  0.00  0.00    +0.000 A 
ENDROOT
BRANCH   1  10
ATOM      7  C   UNL     1       7.389   4.226  11.901  0.00  0.00    +0.000 C 
ATOM      8  C   UNL     1       6.354   4.097  12.990  0.00  0.00    +0.000 C 
ATOM      9  O   UNL     1       5.287   3.515  12.777  0.00  0.00    +0.000 OA
ATOM     10  N   UNL     1       6.720   4.651  14.208  0.00  0.00    +0.000 N 
BRANCH  10  11
ATOM     11  O   UNL     1       7.864   5.481  14.230  0.00  0.00    +0.000 OA
ATOM     12  H   UNL     1       8.127   5.433  13.291  0.00  0.00    +0.000 HD
ENDBRANCH  10  11
ENDBRANCH   1  10
BRANCH   4  13
ATOM     13  C   UNL     1       3.599   5.391  18.922  0.00  0.00    +0.000 C 
ATOM     14  C   UNL     1       2.386   4.930  19.295  0.00  0.00    +0.000 C 
ATOM     15  C   UNL     1       1.448   4.090  18.469  0.00  0.00    +0.000 C 
ATOM     16  C   UNL     1       1.830   5.276  20.656  0.00  0.00    +0.000 C 
ENDBRANCH   4  13
TORSDOF 3
ENDMDL
MODEL 2
REMARK VINA RESULT:      -6.4      0.459      1.295
REMARK  Name = 
REMARK  6 active torsions:
REMARK  status: ('A' for Active; 'I' for Inactive)
REMARK    1  A    between atoms: C_1  and  C_2
REMARK    2  A    between atoms: N_4  and  O_5
REMARK    3  A    between atoms: N_4  and  C_6
REMARK    4  A    between atoms: C_9  and  C_10
REMARK    5  A    between atoms: C_11  and  C_12
REMARK    6  A    between atoms: C_11  and  C_13
REMARK                            x       y       z     vdW  Elec       q    Type
REMARK                         _______ _______ _______ _____ _____    ______ ____
ROOT
ATOM      1  C   UNL     1       6.190   5.068  15.574  0.00  0.00    +0.000 A 
ATOM      2  C   UNL     1       5.423   6.225  15.711  0.00  0.00    +0.000 A 
ATOM      3  C   UNL     1       4.614   6.400  16.840  0.00  0.00    +0.000 A 
ATOM      4  C   UNL     1       4.599   5.453  17.878  0.00  0.00    +0.000 A 
ATOM      5  C   UNL     1       5.472   4.367  17.785  0.00  0.00    +0.000 A 
ATOM      6  C   UNL     1       6.215   4.143  16.620  0.00  0.00    +0.000 A 
ENDROOT
BRANCH   1  10
ATOM      7  C   UNL     1       7.174   4.168  12.037  0.00  0.00    +0.000 C 
ATOM      8  C   UNL     1       6.325   4.146  13.282  0.00  0.00    +0.000 C 
ATOM      9  O   UNL     1       5.240   3.560  13.292  0.00  0.00    +0.000 OA
ATOM     10  N   UNL     1       6.878   4.799  14.374  0.00  0.00    +0.000 N 
BRANCH  10  11
ATOM     11  O   UNL     1       8.009   5.614  14.143  0.00  0.00    +0.000 OA
ATOM     12  H   UNL     1       8.385   5.166  13.362  0.00  0.00    +0.000 HD
ENDBRANCH  10  11
ENDBRANCH   1  10
BRANCH   4  13
ATOM     13  C   UNL     1       3.691   5.672  19.021  0.00  0.00    +0.000 C 
ATOM     14  C   UNL     1       2.456   5.180  19.252  0.00  0.00    +0.000 C 
ATOM     15  C   UNL     1       1.679   4.241  18.368  0.00  0.00    +0.000 C 
ATOM     16  C   UNL     1       1.695   5.593  20.491  0.00  0.00    +0.000 C 
ENDBRANCH   4  13
TORSDOF 3
ENDMDL
MODEL 3
REMARK VINA RESULT:      -6.4      2.867      6.018
REMARK  Name = 
REMARK  6 active torsions:
REMARK  status: ('A' for Active; 'I' for Inactive)
REMARK    1  A    between atoms: C_1  and  C_2
REMARK    2  A    between atoms: N_4  and  O_5
REMARK    3  A    between atoms: N_4  and  C_6
REMARK    4  A    between atoms: C_9  and  C_10
REMARK    5  A    between atoms: C_11  and  C_12
REMARK    6  A    between atoms: C_11  and  C_13
REMARK                            x       y       z     vdW  Elec       q    Type
REMARK                         _______ _______ _______ _____ _____    ______ ____
ROOT
ATOM      1  C   UNL     1       4.324   5.111  17.589  0.00  0.00    +0.000 A 
ATOM      2  C   UNL     1       4.906   3.866  17.350  0.00  0.00    +0.000 A 
ATOM      3  C   UNL     1       5.642   3.650  16.177  0.00  0.00    +0.000 A 
ATOM      4  C   UNL     1       5.858   4.686  15.253  0.00  0.00    +0.000 A 
ATOM      5  C   UNL     1       5.381   5.959  15.574  0.00  0.00    +0.000 A 
ATOM      6  C   UNL     1       4.572   6.158  16.698  0.00  0.00    +0.000 A 
ENDROOT
BRANCH   1  10
ATOM      7  C   UNL     1       1.476   4.947  20.068  0.00  0.00    +0.000 C 
ATOM      8  C   UNL     1       2.146   4.818  18.724  0.00  0.00    +0.000 C 
ATOM      9  O   UNL     1       1.539   4.338  17.763  0.00  0.00    +0.000 OA
ATOM     10  N   UNL     1       3.446   5.298  18.675  0.00  0.00    +0.000 N 
BRANCH  10  11
ATOM     11  O   UNL     1       4.078   5.600  19.902  0.00  0.00    +0.000 OA
ATOM     12  H   UNL     1       4.974   5.821  19.583  0.00  0.00    +0.000 HD
ENDBRANCH  10  11
ENDBRANCH   1  10
BRANCH   4  13
ATOM     13  C   UNL     1       6.603   4.383  14.015  0.00  0.00    +0.000 C 
ATOM     14  C   UNL     1       6.169   3.860  12.849  0.00  0.00    +0.000 C 
ATOM     15  C   UNL     1       4.759   3.453  12.513  0.00  0.00    +0.000 C 
ATOM     16  C   UNL     1       7.145   3.597  11.727  0.00  0.00    +0.000 C 
ENDBRANCH   4  13
TORSDOF 3
ENDMDL
MODEL 4
REMARK VINA RESULT:      -6.3      2.926      6.233
REMARK  Name = 
REMARK  6 active torsions:
REMARK  status: ('A' for Active; 'I' for Inactive)
REMARK    1  A    between atoms: C_1  and  C_2
REMARK    2  A    between atoms: N_4  and  O_5
REMARK    3  A    between atoms: N_4  and  C_6
REMARK    4  A    between atoms: C_9  and  C_10
REMARK    5  A    between atoms: C_11  and  C_12
REMARK    6  A    between atoms: C_11  and  C_13
REMARK                            x       y       z     vdW  Elec       q    Type
REMARK                         _______ _______ _______ _____ _____    ______ ____
ROOT
ATOM      1  C   UNL     1       4.190   5.089  17.642  0.00  0.00    +0.000 A 
ATOM      2  C   UNL     1       4.521   6.165  16.819  0.00  0.00    +0.000 A 
ATOM      3  C   UNL     1       5.299   5.958  15.673  0.00  0.00    +0.000 A 
ATOM      4  C   UNL     1       5.711   4.668  15.298  0.00  0.00    +0.000 A 
ATOM      5  C   UNL     1       5.258   3.588  16.060  0.00  0.00    +0.000 A 
ATOM      6  C   UNL     1       4.556   3.799  17.253  0.00  0.00    +0.000 A 
ENDROOT
BRANCH   1  10
ATOM      7  C   UNL     1       1.861   5.046  20.620  0.00  0.00    +0.000 C 
ATOM      8  C   UNL     1       2.251   4.917  19.169  0.00  0.00    +0.000 C 
ATOM      9  O   UNL     1       1.436   4.518  18.333  0.00  0.00    +0.000 OA
ATOM     10  N   UNL     1       3.553   5.301  18.881  0.00  0.00    +0.000 N 
BRANCH  10  11
ATOM     11  O   UNL     1       4.428   5.510  19.970  0.00  0.00    +0.000 OA
ATOM     12  H   UNL     1       4.175   6.420  20.220  0.00  0.00    +0.000 HD
ENDBRANCH  10  11
ENDBRANCH   1  10
BRANCH   4  13
ATOM     13  C   UNL     1       6.567   4.519  14.104  0.00  0.00    +0.000 C 
ATOM     14  C   UNL     1       6.278   4.004  12.890  0.00  0.00    +0.000 C 
ATOM     15  C   UNL     1       4.955   3.444  12.440  0.00  0.00    +0.000 C 
ATOM     16  C   UNL     1       7.351   3.916  11.830  0.00  0.00    +0.000 C 
ENDBRANCH   4  13
TORSDOF 3
ENDMDL
MODEL 5
REMARK VINA RESULT:      -6.2      1.646      2.071
REMARK  Name = 
REMARK  6 active torsions:
REMARK  status: ('A' for Active; 'I' for Inactive)
REMARK    1  A    between atoms: C_1  and  C_2
REMARK    2  A    between atoms: N_4  and  O_5
REMARK    3  A    between atoms: N_4  and  C_6
REMARK    4  A    between atoms: C_9  and  C_10
REMARK    5  A    between atoms: C_11  and  C_12
REMARK    6  A    between atoms: C_11  and  C_13
REMARK                            x       y       z     vdW  Elec       q    Type
REMARK                         _______ _______ _______ _____ _____    ______ ____
ROOT
ATOM      1  C   UNL     1       5.869   4.659  16.761  0.00  0.00    +0.000 A 
ATOM      2  C   UNL     1       4.566   4.283  16.434  0.00  0.00    +0.000 A 
ATOM      3  C   UNL     1       3.717   3.764  17.420  0.00  0.00    +0.000 A 
ATOM      4  C   UNL     1       4.133   3.665  18.758  0.00  0.00    +0.000 A 
ATOM      5  C   UNL     1       5.393   4.170  19.091  0.00  0.00    +0.000 A 
ATOM      6  C   UNL     1       6.275   4.607  18.097  0.00  0.00    +0.000 A 
ENDROOT
BRANCH   1  10
ATOM      7  C   UNL     1       7.696   5.241  13.503  0.00  0.00    +0.000 C 
ATOM      8  C   UNL     1       6.757   4.544  14.456  0.00  0.00    +0.000 C 
ATOM      9  O   UNL     1       6.055   3.606  14.070  0.00  0.00    +0.000 OA
ATOM     10  N   UNL     1       6.786   5.026  15.756  0.00  0.00    +0.000 N 
BRANCH  10  11
ATOM     11  O   UNL     1       7.463   6.244  15.986  0.00  0.00    +0.000 OA
ATOM     12  H   UNL     1       8.227   5.920  16.500  0.00  0.00    +0.000 HD
ENDBRANCH  10  11
ENDBRANCH   1  10
BRANCH   4  13
ATOM     13  C   UNL     1       3.210   3.068  19.743  0.00  0.00    +0.000 C 
ATOM     14  C   UNL     1       2.230   3.644  20.471  0.00  0.00    +0.000 C 
ATOM     15  C   UNL     1       1.820   5.093  20.446  0.00  0.00    +0.000 C 
ATOM     16  C   UNL     1       1.439   2.822  21.461  0.00  0.00    +0.000 C 
ENDBRANCH   4  13
TORSDOF 3
ENDMDL
MODEL 6
REMARK VINA RESULT:      -6.2      3.198      6.251
REMARK  Name = 
REMARK  6 active torsions:
REMARK  status: ('A' for Active; 'I' for Inactive)
REMARK    1  A    between atoms: C_1  and  C_2
REMARK    2  A    between atoms: N_4  and  O_5
REMARK    3  A    between atoms: N_4  and  C_6
REMARK    4  A    between atoms: C_9  and  C_10
REMARK    5  A    between atoms: C_11  and  C_12
REMARK    6  A    between atoms: C_11  and  C_13
REMARK                            x       y       z     vdW  Elec       q    Type
REMARK                         _______ _______ _______ _____ _____    ______ ____
ROOT
ATOM      1  C   UNL     1       3.613   4.693  17.875  0.00  0.00    +0.000 A 
ATOM      2  C   UNL     1       3.876   5.974  17.388  0.00  0.00    +0.000 A 
ATOM      3  C   UNL     1       4.864   6.165  16.413  0.00  0.00    +0.000 A 
ATOM      4  C   UNL     1       5.565   5.077  15.867  0.00  0.00    +0.000 A 
ATOM      5  C   UNL     1       5.196   3.791  16.270  0.00  0.00    +0.000 A 
ATOM      6  C   UNL     1       4.274   3.602  17.305  0.00  0.00    +0.000 A 
ENDROOT
BRANCH   1  10
ATOM      7  C   UNL     1       0.895   3.550  20.240  0.00  0.00    +0.000 C 
ATOM      8  C   UNL     1       1.543   3.814  18.904  0.00  0.00    +0.000 C 
ATOM      9  O   UNL     1       0.999   3.447  17.859  0.00  0.00    +0.000 OA
ATOM     10  N   UNL     1       2.744   4.504  18.968  0.00  0.00    +0.000 N 
BRANCH  10  11
ATOM     11  O   UNL     1       3.348   4.647  20.237  0.00  0.00    +0.000 OA
ATOM     12  H   UNL     1       3.917   5.423  20.068  0.00  0.00    +0.000 HD
ENDBRANCH  10  11
ENDBRANCH   1  10
BRANCH   4  13
ATOM     13  C   UNL     1       6.626   5.346  14.877  0.00  0.00    +0.000 C 
ATOM     14  C   UNL     1       6.861   4.767  13.680  0.00  0.00    +0.000 C 
ATOM     15  C   UNL     1       6.057   3.669  13.037  0.00  0.00    +0.000 C 
ATOM     16  C   UNL     1       8.055   5.189  12.856  0.00  0.00    +0.000 C 
ENDBRANCH   4  13
TORSDOF 3
ENDMDL
MODEL 7
REMARK VINA RESULT:      -6.2      3.429      6.313
REMARK  Name = 
REMARK  6 active torsions:
REMARK  status: ('A' for Active; 'I' for Inactive)
REMARK    1  A    between atoms: C_1  and  C_2
REMARK    2  A    between atoms: N_4  and  O_5
REMARK    3  A    between atoms: N_4  and  C_6
REMARK    4  A    between atoms: C_9  and  C_10
REMARK    5  A    between atoms: C_11  and  C_12
REMARK    6  A    between atoms: C_11  and  C_13
REMARK                            x       y       z     vdW  Elec       q    Type
REMARK                         _______ _______ _______ _____ _____    ______ ____
ROOT
ATOM      1  C   UNL     1       4.948   3.852  18.443  0.00  0.00    +0.000 A 
ATOM      2  C   UNL     1       6.138   4.576  18.523  0.00  0.00    +0.000 A 
ATOM      3  C   UNL     1       6.790   4.984  17.353  0.00  0.00    +0.000 A 
ATOM      4  C   UNL     1       6.238   4.729  16.086  0.00  0.00    +0.000 A 
ATOM      5  C   UNL     1       4.982   4.120  16.030  0.00  0.00    +0.000 A 
ATOM      6  C   UNL     1       4.370   3.633  17.191  0.00  0.00    +0.000 A 
ENDROOT
BRANCH   1  10
ATOM      7  C   UNL     1       2.621   2.769  21.218  0.00  0.00    +0.000 C 
ATOM      8  C   UNL     1       3.130   3.655  20.109  0.00  0.00    +0.000 C 
ATOM      9  O   UNL     1       2.475   4.630  19.733  0.00  0.00    +0.000 OA
ATOM     10  N   UNL     1       4.368   3.292  19.599  0.00  0.00    +0.000 N 
BRANCH  10  11
ATOM     11  O   UNL     1       4.881   2.028  19.967  0.00  0.00    +0.000 OA
ATOM     12  H   UNL     1       4.574   1.983  20.893  0.00  0.00    +0.000 HD
ENDBRANCH  10  11
ENDBRANCH   1  10
BRANCH   4  13
ATOM     13  C   UNL     1       6.996   5.144  14.889  0.00  0.00    +0.000 C 
ATOM     14  C   UNL     1       6.938   4.679  13.623  0.00  0.00    +0.000 C 
ATOM     15  C   UNL     1       6.041   3.586  13.104  0.00  0.00    +0.000 C 
ATOM     16  C   UNL     1       7.860   5.242  12.567  0.00  0.00    +0.000 C 
ENDBRANCH   4  13
TORSDOF 3
ENDMDL
MODEL 8
REMARK VINA RESULT:      -6.1      3.179      6.201
REMARK  Name = 
REMARK  6 active torsions:
REMARK  status: ('A' for Active; 'I' for Inactive)
REMARK    1  A    between atoms: C_1  and  C_2
REMARK    2  A    between atoms: N_4  and  O_5
REMARK    3  A    between atoms: N_4  and  C_6
REMARK    4  A    between atoms: C_9  and  C_10
REMARK    5  A    between atoms: C_11  and  C_12
REMARK    6  A    between atoms: C_11  and  C_13
REMARK                            x       y       z     vdW  Elec       q    Type
REMARK                         _______ _______ _______ _____ _____    ______ ____
ROOT
ATOM      1  C   UNL     1       4.300   5.711  17.408  0.00  0.00    +0.000 A 
ATOM      2  C   UNL     1       4.889   6.546  16.458  0.00  0.00    +0.000 A 
ATOM      3  C   UNL     1       5.576   5.994  15.369  0.00  0.00    +0.000 A 
ATOM      4  C   UNL     1       5.639   4.604  15.179  0.00  0.00    +0.000 A 
ATOM      5  C   UNL     1       4.933   3.788  16.066  0.00  0.00    +0.000 A 
ATOM      6  C   UNL     1       4.320   4.329  17.202  0.00  0.00    +0.000 A 
ENDROOT
BRANCH   1  10
ATOM      7  C   UNL     1       2.097   7.319  20.025  0.00  0.00    +0.000 C 
ATOM      8  C   UNL     1       2.627   7.054  18.638  0.00  0.00    +0.000 C 
ATOM      9  O   UNL     1       2.085   7.559  17.652  0.00  0.00    +0.000 OA
ATOM     10  N   UNL     1       3.751   6.243  18.591  0.00  0.00    +0.000 N 
BRANCH  10  11
ATOM     11  O   UNL     1       4.110   5.557  19.773  0.00  0.00    +0.000 OA
ATOM     12  H   UNL     1       5.048   5.363  19.579  0.00  0.00    +0.000 HD
ENDBRANCH  10  11
ENDBRANCH   1  10
BRANCH   4  13
ATOM     13  C   UNL     1       6.417   4.082  14.037  0.00  0.00    +0.000 C 
ATOM     14  C   UNL     1       5.997   3.642  12.832  0.00  0.00    +0.000 C 
ATOM     15  C   UNL     1       4.576   3.584  12.338  0.00  0.00    +0.000 C 
ATOM     16  C   UNL     1       6.994   3.104  11.833  0.00  0.00    +0.000 C 
ENDBRANCH   4  13
TORSDOF 3
ENDMDL
MODEL 9
REMARK VINA RESULT:      -6.0      3.703      5.837
REMARK  Name = 
REMARK  6 active torsions:
REMARK  status: ('A' for Active; 'I' for Inactive)
REMARK    1  A    between atoms: C_1  and  C_2
REMARK    2  A    between atoms: N_4  and  O_5
REMARK    3  A    between atoms: N_4  and  C_6
REMARK    4  A    between atoms: C_9  and  C_10
REMARK    5  A    between atoms: C_11  and  C_12
REMARK    6  A    between atoms: C_11  and  C_13
REMARK                            x       y       z     vdW  Elec       q    Type
REMARK                         _______ _______ _______ _____ _____    ______ ____
ROOT
ATOM      1  C   UNL     1       3.075   4.675  17.564  0.00  0.00    +0.000 A 
ATOM      2  C   UNL     1       2.932   5.984  18.024  0.00  0.00    +0.000 A 
ATOM      3  C   UNL     1       3.997   6.886  17.915  0.00  0.00    +0.000 A 
ATOM      4  C   UNL     1       5.202   6.517  17.294  0.00  0.00    +0.000 A 
ATOM      5  C   UNL     1       5.280   5.245  16.721  0.00  0.00    +0.000 A 
ATOM      6  C   UNL     1       4.252   4.313  16.905  0.00  0.00    +0.000 A 
ENDROOT
BRANCH   1  10
ATOM      7  C   UNL     1       0.840   2.018  19.060  0.00  0.00    +0.000 C 
ATOM      8  C   UNL     1       2.114   2.799  18.859  0.00  0.00    +0.000 C 
ATOM      9  O   UNL     1       3.096   2.594  19.578  0.00  0.00    +0.000 OA
ATOM     10  N   UNL     1       2.079   3.711  17.815  0.00  0.00    +0.000 N 
BRANCH  10  11
ATOM     11  O   UNL     1       0.820   3.996  17.240  0.00  0.00    +0.000 OA
ATOM     12  H   UNL     1       1.055   4.767  16.689  0.00  0.00    +0.000 HD
ENDBRANCH  10  11
ENDBRANCH   1  10
BRANCH   4  13
ATOM     13  C   UNL     1       6.303   7.498  17.249  0.00  0.00    +0.000 C 
ATOM     14  C   UNL     1       7.492   7.495  17.889  0.00  0.00    +0.000 C 
ATOM     15  C   UNL     1       8.005   6.440  18.833  0.00  0.00    +0.000 C 
ATOM     16  C   UNL     1       8.448   8.652  17.717  0.00  0.00    +0.000 C 
ENDBRANCH   4  13
TORSDOF 3
ENDMDL
