MODEL 1
REMARK VINA RESULT:      -8.0      0.000      0.000
REMARK  Name = 
REMARK  7 active torsions:
REMARK  status: ('A' for Active; 'I' for Inactive)
REMARK    1  A    between atoms: C_2  and  O_3
REMARK    2  A    between atoms: C_2  and  C_4
REMARK    3  A    between atoms: C_6  and  S_7
REMARK    4  A    between atoms: S_7  and  N_10
REMARK    5  A    between atoms: N_10  and  C_11
REMARK    6  A    between atoms: C_11  and  C_12
REMARK    7  A    between atoms: C_25  and  O_26
REMARK                            x       y       z     vdW  Elec       q    Type
REMARK                         _______ _______ _______ _____ _____    ______ ____
ROOT
ATOM      1  C   UNL     1       5.871   4.151  14.633  0.00  0.00    +0.000 A 
ATOM      2  C   UNL     1       4.877   3.515  15.381  0.00  0.00    +0.000 A 
ATOM      3  C   UNL     1       4.806   3.711  16.770  0.00  0.00    +0.000 A 
ATOM      4  C   UNL     1       5.754   4.526  17.456  0.00  0.00    +0.000 A 
ATOM      5  C   UNL     1       5.757   4.754  18.857  0.00  0.00    +0.000 A 
ATOM      6  C   UNL     1       6.682   5.584  19.484  0.00  0.00    +0.000 A 
ATOM      7  C   UNL     1       7.663   6.201  18.733  0.00  0.00    +0.000 A 
ATOM      8  C   UNL     1       7.709   5.994  17.357  0.00  0.00    +0.000 A 
ATOM      9  C   UNL     1       6.769   5.164  16.689  0.00  0.00    +0.000 A 
ATOM     10  C   UNL     1       6.807   4.959  15.285  0.00  0.00    +0.000 A 
ENDROOT
BRANCH   3  11
ATOM     11  S   UNL     1       3.509   2.835  17.648  0.00  0.00    +0.000 S 
ATOM     12  O   UNL     1       2.257   3.081  16.971  0.00  0.00    +0.000 OA
ATOM     13  O   UNL     1       3.993   1.491  17.873  0.00  0.00    +0.000 OA
BRANCH  11  14
ATOM     14  N   UNL     1       3.449   3.623  19.147  0.00  0.00    +0.000 NA
ATOM     15  H   UNL     1       4.166   4.340  19.247  0.00  0.00    +0.000 HD
BRANCH  14  16
ATOM     16  C   UNL     1       2.128   4.129  19.550  0.00  0.00    +0.000 C 
BRANCH  16  17
ATOM     17  C   UNL     1       2.054   5.634  19.431  0.00  0.00    +0.000 A 
ATOM     18  C   UNL     1       2.410   6.280  18.236  0.00  0.00    +0.000 A 
ATOM     19  C   UNL     1       2.399   7.674  18.145  0.00  0.00    +0.000 A 
ATOM     20  C   UNL     1       2.029   8.442  19.250  0.00  0.00    +0.000 A 
ATOM     21  C   UNL     1       1.664   7.810  20.436  0.00  0.00    +0.000 A 
ATOM     22 CL   UNL     1       1.212   8.750  21.804  0.00  0.00    +0.000 Cl
ATOM     23  C   UNL     1       1.673   6.416  20.531  0.00  0.00    +0.000 A 
ENDBRANCH  16  17
ENDBRANCH  14  16
ENDBRANCH  11  14
ENDBRANCH   3  11
BRANCH   1  25
ATOM     24  O   UNL     1       6.927   3.905  12.511  0.00  0.00    +0.000 OA
ATOM     25  C   UNL     1       5.898   3.886  13.164  0.00  0.00    +0.000 C 
BRANCH  25  26
ATOM     26  O   UNL     1       4.702   3.543  12.639  0.00  0.00    +0.000 OA
ATOM     27  H   UNL     1       4.118   4.320  12.499  0.00  0.00    +0.000 HD
ENDBRANCH  25  26
ENDBRANCH   1  25
BRANCH  10  28
ATOM     28  O   UNL     1       7.765   5.569  14.503  0.00  0.00    +0.000 OA
ATOM     29  H   UNL     1       8.642   5.407  14.899  0.00  0.00    +0.000 HD
ENDBRANCH  10  28
TORSDOF 7
ENDMDL
MODEL 2
REMARK VINA RESULT:      -7.9      3.428      7.091
REMARK  Name = 
REMARK  7 active torsions:
REMARK  status: ('A' for Active; 'I' for Inactive)
REMARK    1  A    between atoms: C_2  and  O_3
REMARK    2  A    between atoms: C_2  and  C_4
REMARK    3  A    between atoms: C_6  and  S_7
REMARK    4  A    between atoms: S_7  and  N_10
REMARK    5  A    between atoms: N_10  and  C_11
REMARK    6  A    between atoms: C_11  and  C_12
REMARK    7  A    between atoms: C_25  and  O_26
REMARK                            x       y       z     vdW  Elec       q    Type
REMARK                         _______ _______ _______ _____ _____    ______ ____
ROOT
ATOM      1  C   UNL     1       4.245   3.681  18.991  0.00  0.00    +0.000 A 
ATOM      2  C   UNL     1       4.979   4.128  17.890  0.00  0.00    +0.000 A 
ATOM      3  C   UNL     1       4.788   5.430  17.398  0.00  0.00    +0.000 A 
ATOM      4  C   UNL     1       3.830   6.312  17.978  0.00  0.00    +0.000 A 
ATOM      5  C   UNL     1       3.569   7.631  17.522  0.00  0.00    +0.000 A 
ATOM      6  C   UNL     1       2.647   8.473  18.138  0.00  0.00    +0.000 A 
ATOM      7  C   UNL     1       1.925   8.015  19.223  0.00  0.00    +0.000 A 
ATOM      8  C   UNL     1       2.135   6.722  19.693  0.00  0.00    +0.000 A 
ATOM      9  C   UNL     1       3.080   5.848  19.095  0.00  0.00    +0.000 A 
ATOM     10  C   UNL     1       3.304   4.532  19.579  0.00  0.00    +0.000 A 
ENDROOT
BRANCH   3  11
ATOM     11  S   UNL     1       5.759   5.906  15.965  0.00  0.00    +0.000 S 
ATOM     12  O   UNL     1       4.991   6.855  15.193  0.00  0.00    +0.000 OA
ATOM     13  O   UNL     1       7.085   6.223  16.447  0.00  0.00    +0.000 OA
BRANCH  11  14
ATOM     14  N   UNL     1       5.862   4.472  15.067  0.00  0.00    +0.000 NA
ATOM     15  H   UNL     1       4.949   4.080  14.841  0.00  0.00    +0.000 HD
BRANCH  14  16
ATOM     16  C   UNL     1       6.730   4.522  13.881  0.00  0.00    +0.000 C 
BRANCH  16  17
ATOM     17  C   UNL     1       6.238   3.590  12.798  0.00  0.00    +0.000 A 
ATOM     18  C   UNL     1       7.096   2.634  12.227  0.00  0.00    +0.000 A 
ATOM     19  C   UNL     1       6.658   1.813  11.185  0.00  0.00    +0.000 A 
ATOM     20  C   UNL     1       5.356   1.935  10.700  0.00  0.00    +0.000 A 
ATOM     21  C   UNL     1       4.496   2.871  11.267  0.00  0.00    +0.000 A 
ATOM     22 CL   UNL     1       2.890   3.031  10.671  0.00  0.00    +0.000 Cl
ATOM     23  C   UNL     1       4.928   3.694  12.310  0.00  0.00    +0.000 A 
ENDBRANCH  16  17
ENDBRANCH  14  16
ENDBRANCH  11  14
ENDBRANCH   3  11
BRANCH   1  25
ATOM     24  O   UNL     1       4.926   2.019  20.559  0.00  0.00    +0.000 OA
ATOM     25  C   UNL     1       4.486   2.281  19.452  0.00  0.00    +0.000 C 
BRANCH  25  26
ATOM     26  O   UNL     1       4.099   1.332  18.573  0.00  0.00    +0.000 OA
ATOM     27  H   UNL     1       4.770   1.174  17.874  0.00  0.00    +0.000 HD
ENDBRANCH  25  26
ENDBRANCH   1  25
BRANCH  10  28
ATOM     28  O   UNL     1       2.609   4.047  20.667  0.00  0.00    +0.000 OA
ATOM     29  H   UNL     1       1.769   4.537  20.746  0.00  0.00    +0.000 HD
ENDBRANCH  10  28
TORSDOF 7
ENDMDL
MODEL 3
REMARK VINA RESULT:      -7.8      3.776      6.868
REMARK  Name = 
REMARK  7 active torsions:
REMARK  status: ('A' for Active; 'I' for Inactive)
REMARK    1  A    between atoms: C_2  and  O_3
REMARK    2  A    between atoms: C_2  and  C_4
REMARK    3  A    between atoms: C_6  and  S_7
REMARK    4  A    between atoms: S_7  and  N_10
REMARK    5  A    between atoms: N_10  and  C_11
REMARK    6  A    between atoms: C_11  and  C_12
REMARK    7  A    between atoms: C_25  and  O_26
REMARK                            x       y       z     vdW  Elec       q    Type
REMARK                         _______ _______ _______ _____ _____    ______ ____
ROOT
ATOM      1  C   UNL     1       4.440   3.503  19.370  0.00  0.00    +0.000 A 
ATOM      2  C   UNL     1       5.618   4.140  18.973  0.00  0.00    +0.000 A 
ATOM      3  C   UNL     1       5.573   5.443  18.453  0.00  0.00    +0.000 A 
ATOM      4  C   UNL     1       4.338   6.135  18.283  0.00  0.00    +0.000 A 
ATOM      5  C   UNL     1       4.214   7.443  17.746  0.00  0.00    +0.000 A 
ATOM      6  C   UNL     1       2.990   8.097  17.628  0.00  0.00    +0.000 A 
ATOM      7  C   UNL     1       1.832   7.452  18.019  0.00  0.00    +0.000 A 
ATOM      8  C   UNL     1       1.905   6.162  18.536  0.00  0.00    +0.000 A 
ATOM      9  C   UNL     1       3.141   5.477  18.682  0.00  0.00    +0.000 A 
ATOM     10  C   UNL     1       3.218   4.165  19.218  0.00  0.00    +0.000 A 
ENDROOT
BRANCH   3  11
ATOM     11  S   UNL     1       7.135   6.170  17.949  0.00  0.00    +0.000 S 
ATOM     12  O   UNL     1       6.898   7.550  17.592  0.00  0.00    +0.000 OA
ATOM     13  O   UNL     1       8.108   5.808  18.956  0.00  0.00    +0.000 OA
BRANCH  11  14
ATOM     14  N   UNL     1       7.520   5.328  16.529  0.00  0.00    +0.000 NA
ATOM     15  H   UNL     1       8.288   4.671  16.654  0.00  0.00    +0.000 HD
BRANCH  14  16
ATOM     16  C   UNL     1       6.387   4.700  15.833  0.00  0.00    +0.000 C 
BRANCH  16  17
ATOM     17  C   UNL     1       6.684   4.502  14.363  0.00  0.00    +0.000 A 
ATOM     18  C   UNL     1       7.582   5.348  13.691  0.00  0.00    +0.000 A 
ATOM     19  C   UNL     1       7.811   5.203  12.321  0.00  0.00    +0.000 A 
ATOM     20  C   UNL     1       7.146   4.208  11.603  0.00  0.00    +0.000 A 
ATOM     21  C   UNL     1       6.263   3.358  12.264  0.00  0.00    +0.000 A 
ATOM     22 CL   UNL     1       5.435   2.132  11.386  0.00  0.00    +0.000 Cl
ATOM     23  C   UNL     1       6.031   3.498  13.635  0.00  0.00    +0.000 A 
ENDBRANCH  16  17
ENDBRANCH  14  16
ENDBRANCH  11  14
ENDBRANCH   3  11
BRANCH   1  25
ATOM     24  O   UNL     1       4.936   1.869  21.033  0.00  0.00    +0.000 OA
ATOM     25  C   UNL     1       4.559   2.111  19.900  0.00  0.00    +0.000 C 
BRANCH  25  26
ATOM     26  O   UNL     1       4.135   1.154  19.048  0.00  0.00    +0.000 OA
ATOM     27  H   UNL     1       4.575   1.212  18.172  0.00  0.00    +0.000 HD
ENDBRANCH  25  26
ENDBRANCH   1  25
BRANCH  10  28
ATOM     28  O   UNL     1       2.084   3.497  19.629  0.00  0.00    +0.000 OA
ATOM     29  H   UNL     1       1.307   4.056  19.445  0.00  0.00    +0.000 HD
ENDBRANCH  10  28
TORSDOF 7
ENDMDL
MODEL 4
REMARK VINA RESULT:      -7.7      0.949      1.336
REMARK  Name = 
REMARK  7 active torsions:
REMARK  status: ('A' for Active; 'I' for Inactive)
REMARK    1  A    between atoms: C_2  and  O_3
REMARK    2  A    between atoms: C_2  and  C_4
REMARK    3  A    between atoms: C_6  and  S_7
REMARK    4  A    between atoms: S_7  and  N_10
REMARK    5  A    between atoms: N_10  and  C_11
REMARK    6  A    between atoms: C_11  and  C_12
REMARK    7  A    between atoms: C_25  and  O_26
REMARK                            x       y       z     vdW  Elec       q    Type
REMARK                         _______ _______ _______ _____ _____    ______ ____
ROOT
ATOM      1  C   UNL     1       5.894   4.149  14.686  0.00  0.00    +0.000 A 
ATOM      2  C   UNL     1       4.873   3.538  15.418  0.00  0.00    +0.000 A 
ATOM      3  C   UNL     1       4.789   3.732  16.806  0.00  0.00    +0.000 A 
ATOM      4  C   UNL     1       5.748   4.521  17.507  0.00  0.00    +0.000 A 
ATOM      5  C   UNL     1       5.738   4.745  18.909  0.00  0.00    +0.000 A 
ATOM      6  C   UNL     1       6.676   5.549  19.551  0.00  0.00    +0.000 A 
ATOM      7  C   UNL     1       7.683   6.142  18.815  0.00  0.00    +0.000 A 
ATOM      8  C   UNL     1       7.742   5.937  17.439  0.00  0.00    +0.000 A 
ATOM      9  C   UNL     1       6.790   5.134  16.756  0.00  0.00    +0.000 A 
ATOM     10  C   UNL     1       6.842   4.931  15.352  0.00  0.00    +0.000 A 
ENDROOT
BRANCH   3  11
ATOM     11  S   UNL     1       3.457   2.888  17.664  0.00  0.00    +0.000 S 
ATOM     12  O   UNL     1       2.215   3.212  17.002  0.00  0.00    +0.000 OA
ATOM     13  O   UNL     1       3.881   1.517  17.845  0.00  0.00    +0.000 OA
BRANCH  11  14
ATOM     14  N   UNL     1       3.439   3.631  19.187  0.00  0.00    +0.000 NA
ATOM     15  H   UNL     1       4.115   4.389  19.266  0.00  0.00    +0.000 HD
BRANCH  14  16
ATOM     16  C   UNL     1       2.117   4.041  19.682  0.00  0.00    +0.000 C 
BRANCH  16  17
ATOM     17  C   UNL     1       2.010   5.546  19.790  0.00  0.00    +0.000 A 
ATOM     18  C   UNL     1       1.495   6.149  20.950  0.00  0.00    +0.000 A 
ATOM     19  C   UNL     1       1.341   7.536  21.025  0.00  0.00    +0.000 A 
ATOM     20  C   UNL     1       1.701   8.338  19.942  0.00  0.00    +0.000 A 
ATOM     21  C   UNL     1       2.223   7.749  18.793  0.00  0.00    +0.000 A 
ATOM     22 CL   UNL     1       2.664   8.732  17.452  0.00  0.00    +0.000 Cl
ATOM     23  C   UNL     1       2.379   6.363  18.713  0.00  0.00    +0.000 A 
ENDBRANCH  16  17
ENDBRANCH  14  16
ENDBRANCH  11  14
ENDBRANCH   3  11
BRANCH   1  25
ATOM     24  O   UNL     1       6.975   3.850  12.582  0.00  0.00    +0.000 OA
ATOM     25  C   UNL     1       5.934   3.886  13.216  0.00  0.00    +0.000 C 
BRANCH  25  26
ATOM     26  O   UNL     1       4.732   3.612  12.667  0.00  0.00    +0.000 OA
ATOM     27  H   UNL     1       4.018   3.556  13.338  0.00  0.00    +0.000 HD
ENDBRANCH  25  26
ENDBRANCH   1  25
BRANCH  10  28
ATOM     28  O   UNL     1       7.826   5.517  14.585  0.00  0.00    +0.000 OA
ATOM     29  H   UNL     1       8.696   5.286  14.961  0.00  0.00    +0.000 HD
ENDBRANCH  10  28
TORSDOF 7
ENDMDL
MODEL 5
REMARK VINA RESULT:      -7.6      1.083      1.574
REMARK  Name = 
REMARK  7 active torsions:
REMARK  status: ('A' for Active; 'I' for Inactive)
REMARK    1  A    between atoms: C_2  and  O_3
REMARK    2  A    between atoms: C_2  and  C_4
REMARK    3  A    between atoms: C_6  and  S_7
REMARK    4  A    between atoms: S_7  and  N_10
REMARK    5  A    between atoms: N_10  and  C_11
REMARK    6  A    between atoms: C_11  and  C_12
REMARK    7  A    between atoms: C_25  and  O_26
REMARK                            x       y       z     vdW  Elec       q    Type
REMARK                         _______ _______ _______ _____ _____    ______ ____
ROOT
ATOM      1  C   UNL     1       5.771   4.063  14.869  0.00  0.00    +0.000 A 
ATOM      2  C   UNL     1       4.837   3.461  15.714  0.00  0.00    +0.000 A 
ATOM      3  C   UNL     1       4.858   3.728  17.093  0.00  0.00    +0.000 A 
ATOM      4  C   UNL     1       5.841   4.585  17.670  0.00  0.00    +0.000 A 
ATOM      5  C   UNL     1       5.936   4.885  19.054  0.00  0.00    +0.000 A 
ATOM      6  C   UNL     1       6.893   5.754  19.573  0.00  0.00    +0.000 A 
ATOM      7  C   UNL     1       7.815   6.337  18.726  0.00  0.00    +0.000 A 
ATOM      8  C   UNL     1       7.769   6.059  17.363  0.00  0.00    +0.000 A 
ATOM      9  C   UNL     1       6.795   5.189  16.804  0.00  0.00    +0.000 A 
ATOM     10  C   UNL     1       6.741   4.911  15.413  0.00  0.00    +0.000 A 
ENDROOT
BRANCH   3  11
ATOM     11  S   UNL     1       3.633   2.890  18.101  0.00  0.00    +0.000 S 
ATOM     12  O   UNL     1       2.859   2.020  17.245  0.00  0.00    +0.000 OA
ATOM     13  O   UNL     1       4.326   2.382  19.264  0.00  0.00    +0.000 OA
BRANCH  11  14
ATOM     14  N   UNL     1       2.617   4.148  18.611  0.00  0.00    +0.000 NA
ATOM     15  H   UNL     1       2.675   4.322  19.613  0.00  0.00    +0.000 HD
BRANCH  14  16
ATOM     16  C   UNL     1       2.717   5.399  17.845  0.00  0.00    +0.000 C 
BRANCH  16  17
ATOM     17  C   UNL     1       2.306   6.591  18.679  0.00  0.00    +0.000 A 
ATOM     18  C   UNL     1       2.008   6.445  20.045  0.00  0.00    +0.000 A 
ATOM     19  C   UNL     1       1.572   7.535  20.802  0.00  0.00    +0.000 A 
ATOM     20  C   UNL     1       1.428   8.788  20.203  0.00  0.00    +0.000 A 
ATOM     21  C   UNL     1       1.732   8.944  18.854  0.00  0.00    +0.000 A 
ATOM     22 CL   UNL     1       1.552  10.484  18.108  0.00  0.00    +0.000 Cl
ATOM     23  C   UNL     1       2.170   7.857  18.092  0.00  0.00    +0.000 A 
ENDBRANCH  16  17
ENDBRANCH  14  16
ENDBRANCH  11  14
ENDBRANCH   3  11
BRANCH   1  25
ATOM     24  O   UNL     1       4.683   3.851  12.759  0.00  0.00    +0.000 OA
ATOM     25  C   UNL     1       5.701   3.721  13.417  0.00  0.00    +0.000 C 
BRANCH  25  26
ATOM     26  O   UNL     1       6.878   3.337  12.879  0.00  0.00    +0.000 OA
ATOM     27  H   UNL     1       6.860   3.342  11.898  0.00  0.00    +0.000 HD
ENDBRANCH  25  26
ENDBRANCH   1  25
BRANCH  10  28
ATOM     28  O   UNL     1       7.637   5.485  14.537  0.00  0.00    +0.000 OA
ATOM     29  H   UNL     1       8.367   5.881  15.050  0.00  0.00    +0.000 HD
ENDBRANCH  10  28
TORSDOF 7
ENDMDL
MODEL 6
REMARK VINA RESULT:      -7.5      3.485      6.919
REMARK  Name = 
REMARK  7 active torsions:
REMARK  status: ('A' for Active; 'I' for Inactive)
REMARK    1  A    between atoms: C_2  and  O_3
REMARK    2  A    between atoms: C_2  and  C_4
REMARK    3  A    between atoms: C_6  and  S_7
REMARK    4  A    between atoms: S_7  and  N_10
REMARK    5  A    between atoms: N_10  and  C_11
REMARK    6  A    between atoms: C_11  and  C_12
REMARK    7  A    between atoms: C_25  and  O_26
REMARK                            x       y       z     vdW  Elec       q    Type
REMARK                         _______ _______ _______ _____ _____    ______ ____
ROOT
ATOM      1  C   UNL     1       4.311   3.050  19.844  0.00  0.00    +0.000 A 
ATOM      2  C   UNL     1       5.028   3.783  18.895  0.00  0.00    +0.000 A 
ATOM      3  C   UNL     1       4.663   5.107  18.605  0.00  0.00    +0.000 A 
ATOM      4  C   UNL     1       3.544   5.726  19.236  0.00  0.00    +0.000 A 
ATOM      5  C   UNL     1       3.105   7.051  18.979  0.00  0.00    +0.000 A 
ATOM      6  C   UNL     1       2.025   7.630  19.641  0.00  0.00    +0.000 A 
ATOM      7  C   UNL     1       1.322   6.891  20.573  0.00  0.00    +0.000 A 
ATOM      8  C   UNL     1       1.707   5.582  20.845  0.00  0.00    +0.000 A 
ATOM      9  C   UNL     1       2.813   4.971  20.195  0.00  0.00    +0.000 A 
ATOM     10  C   UNL     1       3.213   3.639  20.478  0.00  0.00    +0.000 A 
ENDROOT
BRANCH   3  11
ATOM     11  S   UNL     1       5.629   5.960  17.356  0.00  0.00    +0.000 S 
ATOM     12  O   UNL     1       4.718   6.528  16.389  0.00  0.00    +0.000 OA
ATOM     13  O   UNL     1       6.589   6.781  18.060  0.00  0.00    +0.000 OA
BRANCH  11  14
ATOM     14  N   UNL     1       6.477   4.707  16.593  0.00  0.00    +0.000 NA
ATOM     15  H   UNL     1       6.996   4.124  17.247  0.00  0.00    +0.000 HD
BRANCH  14  16
ATOM     16  C   UNL     1       5.698   3.889  15.651  0.00  0.00    +0.000 C 
BRANCH  16  17
ATOM     17  C   UNL     1       6.205   4.045  14.235  0.00  0.00    +0.000 A 
ATOM     18  C   UNL     1       5.756   3.192  13.213  0.00  0.00    +0.000 A 
ATOM     19  C   UNL     1       6.269   3.298  11.917  0.00  0.00    +0.000 A 
ATOM     20  C   UNL     1       7.237   4.260  11.627  0.00  0.00    +0.000 A 
ATOM     21  C   UNL     1       7.679   5.117  12.631  0.00  0.00    +0.000 A 
ATOM     22 CL   UNL     1       8.875   6.302  12.281  0.00  0.00    +0.000 Cl
ATOM     23  C   UNL     1       7.169   5.016  13.928  0.00  0.00    +0.000 A 
ENDBRANCH  16  17
ENDBRANCH  14  16
ENDBRANCH  11  14
ENDBRANCH   3  11
BRANCH   1  25
ATOM     24  O   UNL     1       5.227   1.279  21.150  0.00  0.00    +0.000 OA
ATOM     25  C   UNL     1       4.743   1.642  20.091  0.00  0.00    +0.000 C 
BRANCH  25  26
ATOM     26  O   UNL     1       4.477   0.792  19.077  0.00  0.00    +0.000 OA
ATOM     27  H   UNL     1       4.654   1.192  18.198  0.00  0.00    +0.000 HD
ENDBRANCH  25  26
ENDBRANCH   1  25
BRANCH  10  28
ATOM     28  O   UNL     1       2.541   2.878  21.411  0.00  0.00    +0.000 OA
ATOM     29  H   UNL     1       3.022   2.925  22.259  0.00  0.00    +0.000 HD
ENDBRANCH  10  28
TORSDOF 7
ENDMDL
MODEL 7
REMARK VINA RESULT:      -7.5      3.819      7.229
REMARK  Name = 
REMARK  7 active torsions:
REMARK  status: ('A' for Active; 'I' for Inactive)
REMARK    1  A    between atoms: C_2  and  O_3
REMARK    2  A    between atoms: C_2  and  C_4
REMARK    3  A    between atoms: C_6  and  S_7
REMARK    4  A    between atoms: S_7  and  N_10
REMARK    5  A    between atoms: N_10  and  C_11
REMARK    6  A    between atoms: C_11  and  C_12
REMARK    7  A    between atoms: C_25  and  O_26
REMARK                            x       y       z     vdW  Elec       q    Type
REMARK                         _______ _______ _______ _____ _____    ______ ____
ROOT
ATOM      1  C   UNL     1       2.499   6.405  19.778  0.00  0.00    +0.000 A 
ATOM      2  C   UNL     1       3.801   6.411  19.273  0.00  0.00    +0.000 A 
ATOM      3  C   UNL     1       4.401   5.211  18.858  0.00  0.00    +0.000 A 
ATOM      4  C   UNL     1       3.723   3.962  18.968  0.00  0.00    +0.000 A 
ATOM      5  C   UNL     1       4.273   2.709  18.588  0.00  0.00    +0.000 A 
ATOM      6  C   UNL     1       3.563   1.514  18.682  0.00  0.00    +0.000 A 
ATOM      7  C   UNL     1       2.278   1.523  19.189  0.00  0.00    +0.000 A 
ATOM      8  C   UNL     1       1.705   2.726  19.590  0.00  0.00    +0.000 A 
ATOM      9  C   UNL     1       2.399   3.961  19.491  0.00  0.00    +0.000 A 
ATOM     10  C   UNL     1       1.813   5.191  19.890  0.00  0.00    +0.000 A 
ENDROOT
BRANCH   3  11
ATOM     11  S   UNL     1       6.085   5.316  18.244  0.00  0.00    +0.000 S 
ATOM     12  O   UNL     1       6.311   6.661  17.770  0.00  0.00    +0.000 OA
ATOM     13  O   UNL     1       6.933   4.718  19.252  0.00  0.00    +0.000 OA
BRANCH  11  14
ATOM     14  N   UNL     1       6.076   4.288  16.897  0.00  0.00    +0.000 NA
ATOM     15  H   UNL     1       5.878   3.319  17.139  0.00  0.00    +0.000 HD
BRANCH  14  16
ATOM     16  C   UNL     1       5.255   4.732  15.760  0.00  0.00    +0.000 C 
BRANCH  16  17
ATOM     17  C   UNL     1       5.946   4.462  14.442  0.00  0.00    +0.000 A 
ATOM     18  C   UNL     1       7.097   5.178  14.073  0.00  0.00    +0.000 A 
ATOM     19  C   UNL     1       7.700   4.970  12.830  0.00  0.00    +0.000 A 
ATOM     20  C   UNL     1       7.160   4.041  11.939  0.00  0.00    +0.000 A 
ATOM     21  C   UNL     1       6.027   3.319  12.302  0.00  0.00    +0.000 A 
ATOM     22 CL   UNL     1       5.353   2.175  11.207  0.00  0.00    +0.000 Cl
ATOM     23  C   UNL     1       5.420   3.522  13.544  0.00  0.00    +0.000 A 
ENDBRANCH  16  17
ENDBRANCH  14  16
ENDBRANCH  11  14
ENDBRANCH   3  11
BRANCH   1  25
ATOM     24  O   UNL     1       1.621   8.593  19.431  0.00  0.00    +0.000 OA
ATOM     25  C   UNL     1       1.928   7.713  20.216  0.00  0.00    +0.000 C 
BRANCH  25  26
ATOM     26  O   UNL     1       1.704   7.805  21.544  0.00  0.00    +0.000 OA
ATOM     27  H   UNL     1       1.245   7.015  21.902  0.00  0.00    +0.000 HD
ENDBRANCH  25  26
ENDBRANCH   1  25
BRANCH  10  28
ATOM     28  O   UNL     1       0.529   5.238  20.389  0.00  0.00    +0.000 OA
ATOM     29  H   UNL     1       0.063   5.994  19.986  0.00  0.00    +0.000 HD
ENDBRANCH  10  28
TORSDOF 7
ENDMDL
MODEL 8
REMARK VINA RESULT:      -7.5      3.631      7.032
REMARK  Name = 
REMARK  7 active torsions:
REMARK  status: ('A' for Active; 'I' for Inactive)
REMARK    1  A    between atoms: C_2  and  O_3
REMARK    2  A    between atoms: C_2  and  C_4
REMARK    3  A    between atoms: C_6  and  S_7
REMARK    4  A    between atoms: S_7  and  N_10
REMARK    5  A    between atoms: N_10  and  C_11
REMARK    6  A    between atoms: C_11  and  C_12
REMARK    7  A    between atoms: C_25  and  O_26
REMARK                            x       y       z     vdW  Elec       q    Type
REMARK                         _______ _______ _______ _____ _____    ______ ____
ROOT
ATOM      1  C   UNL     1       3.739   3.490  19.363  0.00  0.00    +0.000 A 
ATOM      2  C   UNL     1       4.332   4.311  18.401  0.00  0.00    +0.000 A 
ATOM      3  C   UNL     1       3.986   5.670  18.325  0.00  0.00    +0.000 A 
ATOM      4  C   UNL     1       3.007   6.238  19.193  0.00  0.00    +0.000 A 
ATOM      5  C   UNL     1       2.593   7.596  19.161  0.00  0.00    +0.000 A 
ATOM      6  C   UNL     1       1.657   8.120  20.048  0.00  0.00    +0.000 A 
ATOM      7  C   UNL     1       1.075   7.294  20.990  0.00  0.00    +0.000 A 
ATOM      8  C   UNL     1       1.438   5.952  21.048  0.00  0.00    +0.000 A 
ATOM      9  C   UNL     1       2.401   5.394  20.165  0.00  0.00    +0.000 A 
ATOM     10  C   UNL     1       2.781   4.028  20.228  0.00  0.00    +0.000 A 
ENDROOT
BRANCH   3  11
ATOM     11  S   UNL     1       4.783   6.639  17.043  0.00  0.00    +0.000 S 
ATOM     12  O   UNL     1       3.830   7.605  16.547  0.00  0.00    +0.000 OA
ATOM     13  O   UNL     1       6.067   7.048  17.566  0.00  0.00    +0.000 OA
BRANCH  11  14
ATOM     14  N   UNL     1       5.060   5.508  15.811  0.00  0.00    +0.000 NA
ATOM     15  H   UNL     1       4.652   5.785  14.919  0.00  0.00    +0.000 HD
BRANCH  14  16
ATOM     16  C   UNL     1       6.454   5.071  15.648  0.00  0.00    +0.000 C 
BRANCH  16  17
ATOM     17  C   UNL     1       6.755   4.711  14.210  0.00  0.00    +0.000 A 
ATOM     18  C   UNL     1       7.670   5.465  13.456  0.00  0.00    +0.000 A 
ATOM     19  C   UNL     1       7.903   5.169  12.111  0.00  0.00    +0.000 A 
ATOM     20  C   UNL     1       7.224   4.114  11.501  0.00  0.00    +0.000 A 
ATOM     21  C   UNL     1       6.324   3.354  12.244  0.00  0.00    +0.000 A 
ATOM     22 CL   UNL     1       5.480   2.054  11.497  0.00  0.00    +0.000 Cl
ATOM     23  C   UNL     1       6.088   3.645  13.589  0.00  0.00    +0.000 A 
ENDBRANCH  16  17
ENDBRANCH  14  16
ENDBRANCH  11  14
ENDBRANCH   3  11
BRANCH   1  25
ATOM     24  O   UNL     1       3.714   1.241  18.574  0.00  0.00    +0.000 OA
ATOM     25  C   UNL     1       4.141   2.051  19.378  0.00  0.00    +0.000 C 
BRANCH  25  26
ATOM     26  O   UNL     1       5.077   1.745  20.302  0.00  0.00    +0.000 OA
ATOM     27  H   UNL     1       5.948   1.542  19.898  0.00  0.00    +0.000 HD
ENDBRANCH  25  26
ENDBRANCH   1  25
BRANCH  10  28
ATOM     28  O   UNL     1       2.229   3.179  21.163  0.00  0.00    +0.000 OA
ATOM     29  H   UNL     1       1.293   3.027  20.935  0.00  0.00    +0.000 HD
ENDBRANCH  10  28
TORSDOF 7
ENDMDL
MODEL 9
REMARK VINA RESULT:      -7.5      6.017      9.341
REMARK  Name = 
REMARK  7 active torsions:
REMARK  status: ('A' for Active; 'I' for Inactive)
REMARK    1  A    between atoms: C_2  and  O_3
REMARK    2  A    between atoms: C_2  and  C_4
REMARK    3  A    between atoms: C_6  and  S_7
REMARK    4  A    between atoms: S_7  and  N_10
REMARK    5  A    between atoms: N_10  and  C_11
REMARK    6  A    between atoms: C_11  and  C_12
REMARK    7  A    between atoms: C_25  and  O_26
REMARK                            x       y       z     vdW  Elec       q    Type
REMARK                         _______ _______ _______ _____ _____    ______ ____
ROOT
ATOM      1  C   UNL     1      -2.521  10.859  17.269  0.00  0.00    +0.000 A 
ATOM      2  C   UNL     1      -1.286  10.368  17.698  0.00  0.00    +0.000 A 
ATOM      3  C   UNL     1      -0.821  10.661  18.990  0.00  0.00    +0.000 A 
ATOM      4  C   UNL     1      -1.569  11.486  19.881  0.00  0.00    +0.000 A 
ATOM      5  C   UNL     1      -1.154  11.841  21.191  0.00  0.00    +0.000 A 
ATOM      6  C   UNL     1      -1.930  12.623  22.042  0.00  0.00    +0.000 A 
ATOM      7  C   UNL     1      -3.147  13.107  21.602  0.00  0.00    +0.000 A 
ATOM      8  C   UNL     1      -3.587  12.799  20.318  0.00  0.00    +0.000 A 
ATOM      9  C   UNL     1      -2.823  11.990  19.435  0.00  0.00    +0.000 A 
ATOM     10  C   UNL     1      -3.273  11.666  18.128  0.00  0.00    +0.000 A 
ENDROOT
BRANCH   3  11
ATOM     11  S   UNL     1       0.787  10.005  19.442  0.00  0.00    +0.000 S 
ATOM     12  O   UNL     1       1.727  11.101  19.489  0.00  0.00    +0.000 OA
ATOM     13  O   UNL     1       0.579   9.141  20.584  0.00  0.00    +0.000 OA
BRANCH  11  14
ATOM     14  N   UNL     1       1.198   9.028  18.120  0.00  0.00    +0.000 NA
ATOM     15  H   UNL     1       0.696   9.280  17.270  0.00  0.00    +0.000 HD
BRANCH  14  16
ATOM     16  C   UNL     1       2.638   8.874  17.863  0.00  0.00    +0.000 C 
BRANCH  16  17
ATOM     17  C   UNL     1       3.031   7.416  17.782  0.00  0.00    +0.000 A 
ATOM     18  C   UNL     1       4.282   7.035  17.270  0.00  0.00    +0.000 A 
ATOM     19  C   UNL     1       4.621   5.686  17.140  0.00  0.00    +0.000 A 
ATOM     20  C   UNL     1       3.712   4.698  17.522  0.00  0.00    +0.000 A 
ATOM     21  C   UNL     1       2.474   5.067  18.041  0.00  0.00    +0.000 A 
ATOM     22 CL   UNL     1       1.347   3.855  18.510  0.00  0.00    +0.000 Cl
ATOM     23  C   UNL     1       2.131   6.415  18.174  0.00  0.00    +0.000 A 
ENDBRANCH  16  17
ENDBRANCH  14  16
ENDBRANCH  11  14
ENDBRANCH   3  11
BRANCH   1  25
ATOM     24  O   UNL     1      -3.019   9.375  15.471  0.00  0.00    +0.000 OA
ATOM     25  C   UNL     1      -2.946  10.523  15.878  0.00  0.00    +0.000 C 
BRANCH  25  26
ATOM     26  O   UNL     1      -3.322  11.588  15.138  0.00  0.00    +0.000 OA
ATOM     27  H   UNL     1      -4.293  11.624  15.001  0.00  0.00    +0.000 HD
ENDBRANCH  25  26
ENDBRANCH   1  25
BRANCH  10  28
ATOM     28  O   UNL     1      -4.488  12.122  17.661  0.00  0.00    +0.000 OA
ATOM     29  H   UNL     1      -4.834  12.786  18.286  0.00  0.00    +0.000 HD
ENDBRANCH  10  28
TORSDOF 7
ENDMDL
