MODEL 1
REMARK VINA RESULT:      -7.3      0.000      0.000
REMARK  Name = 
REMARK  7 active torsions:
REMARK  status: ('A' for Active; 'I' for Inactive)
REMARK    1  A    between atoms: C_1  and  C_2
REMARK    2  A    between atoms: C_4  and  S_5
REMARK    3  A    between atoms: S_5  and  N_8
REMARK    4  A    between atoms: C_14  and  C_15
REMARK    5  A    between atoms: C_15  and  C_16
REMARK    6  A    between atoms: N_22  and  C_23
REMARK    7  A    between atoms: C_27  and  C_28
REMARK                            x       y       z     vdW  Elec       q    Type
REMARK                         _______ _______ _______ _____ _____    ______ ____
ROOT
ATOM      1  N   UNL     1       3.119   3.306  20.105  0.00  0.00    +0.000 N 
ATOM      2  C   UNL     1       2.641   2.792  21.346  0.00  0.00    +0.000 C 
ATOM      3  C   UNL     1       1.314   2.711  21.500  0.00  0.00    +0.000 C 
ATOM      4  N   UNL     1       0.425   3.001  20.495  0.00  0.00    +0.000 N 
ATOM      5  C   UNL     1       0.821   3.446  19.252  0.00  0.00    +0.000 C 
ATOM      6  O   UNL     1       0.047   3.435  18.298  0.00  0.00    +0.000 OA
ATOM      7  C   UNL     1       2.224   4.081  19.212  0.00  0.00    +0.000 C 
ATOM      8  H   UNL     1      -0.547   2.735  20.591  0.00  0.00    +0.000 HD
ENDROOT
BRANCH   1   9
ATOM      9  S   UNL     1       4.500   2.533  19.477  0.00  0.00    +0.000 S 
ATOM     10  O   UNL     1       4.064   1.653  18.405  0.00  0.00    +0.000 OA
ATOM     11  O   UNL     1       5.335   2.010  20.538  0.00  0.00    +0.000 OA
BRANCH   9  15
ATOM     12  C   UNL     1       8.207   6.238  19.741  0.00  0.00    +0.000 C 
ATOM     13  C   UNL     1       7.111   5.624  18.915  0.00  0.00    +0.000 A 
ATOM     14  C   UNL     1       6.388   4.531  19.426  0.00  0.00    +0.000 A 
ATOM     15  C   UNL     1       5.386   3.882  18.670  0.00  0.00    +0.000 A 
ATOM     16  C   UNL     1       5.094   4.332  17.374  0.00  0.00    +0.000 A 
ATOM     17  C   UNL     1       4.139   3.681  16.421  0.00  0.00    +0.000 C 
ATOM     18  C   UNL     1       5.812   5.443  16.877  0.00  0.00    +0.000 A 
ATOM     19  C   UNL     1       6.804   6.078  17.629  0.00  0.00    +0.000 A 
ATOM     20 CL   UNL     1       7.671   7.381  16.896  0.00  0.00    +0.000 Cl
ENDBRANCH   9  15
ENDBRANCH   1   9
BRANCH   7  21
ATOM     21  C   UNL     1       2.053   5.514  19.735  0.00  0.00    +0.000 C 
BRANCH  21  22
ATOM     22  C   UNL     1       2.177   6.628  18.710  0.00  0.00    +0.000 C 
ATOM     23  O   UNL     1       2.446   6.440  17.538  0.00  0.00    +0.000 OA
ATOM     24  N   UNL     1       1.956   7.896  19.230  0.00  0.00    +0.000 N 
ATOM     25  C   UNL     1       1.650   8.238  20.610  0.00  0.00    +0.000 C 
ATOM     26  C   UNL     1       0.941   9.567  20.508  0.00  0.00    +0.000 C 
ATOM     27  C   UNL     1      -0.528   9.408  20.136  0.00  0.00    +0.000 C 
ATOM     28  N   UNL     1      -0.857  10.597  19.344  0.00  0.00    +0.000 NA
ATOM     29  C   UNL     1      -1.521  11.607  20.165  0.00  0.00    +0.000 C 
ATOM     30  C   UNL     1       0.399  11.099  18.748  0.00  0.00    +0.000 C 
ATOM     31  C   UNL     1       1.545  10.247  19.287  0.00  0.00    +0.000 C 
ATOM     32  C   UNL     1       1.977   9.082  18.383  0.00  0.00    +0.000 C 
ENDBRANCH  21  22
ENDBRANCH   7  21
TORSDOF 4
ENDMDL
MODEL 2
REMARK VINA RESULT:      -7.2      4.644      9.314
REMARK  Name = 
REMARK  7 active torsions:
REMARK  status: ('A' for Active; 'I' for Inactive)
REMARK    1  A    between atoms: C_1  and  C_2
REMARK    2  A    between atoms: C_4  and  S_5
REMARK    3  A    between atoms: S_5  and  N_8
REMARK    4  A    between atoms: C_14  and  C_15
REMARK    5  A    between atoms: C_15  and  C_16
REMARK    6  A    between atoms: N_22  and  C_23
REMARK    7  A    between atoms: C_27  and  C_28
REMARK                            x       y       z     vdW  Elec       q    Type
REMARK                         _______ _______ _______ _____ _____    ______ ____
ROOT
ATOM      1  N   UNL     1      -0.190  11.135  18.832  0.00  0.00    +0.000 N 
ATOM      2  C   UNL     1       0.485  12.390  18.805  0.00  0.00    +0.000 C 
ATOM      3  C   UNL     1       1.757  12.388  18.390  0.00  0.00    +0.000 C 
ATOM      4  N   UNL     1       2.384  11.266  17.908  0.00  0.00    +0.000 N 
ATOM      5  C   UNL     1       1.772  10.033  17.851  0.00  0.00    +0.000 C 
ATOM      6  O   UNL     1       2.242   9.121  17.174  0.00  0.00    +0.000 OA
ATOM      7  C   UNL     1       0.573   9.864  18.804  0.00  0.00    +0.000 C 
ATOM      8  H   UNL     1       3.269  11.353  17.424  0.00  0.00    +0.000 HD
ENDROOT
BRANCH   1   9
ATOM      9  S   UNL     1      -1.819  11.169  18.335  0.00  0.00    +0.000 S 
ATOM     10  O   UNL     1      -2.299   9.797  18.302  0.00  0.00    +0.000 OA
ATOM     11  O   UNL     1      -1.994  12.016  17.174  0.00  0.00    +0.000 OA
BRANCH   9  15
ATOM     12  C   UNL     1      -1.536  13.053  23.225  0.00  0.00    +0.000 C 
ATOM     13  C   UNL     1      -2.426  12.754  22.051  0.00  0.00    +0.000 A 
ATOM     14  C   UNL     1      -1.872  12.195  20.886  0.00  0.00    +0.000 A 
ATOM     15  C   UNL     1      -2.652  11.944  19.735  0.00  0.00    +0.000 A 
ATOM     16  C   UNL     1      -4.020  12.257  19.744  0.00  0.00    +0.000 A 
ATOM     17  C   UNL     1      -4.944  12.147  18.570  0.00  0.00    +0.000 C 
ATOM     18  C   UNL     1      -4.572  12.799  20.925  0.00  0.00    +0.000 A 
ATOM     19  C   UNL     1      -3.793  13.047  22.059  0.00  0.00    +0.000 A 
ATOM     20 CL   UNL     1      -4.555  13.781  23.425  0.00  0.00    +0.000 Cl
ENDBRANCH   9  15
ENDBRANCH   1   9
BRANCH   7  21
ATOM     21  C   UNL     1       1.173   9.567  20.186  0.00  0.00    +0.000 C 
BRANCH  21  22
ATOM     22  C   UNL     1       0.774   8.250  20.828  0.00  0.00    +0.000 C 
ATOM     23  O   UNL     1      -0.196   8.118  21.552  0.00  0.00    +0.000 OA
ATOM     24  N   UNL     1       1.622   7.194  20.518  0.00  0.00    +0.000 N 
ATOM     25  C   UNL     1       2.814   7.241  19.687  0.00  0.00    +0.000 C 
ATOM     26  C   UNL     1       2.980   5.819  19.206  0.00  0.00    +0.000 C 
ATOM     27  C   UNL     1       2.070   5.502  18.027  0.00  0.00    +0.000 C 
ATOM     28  N   UNL     1       1.733   4.083  18.168  0.00  0.00    +0.000 NA
ATOM     29  C   UNL     1       2.577   3.256  17.309  0.00  0.00    +0.000 C 
ATOM     30  C   UNL     1       1.874   3.731  19.597  0.00  0.00    +0.000 C 
ATOM     31  C   UNL     1       2.422   4.954  20.328  0.00  0.00    +0.000 C 
ATOM     32  C   UNL     1       1.364   5.843  20.999  0.00  0.00    +0.000 C 
ENDBRANCH  21  22
ENDBRANCH   7  21
TORSDOF 4
ENDMDL
MODEL 3
REMARK VINA RESULT:      -7.0      4.672      7.258
REMARK  Name = 
REMARK  7 active torsions:
REMARK  status: ('A' for Active; 'I' for Inactive)
REMARK    1  A    between atoms: C_1  and  C_2
REMARK    2  A    between atoms: C_4  and  S_5
REMARK    3  A    between atoms: S_5  and  N_8
REMARK    4  A    between atoms: C_14  and  C_15
REMARK    5  A    between atoms: C_15  and  C_16
REMARK    6  A    between atoms: N_22  and  C_23
REMARK    7  A    between atoms: C_27  and  C_28
REMARK                            x       y       z     vdW  Elec       q    Type
REMARK                         _______ _______ _______ _____ _____    ______ ____
ROOT
ATOM      1  N   UNL     1       6.050   6.086  17.788  0.00  0.00    +0.000 N 
ATOM      2  C   UNL     1       4.736   6.569  17.517  0.00  0.00    +0.000 C 
ATOM      3  C   UNL     1       4.476   6.954  16.262  0.00  0.00    +0.000 C 
ATOM      4  N   UNL     1       5.373   6.806  15.234  0.00  0.00    +0.000 N 
ATOM      5  C   UNL     1       6.639   6.292  15.413  0.00  0.00    +0.000 C 
ATOM      6  O   UNL     1       7.314   5.917  14.457  0.00  0.00    +0.000 OA
ATOM      7  C   UNL     1       7.169   6.374  16.858  0.00  0.00    +0.000 C 
ATOM      8  H   UNL     1       5.065   6.921  14.276  0.00  0.00    +0.000 HD
ENDROOT
BRANCH   1   9
ATOM      9  S   UNL     1       6.137   4.759  18.850  0.00  0.00    +0.000 S 
ATOM     10  O   UNL     1       6.221   5.282  20.204  0.00  0.00    +0.000 OA
ATOM     11  O   UNL     1       7.111   3.788  18.396  0.00  0.00    +0.000 OA
BRANCH   9  15
ATOM     12  C   UNL     1       1.513   3.689  21.088  0.00  0.00    +0.000 C 
ATOM     13  C   UNL     1       2.380   3.523  19.872  0.00  0.00    +0.000 A 
ATOM     14  C   UNL     1       3.661   4.101  19.850  0.00  0.00    +0.000 A 
ATOM     15  C   UNL     1       4.496   4.023  18.713  0.00  0.00    +0.000 A 
ATOM     16  C   UNL     1       4.044   3.350  17.567  0.00  0.00    +0.000 A 
ATOM     17  C   UNL     1       4.769   3.277  16.259  0.00  0.00    +0.000 C 
ATOM     18  C   UNL     1       2.764   2.755  17.605  0.00  0.00    +0.000 A 
ATOM     19  C   UNL     1       1.942   2.840  18.733  0.00  0.00    +0.000 A 
ATOM     20 CL   UNL     1       0.365   2.139  18.645  0.00  0.00    +0.000 Cl
ENDBRANCH   9  15
ENDBRANCH   1   9
BRANCH   7  21
ATOM     21  C   UNL     1       7.665   7.814  17.043  0.00  0.00    +0.000 C 
BRANCH  21  22
ATOM     22  C   UNL     1       8.340   8.133  18.366  0.00  0.00    +0.000 C 
ATOM     23  O   UNL     1       8.649   7.289  19.187  0.00  0.00    +0.000 OA
ATOM     24  N   UNL     1       8.578   9.487  18.563  0.00  0.00    +0.000 N 
ATOM     25  C   UNL     1       8.236  10.578  17.665  0.00  0.00    +0.000 C 
ATOM     26  C   UNL     1       9.203  11.676  18.038  0.00  0.00    +0.000 C 
ATOM     27  C   UNL     1      10.573  11.474  17.404  0.00  0.00    +0.000 C 
ATOM     28  N   UNL     1      11.530  12.029  18.365  0.00  0.00    +0.000 NA
ATOM     29  C   UNL     1      11.925  13.385  17.989  0.00  0.00    +0.000 C 
ATOM     30  C   UNL     1      10.899  11.982  19.702  0.00  0.00    +0.000 C 
ATOM     31  C   UNL     1       9.468  11.482  19.525  0.00  0.00    +0.000 C 
ATOM     32  C   UNL     1       9.269   9.975  19.750  0.00  0.00    +0.000 C 
ENDBRANCH  21  22
ENDBRANCH   7  21
TORSDOF 4
ENDMDL
MODEL 4
REMARK VINA RESULT:      -7.0      4.853      8.173
REMARK  Name = 
REMARK  7 active torsions:
REMARK  status: ('A' for Active; 'I' for Inactive)
REMARK    1  A    between atoms: C_1  and  C_2
REMARK    2  A    between atoms: C_4  and  S_5
REMARK    3  A    between atoms: S_5  and  N_8
REMARK    4  A    between atoms: C_14  and  C_15
REMARK    5  A    between atoms: C_15  and  C_16
REMARK    6  A    between atoms: N_22  and  C_23
REMARK    7  A    between atoms: C_27  and  C_28
REMARK                            x       y       z     vdW  Elec       q    Type
REMARK                         _______ _______ _______ _____ _____    ______ ____
ROOT
ATOM      1  N   UNL     1      -0.756  10.817  20.053  0.00  0.00    +0.000 N 
ATOM      2  C   UNL     1      -1.203   9.855  19.100  0.00  0.00    +0.000 C 
ATOM      3  C   UNL     1      -1.548  10.313  17.890  0.00  0.00    +0.000 C 
ATOM      4  N   UNL     1      -1.394  11.624  17.515  0.00  0.00    +0.000 N 
ATOM      5  C   UNL     1      -0.912  12.595  18.367  0.00  0.00    +0.000 C 
ATOM      6  O   UNL     1      -0.527  13.681  17.941  0.00  0.00    +0.000 OA
ATOM      7  C   UNL     1      -1.044  12.259  19.865  0.00  0.00    +0.000 C 
ATOM      8  H   UNL     1      -1.476  11.882  16.540  0.00  0.00    +0.000 HD
ENDROOT
BRANCH   1   9
ATOM      9  S   UNL     1       0.540  10.321  21.039  0.00  0.00    +0.000 S 
ATOM     10  O   UNL     1      -0.021   9.683  22.219  0.00  0.00    +0.000 OA
ATOM     11  O   UNL     1       1.515  11.381  21.194  0.00  0.00    +0.000 OA
BRANCH   9  15
ATOM     12  C   UNL     1       1.741   5.230  20.617  0.00  0.00    +0.000 C 
ATOM     13  C   UNL     1       1.857   6.596  20.001  0.00  0.00    +0.000 A 
ATOM     14  C   UNL     1       1.262   7.698  20.640  0.00  0.00    +0.000 A 
ATOM     15  C   UNL     1       1.295   8.993  20.078  0.00  0.00    +0.000 A 
ATOM     16  C   UNL     1       1.938   9.199  18.848  0.00  0.00    +0.000 A 
ATOM     17  C   UNL     1       1.961  10.486  18.083  0.00  0.00    +0.000 C 
ATOM     18  C   UNL     1       2.552   8.091  18.224  0.00  0.00    +0.000 A 
ATOM     19  C   UNL     1       2.512   6.811  18.784  0.00  0.00    +0.000 A 
ATOM     20 CL   UNL     1       3.231   5.512  17.899  0.00  0.00    +0.000 Cl
ENDBRANCH   9  15
ENDBRANCH   1   9
BRANCH   7  21
ATOM     21  C   UNL     1      -2.499  12.570  20.240  0.00  0.00    +0.000 C 
BRANCH  21  22
ATOM     22  C   UNL     1      -2.801  12.718  21.721  0.00  0.00    +0.000 C 
ATOM     23  O   UNL     1      -1.952  12.658  22.592  0.00  0.00    +0.000 OA
ATOM     24  N   UNL     1      -4.144  12.931  22.003  0.00  0.00    +0.000 N 
ATOM     25  C   UNL     1      -5.240  13.000  21.050  0.00  0.00    +0.000 C 
ATOM     26  C   UNL     1      -6.295  13.810  21.765  0.00  0.00    +0.000 C 
ATOM     27  C   UNL     1      -6.022  15.306  21.686  0.00  0.00    +0.000 C 
ATOM     28  N   UNL     1      -6.542  15.861  22.939  0.00  0.00    +0.000 NA
ATOM     29  C   UNL     1      -7.873  16.433  22.747  0.00  0.00    +0.000 C 
ATOM     30  C   UNL     1      -6.539  14.776  23.943  0.00  0.00    +0.000 C 
ATOM     31  C   UNL     1      -6.105  13.492  23.243  0.00  0.00    +0.000 C 
ATOM     32  C   UNL     1      -4.611  13.152  23.366  0.00  0.00    +0.000 C 
ENDBRANCH  21  22
ENDBRANCH   7  21
TORSDOF 4
ENDMDL
MODEL 5
REMARK VINA RESULT:      -6.9      1.745      2.205
REMARK  Name = 
REMARK  7 active torsions:
REMARK  status: ('A' for Active; 'I' for Inactive)
REMARK    1  A    between atoms: C_1  and  C_2
REMARK    2  A    between atoms: C_4  and  S_5
REMARK    3  A    between atoms: S_5  and  N_8
REMARK    4  A    between atoms: C_14  and  C_15
REMARK    5  A    between atoms: C_15  and  C_16
REMARK    6  A    between atoms: N_22  and  C_23
REMARK    7  A    between atoms: C_27  and  C_28
REMARK                            x       y       z     vdW  Elec       q    Type
REMARK                         _______ _______ _______ _____ _____    ______ ____
ROOT
ATOM      1  N   UNL     1       3.442   4.604  19.859  0.00  0.00    +0.000 N 
ATOM      2  C   UNL     1       2.729   3.864  20.848  0.00  0.00    +0.000 C 
ATOM      3  C   UNL     1       1.450   3.572  20.584  0.00  0.00    +0.000 C 
ATOM      4  N   UNL     1       0.849   3.863  19.385  0.00  0.00    +0.000 N 
ATOM      5  C   UNL     1       1.497   4.524  18.364  0.00  0.00    +0.000 C 
ATOM      6  O   UNL     1       1.043   4.530  17.222  0.00  0.00    +0.000 OA
ATOM      7  C   UNL     1       2.717   5.355  18.806  0.00  0.00    +0.000 C 
ATOM      8  H   UNL     1      -0.047   3.449  19.157  0.00  0.00    +0.000 HD
ENDROOT
BRANCH   1   9
ATOM      9  S   UNL     1       5.060   4.131  19.617  0.00  0.00    +0.000 S 
ATOM     10  O   UNL     1       5.207   2.780  20.133  0.00  0.00    +0.000 OA
ATOM     11  O   UNL     1       5.977   5.166  20.047  0.00  0.00    +0.000 OA
BRANCH   9  15
ATOM     12  C   UNL     1       7.165   5.812  15.114  0.00  0.00    +0.000 C 
ATOM     13  C   UNL     1       6.179   4.881  15.760  0.00  0.00    +0.000 A 
ATOM     14  C   UNL     1       6.045   4.876  17.160  0.00  0.00    +0.000 A 
ATOM     15  C   UNL     1       5.173   3.983  17.822  0.00  0.00    +0.000 A 
ATOM     16  C   UNL     1       4.413   3.072  17.073  0.00  0.00    +0.000 A 
ATOM     17  C   UNL     1       3.532   2.001  17.639  0.00  0.00    +0.000 C 
ATOM     18  C   UNL     1       4.539   3.098  15.666  0.00  0.00    +0.000 A 
ATOM     19  C   UNL     1       5.406   3.983  15.018  0.00  0.00    +0.000 A 
ATOM     20 CL   UNL     1       5.537   3.879  13.298  0.00  0.00    +0.000 Cl
ENDBRANCH   9  15
ENDBRANCH   1   9
BRANCH   7  21
ATOM     21  C   UNL     1       2.151   6.664  19.373  0.00  0.00    +0.000 C 
BRANCH  21  22
ATOM     22  C   UNL     1       2.342   7.909  18.524  0.00  0.00    +0.000 C 
ATOM     23  O   UNL     1       2.937   7.916  17.462  0.00  0.00    +0.000 OA
ATOM     24  N   UNL     1       1.773   9.053  19.067  0.00  0.00    +0.000 N 
ATOM     25  C   UNL     1       1.061   9.164  20.330  0.00  0.00    +0.000 C 
ATOM     26  C   UNL     1       0.181  10.377  20.148  0.00  0.00    +0.000 C 
ATOM     27  C   UNL     1      -1.087  10.057  19.366  0.00  0.00    +0.000 C 
ATOM     28  N   UNL     1      -1.400  11.277  18.619  0.00  0.00    +0.000 NA
ATOM     29  C   UNL     1      -2.422  12.064  19.304  0.00  0.00    +0.000 C 
ATOM     30  C   UNL     1      -0.140  12.030  18.444  0.00  0.00    +0.000 C 
ATOM     31  C   UNL     1       0.956  11.291  19.208  0.00  0.00    +0.000 C 
ATOM     32  C   UNL     1       1.807  10.329  18.364  0.00  0.00    +0.000 C 
ENDBRANCH  21  22
ENDBRANCH   7  21
TORSDOF 4
ENDMDL
MODEL 6
REMARK VINA RESULT:      -6.9      4.480      6.940
REMARK  Name = 
REMARK  7 active torsions:
REMARK  status: ('A' for Active; 'I' for Inactive)
REMARK    1  A    between atoms: C_1  and  C_2
REMARK    2  A    between atoms: C_4  and  S_5
REMARK    3  A    between atoms: S_5  and  N_8
REMARK    4  A    between atoms: C_14  and  C_15
REMARK    5  A    between atoms: C_15  and  C_16
REMARK    6  A    between atoms: N_22  and  C_23
REMARK    7  A    between atoms: C_27  and  C_28
REMARK                            x       y       z     vdW  Elec       q    Type
REMARK                         _______ _______ _______ _____ _____    ______ ____
ROOT
ATOM      1  N   UNL     1       6.347   6.219  17.444  0.00  0.00    +0.000 N 
ATOM      2  C   UNL     1       6.927   5.172  16.668  0.00  0.00    +0.000 C 
ATOM      3  C   UNL     1       7.851   4.411  17.268  0.00  0.00    +0.000 C 
ATOM      4  N   UNL     1       8.174   4.535  18.596  0.00  0.00    +0.000 N 
ATOM      5  C   UNL     1       7.609   5.486  19.418  0.00  0.00    +0.000 C 
ATOM      6  O   UNL     1       7.702   5.405  20.640  0.00  0.00    +0.000 OA
ATOM      7  C   UNL     1       7.007   6.698  18.682  0.00  0.00    +0.000 C 
ATOM      8  H   UNL     1       8.722   3.815  19.049  0.00  0.00    +0.000 HD
ENDROOT
BRANCH   1   9
ATOM      9  S   UNL     1       4.678   6.463  17.210  0.00  0.00    +0.000 S 
ATOM     10  O   UNL     1       4.301   5.788  15.979  0.00  0.00    +0.000 OA
ATOM     11  O   UNL     1       4.322   7.854  17.402  0.00  0.00    +0.000 OA
BRANCH   9  15
ATOM     12  C   UNL     1       4.454   1.946  19.871  0.00  0.00    +0.000 C 
ATOM     13  C   UNL     1       3.874   3.321  19.693  0.00  0.00    +0.000 A 
ATOM     14  C   UNL     1       4.409   4.178  18.716  0.00  0.00    +0.000 A 
ATOM     15  C   UNL     1       3.938   5.498  18.543  0.00  0.00    +0.000 A 
ATOM     16  C   UNL     1       2.905   5.979  19.363  0.00  0.00    +0.000 A 
ATOM     17  C   UNL     1       2.379   7.381  19.367  0.00  0.00    +0.000 C 
ATOM     18  C   UNL     1       2.359   5.104  20.328  0.00  0.00    +0.000 A 
ATOM     19  C   UNL     1       2.833   3.799  20.495  0.00  0.00    +0.000 A 
ATOM     20 CL   UNL     1       2.144   2.839  21.755  0.00  0.00    +0.000 Cl
ENDBRANCH   9  15
ENDBRANCH   1   9
BRANCH   7  21
ATOM     21  C   UNL     1       8.191   7.613  18.340  0.00  0.00    +0.000 C 
BRANCH  21  22
ATOM     22  C   UNL     1       7.848   8.996  17.813  0.00  0.00    +0.000 C 
ATOM     23  O   UNL     1       6.928   9.217  17.046  0.00  0.00    +0.000 OA
ATOM     24  N   UNL     1       8.683  10.000  18.284  0.00  0.00    +0.000 N 
ATOM     25  C   UNL     1       9.818   9.849  19.180  0.00  0.00    +0.000 C 
ATOM     26  C   UNL     1       9.966  11.211  19.816  0.00  0.00    +0.000 C 
ATOM     27  C   UNL     1       8.984  11.420  20.961  0.00  0.00    +0.000 C 
ATOM     28  N   UNL     1       8.671  12.851  20.946  0.00  0.00    +0.000 NA
ATOM     29  C   UNL     1       9.465  13.573  21.938  0.00  0.00    +0.000 C 
ATOM     30  C   UNL     1       8.909  13.346  19.573  0.00  0.00    +0.000 C 
ATOM     31  C   UNL     1       9.491  12.196  18.756  0.00  0.00    +0.000 C 
ATOM     32  C   UNL     1       8.471  11.398  17.929  0.00  0.00    +0.000 C 
ENDBRANCH  21  22
ENDBRANCH   7  21
TORSDOF 4
ENDMDL
MODEL 7
REMARK VINA RESULT:      -6.8      4.466      6.945
REMARK  Name = 
REMARK  7 active torsions:
REMARK  status: ('A' for Active; 'I' for Inactive)
REMARK    1  A    between atoms: C_1  and  C_2
REMARK    2  A    between atoms: C_4  and  S_5
REMARK    3  A    between atoms: S_5  and  N_8
REMARK    4  A    between atoms: C_14  and  C_15
REMARK    5  A    between atoms: C_15  and  C_16
REMARK    6  A    between atoms: N_22  and  C_23
REMARK    7  A    between atoms: C_27  and  C_28
REMARK                            x       y       z     vdW  Elec       q    Type
REMARK                         _______ _______ _______ _____ _____    ______ ____
ROOT
ATOM      1  N   UNL     1       6.661   5.939  16.741  0.00  0.00    +0.000 N 
ATOM      2  C   UNL     1       7.543   4.898  16.326  0.00  0.00    +0.000 C 
ATOM      3  C   UNL     1       8.232   4.267  17.285  0.00  0.00    +0.000 C 
ATOM      4  N   UNL     1       8.047   4.510  18.622  0.00  0.00    +0.000 N 
ATOM      5  C   UNL     1       7.168   5.461  19.095  0.00  0.00    +0.000 C 
ATOM      6  O   UNL     1       6.818   5.473  20.273  0.00  0.00    +0.000 OA
ATOM      7  C   UNL     1       6.801   6.560  18.080  0.00  0.00    +0.000 C 
ATOM      8  H   UNL     1       8.437   3.876  19.308  0.00  0.00    +0.000 HD
ENDROOT
BRANCH   1   9
ATOM      9  S   UNL     1       5.177   6.015  15.910  0.00  0.00    +0.000 S 
ATOM     10  O   UNL     1       5.217   5.026  14.845  0.00  0.00    +0.000 OA
ATOM     11  O   UNL     1       4.820   7.385  15.602  0.00  0.00    +0.000 OA
BRANCH   9  15
ATOM     12  C   UNL     1       3.019   1.876  18.307  0.00  0.00    +0.000 C 
ATOM     13  C   UNL     1       3.014   3.371  18.149  0.00  0.00    +0.000 A 
ATOM     14  C   UNL     1       3.926   3.978  17.268  0.00  0.00    +0.000 A 
ATOM     15  C   UNL     1       4.001   5.381  17.122  0.00  0.00    +0.000 A 
ATOM     16  C   UNL     1       3.146   6.203  17.872  0.00  0.00    +0.000 A 
ATOM     17  C   UNL     1       3.184   7.700  17.903  0.00  0.00    +0.000 C 
ATOM     18  C   UNL     1       2.220   5.584  18.740  0.00  0.00    +0.000 A 
ATOM     19  C   UNL     1       2.153   4.194  18.882  0.00  0.00    +0.000 A 
ATOM     20 CL   UNL     1       1.033   3.546  20.026  0.00  0.00    +0.000 Cl
ENDBRANCH   9  15
ENDBRANCH   1   9
BRANCH   7  21
ATOM     21  C   UNL     1       7.971   7.553  18.093  0.00  0.00    +0.000 C 
BRANCH  21  22
ATOM     22  C   UNL     1       7.660   8.973  17.656  0.00  0.00    +0.000 C 
ATOM     23  O   UNL     1       6.719   9.269  16.941  0.00  0.00    +0.000 OA
ATOM     24  N   UNL     1       8.550   9.920  18.146  0.00  0.00    +0.000 N 
ATOM     25  C   UNL     1       9.713   9.680  18.985  0.00  0.00    +0.000 C 
ATOM     26  C   UNL     1       9.936  10.998  19.686  0.00  0.00    +0.000 C 
ATOM     27  C   UNL     1       9.008  11.178  20.881  0.00  0.00    +0.000 C 
ATOM     28  N   UNL     1       8.748  12.618  20.956  0.00  0.00    +0.000 NA
ATOM     29  C   UNL     1       9.607  13.255  21.952  0.00  0.00    +0.000 C 
ATOM     30  C   UNL     1       8.950  13.179  19.604  0.00  0.00    +0.000 C 
ATOM     31  C   UNL     1       9.457  12.057  18.702  0.00  0.00    +0.000 C 
ATOM     32  C   UNL     1       8.375  11.342  17.877  0.00  0.00    +0.000 C 
ENDBRANCH  21  22
ENDBRANCH   7  21
TORSDOF 4
ENDMDL
MODEL 8
REMARK VINA RESULT:      -6.8      4.890      9.969
REMARK  Name = 
REMARK  7 active torsions:
REMARK  status: ('A' for Active; 'I' for Inactive)
REMARK    1  A    between atoms: C_1  and  C_2
REMARK    2  A    between atoms: C_4  and  S_5
REMARK    3  A    between atoms: S_5  and  N_8
REMARK    4  A    between atoms: C_14  and  C_15
REMARK    5  A    between atoms: C_15  and  C_16
REMARK    6  A    between atoms: N_22  and  C_23
REMARK    7  A    between atoms: C_27  and  C_28
REMARK                            x       y       z     vdW  Elec       q    Type
REMARK                         _______ _______ _______ _____ _____    ______ ____
ROOT
ATOM      1  N   UNL     1      -0.518  11.738  20.390  0.00  0.00    +0.000 N 
ATOM      2  C   UNL     1      -0.190  12.869  19.587  0.00  0.00    +0.000 C 
ATOM      3  C   UNL     1      -0.459  12.784  18.278  0.00  0.00    +0.000 C 
ATOM      4  N   UNL     1      -1.113  11.717  17.717  0.00  0.00    +0.000 N 
ATOM      5  C   UNL     1      -1.511  10.616  18.445  0.00  0.00    +0.000 C 
ATOM      6  O   UNL     1      -2.323   9.813  17.991  0.00  0.00    +0.000 OA
ATOM      7  C   UNL     1      -0.751  10.411  19.770  0.00  0.00    +0.000 C 
ATOM      8  H   UNL     1      -1.471  11.785  16.772  0.00  0.00    +0.000 HD
ENDROOT
BRANCH   1   9
ATOM      9  S   UNL     1      -1.161  12.093  21.926  0.00  0.00    +0.000 S 
ATOM     10  O   UNL     1      -0.631  13.382  22.339  0.00  0.00    +0.000 OA
ATOM     11  O   UNL     1      -1.050  10.955  22.815  0.00  0.00    +0.000 OA
BRANCH   9  15
ATOM     12  C   UNL     1      -5.025  12.385  18.388  0.00  0.00    +0.000 C 
ATOM     13  C   UNL     1      -4.640  12.539  19.832  0.00  0.00    +0.000 A 
ATOM     14  C   UNL     1      -3.313  12.295  20.226  0.00  0.00    +0.000 A 
ATOM     15  C   UNL     1      -2.909  12.372  21.577  0.00  0.00    +0.000 A 
ATOM     16  C   UNL     1      -3.851  12.702  22.564  0.00  0.00    +0.000 A 
ATOM     17  C   UNL     1      -3.595  12.717  24.040  0.00  0.00    +0.000 C 
ATOM     18  C   UNL     1      -5.177  12.965  22.157  0.00  0.00    +0.000 A 
ATOM     19  C   UNL     1      -5.570  12.884  20.818  0.00  0.00    +0.000 A 
ATOM     20 CL   UNL     1      -7.235  13.154  20.441  0.00  0.00    +0.000 Cl
ENDBRANCH   9  15
ENDBRANCH   1   9
BRANCH   7  21
ATOM     21  C   UNL     1       0.582   9.752  19.392  0.00  0.00    +0.000 C 
BRANCH  21  22
ATOM     22  C   UNL     1       1.105   8.689  20.342  0.00  0.00    +0.000 C 
ATOM     23  O   UNL     1       0.789   8.618  21.516  0.00  0.00    +0.000 OA
ATOM     24  N   UNL     1       1.987   7.793  19.752  0.00  0.00    +0.000 N 
ATOM     25  C   UNL     1       2.449   7.795  18.374  0.00  0.00    +0.000 C 
ATOM     26  C   UNL     1       2.855   6.363  18.123  0.00  0.00    +0.000 C 
ATOM     27  C   UNL     1       1.660   5.472  17.808  0.00  0.00    +0.000 C 
ATOM     28  N   UNL     1       2.007   4.154  18.346  0.00  0.00    +0.000 NA
ATOM     29  C   UNL     1       2.514   3.275  17.296  0.00  0.00    +0.000 C 
ATOM     30  C   UNL     1       2.994   4.359  19.428  0.00  0.00    +0.000 C 
ATOM     31  C   UNL     1       3.338   5.845  19.471  0.00  0.00    +0.000 C 
ATOM     32  C   UNL     1       2.546   6.671  20.497  0.00  0.00    +0.000 C 
ENDBRANCH  21  22
ENDBRANCH   7  21
TORSDOF 4
ENDMDL
MODEL 9
REMARK VINA RESULT:      -6.7      4.922      8.005
REMARK  Name = 
REMARK  7 active torsions:
REMARK  status: ('A' for Active; 'I' for Inactive)
REMARK    1  A    between atoms: C_1  and  C_2
REMARK    2  A    between atoms: C_4  and  S_5
REMARK    3  A    between atoms: S_5  and  N_8
REMARK    4  A    between atoms: C_14  and  C_15
REMARK    5  A    between atoms: C_15  and  C_16
REMARK    6  A    between atoms: N_22  and  C_23
REMARK    7  A    between atoms: C_27  and  C_28
REMARK                            x       y       z     vdW  Elec       q    Type
REMARK                         _______ _______ _______ _____ _____    ______ ____
ROOT
ATOM      1  N   UNL     1      -0.662  10.979  20.218  0.00  0.00    +0.000 N 
ATOM      2  C   UNL     1      -1.240   9.986  19.374  0.00  0.00    +0.000 C 
ATOM      3  C   UNL     1      -1.671  10.387  18.171  0.00  0.00    +0.000 C 
ATOM      4  N   UNL     1      -1.488  11.661  17.698  0.00  0.00    +0.000 N 
ATOM      5  C   UNL     1      -0.884  12.655  18.438  0.00  0.00    +0.000 C 
ATOM      6  O   UNL     1      -0.487  13.690  17.908  0.00  0.00    +0.000 OA
ATOM      7  C   UNL     1      -0.895  12.420  19.961  0.00  0.00    +0.000 C 
ATOM      8  H   UNL     1      -1.646  11.862  16.718  0.00  0.00    +0.000 HD
ENDROOT
BRANCH   1   9
ATOM      9  S   UNL     1       0.693  10.475  21.117  0.00  0.00    +0.000 S 
ATOM     10  O   UNL     1       0.207   9.848  22.335  0.00  0.00    +0.000 OA
ATOM     11  O   UNL     1       1.686  11.526  21.201  0.00  0.00    +0.000 OA
BRANCH   9  15
ATOM     12  C   UNL     1       1.780   5.365  20.628  0.00  0.00    +0.000 C 
ATOM     13  C   UNL     1       1.885   6.729  20.006  0.00  0.00    +0.000 A 
ATOM     14  C   UNL     1       1.346   7.840  20.678  0.00  0.00    +0.000 A 
ATOM     15  C   UNL     1       1.369   9.136  20.115  0.00  0.00    +0.000 A 
ATOM     16  C   UNL     1       1.944   9.331  18.850  0.00  0.00    +0.000 A 
ATOM     17  C   UNL     1       1.946  10.619  18.085  0.00  0.00    +0.000 C 
ATOM     18  C   UNL     1       2.502   8.213  18.192  0.00  0.00    +0.000 A 
ATOM     19  C   UNL     1       2.473   6.934  18.754  0.00  0.00    +0.000 A 
ATOM     20 CL   UNL     1       3.118   5.624  17.830  0.00  0.00    +0.000 Cl
ENDBRANCH   9  15
ENDBRANCH   1   9
BRANCH   7  21
ATOM     21  C   UNL     1      -2.293  12.833  20.440  0.00  0.00    +0.000 C 
BRANCH  21  22
ATOM     22  C   UNL     1      -2.492  12.932  21.943  0.00  0.00    +0.000 C 
ATOM     23  O   UNL     1      -2.777  11.983  22.650  0.00  0.00    +0.000 OA
ATOM     24  N   UNL     1      -2.321  14.214  22.449  0.00  0.00    +0.000 N 
ATOM     25  C   UNL     1      -2.003  15.418  21.699  0.00  0.00    +0.000 C 
ATOM     26  C   UNL     1      -1.360  16.326  22.721  0.00  0.00    +0.000 C 
ATOM     27  C   UNL     1       0.106  15.983  22.953  0.00  0.00    +0.000 C 
ATOM     28  N   UNL     1       0.361  16.305  24.359  0.00  0.00    +0.000 NA
ATOM     29  C   UNL     1       0.992  17.616  24.491  0.00  0.00    +0.000 C 
ATOM     30  C   UNL     1      -0.931  16.233  25.075  0.00  0.00    +0.000 C 
ATOM     31  C   UNL     1      -2.023  15.965  24.044  0.00  0.00    +0.000 C 
ATOM     32  C   UNL     1      -2.417  14.489  23.877  0.00  0.00    +0.000 C 
ENDBRANCH  21  22
ENDBRANCH   7  21
TORSDOF 4
ENDMDL
