MODEL 1
REMARK VINA RESULT:      -8.8      0.000      0.000
REMARK  Name = 
REMARK  4 active torsions:
REMARK  status: ('A' for Active; 'I' for Inactive)
REMARK    1  A    between atoms: C_2  and  C_3
REMARK    2  A    between atoms: C_3  and  N_4
REMARK    3  A    between atoms: N_18  and  C_19
REMARK    4  A    between atoms: C_23  and  C_24
REMARK                            x       y       z     vdW  Elec       q    Type
REMARK                         _______ _______ _______ _____ _____    ______ ____
ROOT
ATOM      1  O   UNL     1       1.789   6.708  20.586  0.00  0.00    +0.000 OA
ATOM      2  C   UNL     1       1.800   7.495  19.636  0.00  0.00    +0.000 C 
ATOM      3  N   UNL     1       1.538   8.838  19.840  0.00  0.00    +0.000 N 
ATOM      4  C   UNL     1       1.567   9.884  18.827  0.00  0.00    +0.000 C 
ATOM      5  C   UNL     1       0.202  10.570  18.704  0.00  0.00    +0.000 C 
ATOM      6  N   UNL     1      -0.235  11.081  20.019  0.00  0.00    +0.000 N 
ATOM      7  C   UNL     1      -0.249  10.058  21.084  0.00  0.00    +0.000 C 
ATOM      8  C   UNL     1       1.104   9.315  21.164  0.00  0.00    +0.000 C 
ENDROOT
BRANCH   6   9
ATOM      9  C   UNL     1      -0.381  12.431  20.243  0.00  0.00    +0.000 A 
ATOM     10  S   UNL     1       0.939  13.447  20.747  0.00  0.00    +0.000 S 
ATOM     11  C   UNL     1      -0.024  14.837  20.541  0.00  0.00    +0.000 A 
ATOM     12  N   UNL     1      -1.255  14.641  20.128  0.00  0.00    +0.000 NA
ATOM     13  C   UNL     1      -1.492  13.273  20.082  0.00  0.00    +0.000 A 
BRANCH  13  14
ATOM     14  C   UNL     1      -2.893  12.801  19.836  0.00  0.00    +0.000 A 
ATOM     15  N   UNL     1      -3.886  12.838  20.703  0.00  0.00    +0.000 NA
ATOM     16  C   UNL     1      -4.932  12.200  20.095  0.00  0.00    +0.000 A 
ATOM     17  C   UNL     1      -6.222  11.948  20.581  0.00  0.00    +0.000 A 
ATOM     18  C   UNL     1      -7.101  11.209  19.786  0.00  0.00    +0.000 A 
ATOM     19  C   UNL     1      -6.699  10.721  18.539  0.00  0.00    +0.000 A 
ATOM     20  C   UNL     1      -5.419  10.980  18.029  0.00  0.00    +0.000 A 
ATOM     21  C   UNL     1      -4.570  11.743  18.833  0.00  0.00    +0.000 A 
ATOM     22  N   UNL     1      -3.293  12.219  18.660  0.00  0.00    +0.000 N 
ATOM     23  H   UNL     1      -2.690  12.072  17.864  0.00  0.00    +0.000 HD
ENDBRANCH  13  14
ENDBRANCH   6   9
BRANCH   2  24
ATOM     24  C   UNL     1       2.087   6.989  18.198  0.00  0.00    +0.000 C 
BRANCH  24  25
ATOM     25  N   UNL     1       3.080   5.909  18.150  0.00  0.00    +0.000 N 
ATOM     26  C   UNL     1       4.366   6.284  17.743  0.00  0.00    +0.000 C 
ATOM     27  O   UNL     1       4.671   7.435  17.430  0.00  0.00    +0.000 OA
ATOM     28  C   UNL     1       5.383   5.186  17.566  0.00  0.00    +0.000 C 
ATOM     29  C   UNL     1       5.203   4.082  18.579  0.00  0.00    +0.000 C 
ATOM     30  C   UNL     1       3.784   3.600  18.538  0.00  0.00    +0.000 A 
ATOM     31  C   UNL     1       3.508   2.242  18.753  0.00  0.00    +0.000 A 
ATOM     32  C   UNL     1       2.196   1.783  18.749  0.00  0.00    +0.000 A 
ATOM     33  C   UNL     1       1.156   2.680  18.536  0.00  0.00    +0.000 A 
ATOM     34  C   UNL     1       1.432   4.043  18.335  0.00  0.00    +0.000 A 
ATOM     35  C   UNL     1       2.745   4.531  18.345  0.00  0.00    +0.000 A 
ENDBRANCH  24  25
ENDBRANCH   2  24
TORSDOF 4
ENDMDL
MODEL 2
REMARK VINA RESULT:      -8.7      0.272      1.030
REMARK  Name = 
REMARK  4 active torsions:
REMARK  status: ('A' for Active; 'I' for Inactive)
REMARK    1  A    between atoms: C_2  and  C_3
REMARK    2  A    between atoms: C_3  and  N_4
REMARK    3  A    between atoms: N_18  and  C_19
REMARK    4  A    between atoms: C_23  and  C_24
REMARK                            x       y       z     vdW  Elec       q    Type
REMARK                         _______ _______ _______ _____ _____    ______ ____
ROOT
ATOM      1  O   UNL     1       1.935   6.568  20.551  0.00  0.00    +0.000 OA
ATOM      2  C   UNL     1       1.912   7.368  19.612  0.00  0.00    +0.000 C 
ATOM      3  N   UNL     1       1.609   8.700  19.839  0.00  0.00    +0.000 N 
ATOM      4  C   UNL     1       1.595   9.761  18.842  0.00  0.00    +0.000 C 
ATOM      5  C   UNL     1       0.207  10.404  18.742  0.00  0.00    +0.000 C 
ATOM      6  N   UNL     1      -0.232  10.881  20.068  0.00  0.00    +0.000 N 
ATOM      7  C   UNL     1      -0.203   9.843  21.118  0.00  0.00    +0.000 C 
ATOM      8  C   UNL     1       1.174   9.143  21.174  0.00  0.00    +0.000 C 
ENDROOT
BRANCH   6   9
ATOM      9  C   UNL     1      -0.419  12.223  20.314  0.00  0.00    +0.000 A 
ATOM     10  S   UNL     1       0.859  13.260  20.878  0.00  0.00    +0.000 S 
ATOM     11  C   UNL     1      -0.132  14.630  20.669  0.00  0.00    +0.000 A 
ATOM     12  N   UNL     1      -1.345  14.413  20.215  0.00  0.00    +0.000 NA
ATOM     13  C   UNL     1      -1.546  13.040  20.136  0.00  0.00    +0.000 A 
BRANCH  13  14
ATOM     14  C   UNL     1      -2.926  12.538  19.838  0.00  0.00    +0.000 A 
ATOM     15  N   UNL     1      -3.299  11.899  18.747  0.00  0.00    +0.000 NA
ATOM     16  C   UNL     1      -4.654  11.745  18.853  0.00  0.00    +0.000 A 
ATOM     17  C   UNL     1      -5.551  11.145  17.959  0.00  0.00    +0.000 A 
ATOM     18  C   UNL     1      -6.914  11.173  18.265  0.00  0.00    +0.000 A 
ATOM     19  C   UNL     1      -7.373  11.796  19.430  0.00  0.00    +0.000 A 
ATOM     20  C   UNL     1      -6.487  12.383  20.344  0.00  0.00    +0.000 A 
ATOM     21  C   UNL     1      -5.129  12.319  20.026  0.00  0.00    +0.000 A 
ATOM     22  N   UNL     1      -3.994  12.737  20.676  0.00  0.00    +0.000 N 
ATOM     23  H   UNL     1      -3.941  13.221  21.561  0.00  0.00    +0.000 HD
ENDBRANCH  13  14
ENDBRANCH   6   9
BRANCH   2  24
ATOM     24  C   UNL     1       2.200   6.893  18.165  0.00  0.00    +0.000 C 
BRANCH  24  25
ATOM     25  N   UNL     1       3.139   5.766  18.100  0.00  0.00    +0.000 N 
ATOM     26  C   UNL     1       4.429   6.075  17.652  0.00  0.00    +0.000 C 
ATOM     27  O   UNL     1       4.779   7.208  17.320  0.00  0.00    +0.000 OA
ATOM     28  C   UNL     1       5.387   4.928  17.458  0.00  0.00    +0.000 C 
ATOM     29  C   UNL     1       5.183   3.843  18.487  0.00  0.00    +0.000 C 
ATOM     30  C   UNL     1       3.742   3.429  18.491  0.00  0.00    +0.000 A 
ATOM     31  C   UNL     1       3.408   2.088  18.728  0.00  0.00    +0.000 A 
ATOM     32  C   UNL     1       2.076   1.693  18.765  0.00  0.00    +0.000 A 
ATOM     33  C   UNL     1       1.074   2.637  18.573  0.00  0.00    +0.000 A 
ATOM     34  C   UNL     1       1.409   3.984  18.350  0.00  0.00    +0.000 A 
ATOM     35  C   UNL     1       2.744   4.407  18.318  0.00  0.00    +0.000 A 
ENDBRANCH  24  25
ENDBRANCH   2  24
TORSDOF 4
ENDMDL
MODEL 3
REMARK VINA RESULT:      -8.4      2.776      4.855
REMARK  Name = 
REMARK  4 active torsions:
REMARK  status: ('A' for Active; 'I' for Inactive)
REMARK    1  A    between atoms: C_2  and  C_3
REMARK    2  A    between atoms: C_3  and  N_4
REMARK    3  A    between atoms: N_18  and  C_19
REMARK    4  A    between atoms: C_23  and  C_24
REMARK                            x       y       z     vdW  Elec       q    Type
REMARK                         _______ _______ _______ _____ _____    ______ ____
ROOT
ATOM      1  O   UNL     1       1.525   8.458  17.431  0.00  0.00    +0.000 OA
ATOM      2  C   UNL     1       1.593   8.584  18.657  0.00  0.00    +0.000 C 
ATOM      3  N   UNL     1       0.758   9.472  19.314  0.00  0.00    +0.000 N 
ATOM      4  C   UNL     1       0.693   9.686  20.753  0.00  0.00    +0.000 C 
ATOM      5  C   UNL     1       1.018  11.141  21.108  0.00  0.00    +0.000 C 
ATOM      6  N   UNL     1       0.131  12.060  20.368  0.00  0.00    +0.000 N 
ATOM      7  C   UNL     1       0.144  11.856  18.906  0.00  0.00    +0.000 C 
ATOM      8  C   UNL     1      -0.114  10.375  18.545  0.00  0.00    +0.000 C 
ENDROOT
BRANCH   6   9
ATOM      9  C   UNL     1      -0.777  12.856  21.029  0.00  0.00    +0.000 A 
ATOM     10  S   UNL     1      -1.840  12.242  22.262  0.00  0.00    +0.000 S 
ATOM     11  C   UNL     1      -2.353  13.824  22.636  0.00  0.00    +0.000 A 
ATOM     12  N   UNL     1      -1.817  14.795  21.935  0.00  0.00    +0.000 NA
ATOM     13  C   UNL     1      -1.022  14.235  20.942  0.00  0.00    +0.000 A 
BRANCH  13  14
ATOM     14  C   UNL     1      -0.464  15.137  19.883  0.00  0.00    +0.000 A 
ATOM     15  N   UNL     1       0.813  15.295  19.595  0.00  0.00    +0.000 NA
ATOM     16  C   UNL     1       0.860  16.291  18.659  0.00  0.00    +0.000 A 
ATOM     17  C   UNL     1       1.972  16.859  18.024  0.00  0.00    +0.000 A 
ATOM     18  C   UNL     1       1.765  17.924  17.143  0.00  0.00    +0.000 A 
ATOM     19  C   UNL     1       0.477  18.418  16.910  0.00  0.00    +0.000 A 
ATOM     20  C   UNL     1      -0.648  17.848  17.522  0.00  0.00    +0.000 A 
ATOM     21  C   UNL     1      -0.414  16.770  18.377  0.00  0.00    +0.000 A 
ATOM     22  N   UNL     1      -1.245  15.954  19.106  0.00  0.00    +0.000 N 
ATOM     23  H   UNL     1      -2.251  16.009  19.170  0.00  0.00    +0.000 HD
ENDBRANCH  13  14
ENDBRANCH   6   9
BRANCH   2  24
ATOM     24  C   UNL     1       2.625   7.767  19.476  0.00  0.00    +0.000 C 
BRANCH  24  25
ATOM     25  N   UNL     1       2.732   6.368  19.045  0.00  0.00    +0.000 N 
ATOM     26  C   UNL     1       2.030   5.437  19.822  0.00  0.00    +0.000 C 
ATOM     27  O   UNL     1       1.366   5.743  20.813  0.00  0.00    +0.000 OA
ATOM     28  C   UNL     1       2.209   3.980  19.485  0.00  0.00    +0.000 C 
ATOM     29  C   UNL     1       2.366   3.760  18.000  0.00  0.00    +0.000 C 
ATOM     30  C   UNL     1       3.467   4.636  17.483  0.00  0.00    +0.000 A 
ATOM     31  C   UNL     1       4.293   4.172  16.449  0.00  0.00    +0.000 A 
ATOM     32  C   UNL     1       5.299   4.984  15.938  0.00  0.00    +0.000 A 
ATOM     33  C   UNL     1       5.479   6.262  16.453  0.00  0.00    +0.000 A 
ATOM     34  C   UNL     1       4.642   6.731  17.480  0.00  0.00    +0.000 A 
ATOM     35  C   UNL     1       3.614   5.936  18.004  0.00  0.00    +0.000 A 
ENDBRANCH  24  25
ENDBRANCH   2  24
TORSDOF 4
ENDMDL
MODEL 4
REMARK VINA RESULT:      -8.4      1.183      2.656
REMARK  Name = 
REMARK  4 active torsions:
REMARK  status: ('A' for Active; 'I' for Inactive)
REMARK    1  A    between atoms: C_2  and  C_3
REMARK    2  A    between atoms: C_3  and  N_4
REMARK    3  A    between atoms: N_18  and  C_19
REMARK    4  A    between atoms: C_23  and  C_24
REMARK                            x       y       z     vdW  Elec       q    Type
REMARK                         _______ _______ _______ _____ _____    ______ ____
ROOT
ATOM      1  O   UNL     1       2.124   6.145  20.234  0.00  0.00    +0.000 OA
ATOM      2  C   UNL     1       2.015   6.872  19.243  0.00  0.00    +0.000 C 
ATOM      3  N   UNL     1       1.814   8.233  19.395  0.00  0.00    +0.000 N 
ATOM      4  C   UNL     1       1.719   9.214  18.323  0.00  0.00    +0.000 C 
ATOM      5  C   UNL     1       0.365   9.932  18.352  0.00  0.00    +0.000 C 
ATOM      6  N   UNL     1       0.135  10.536  19.679  0.00  0.00    +0.000 N 
ATOM      7  C   UNL     1       0.253   9.581  20.800  0.00  0.00    +0.000 C 
ATOM      8  C   UNL     1       1.586   8.803  20.734  0.00  0.00    +0.000 C 
ENDROOT
BRANCH   6   9
ATOM      9  C   UNL     1       0.052  11.901  19.834  0.00  0.00    +0.000 A 
ATOM     10  S   UNL     1       1.425  12.883  20.256  0.00  0.00    +0.000 S 
ATOM     11  C   UNL     1       0.518  14.301  19.995  0.00  0.00    +0.000 A 
ATOM     12  N   UNL     1      -0.729  14.139  19.619  0.00  0.00    +0.000 NA
ATOM     13  C   UNL     1      -1.026  12.781  19.652  0.00  0.00    +0.000 A 
BRANCH  13  14
ATOM     14  C   UNL     1      -2.451  12.359  19.461  0.00  0.00    +0.000 A 
ATOM     15  N   UNL     1      -2.935  11.715  18.416  0.00  0.00    +0.000 NA
ATOM     16  C   UNL     1      -4.285  11.649  18.616  0.00  0.00    +0.000 A 
ATOM     17  C   UNL     1      -5.276  11.083  17.802  0.00  0.00    +0.000 A 
ATOM     18  C   UNL     1      -6.611  11.203  18.195  0.00  0.00    +0.000 A 
ATOM     19  C   UNL     1      -6.952  11.884  19.369  0.00  0.00    +0.000 A 
ATOM     20  C   UNL     1      -5.973  12.439  20.204  0.00  0.00    +0.000 A 
ATOM     21  C   UNL     1      -4.645  12.282  19.800  0.00  0.00    +0.000 A 
ATOM     22  N   UNL     1      -3.446  12.646  20.361  0.00  0.00    +0.000 N 
ATOM     23  H   UNL     1      -3.305  13.148  21.225  0.00  0.00    +0.000 HD
ENDBRANCH  13  14
ENDBRANCH   6   9
BRANCH   2  24
ATOM     24  C   UNL     1       2.080   6.271  17.815  0.00  0.00    +0.000 C 
BRANCH  24  25
ATOM     25  N   UNL     1       3.118   5.244  17.664  0.00  0.00    +0.000 N 
ATOM     26  C   UNL     1       2.716   3.930  17.932  0.00  0.00    +0.000 C 
ATOM     27  O   UNL     1       1.574   3.626  18.282  0.00  0.00    +0.000 OA
ATOM     28  C   UNL     1       3.779   2.862  17.905  0.00  0.00    +0.000 C 
ATOM     29  C   UNL     1       4.822   3.133  16.849  0.00  0.00    +0.000 C 
ATOM     30  C   UNL     1       5.365   4.518  17.035  0.00  0.00    +0.000 A 
ATOM     31  C   UNL     1       6.718   4.772  16.763  0.00  0.00    +0.000 A 
ATOM     32  C   UNL     1       7.231   6.058  16.900  0.00  0.00    +0.000 A 
ATOM     33  C   UNL     1       6.394   7.091  17.302  0.00  0.00    +0.000 A 
ATOM     34  C   UNL     1       5.035   6.838  17.560  0.00  0.00    +0.000 A 
ATOM     35  C   UNL     1       4.493   5.554  17.419  0.00  0.00    +0.000 A 
ENDBRANCH  24  25
ENDBRANCH   2  24
TORSDOF 4
ENDMDL
MODEL 5
REMARK VINA RESULT:      -8.3      1.198      2.462
REMARK  Name = 
REMARK  4 active torsions:
REMARK  status: ('A' for Active; 'I' for Inactive)
REMARK    1  A    between atoms: C_2  and  C_3
REMARK    2  A    between atoms: C_3  and  N_4
REMARK    3  A    between atoms: N_18  and  C_19
REMARK    4  A    between atoms: C_23  and  C_24
REMARK                            x       y       z     vdW  Elec       q    Type
REMARK                         _______ _______ _______ _____ _____    ______ ____
ROOT
ATOM      1  O   UNL     1       2.025   6.178  20.366  0.00  0.00    +0.000 OA
ATOM      2  C   UNL     1       1.951   6.879  19.353  0.00  0.00    +0.000 C 
ATOM      3  N   UNL     1       1.836   8.254  19.465  0.00  0.00    +0.000 N 
ATOM      4  C   UNL     1       1.790   9.206  18.364  0.00  0.00    +0.000 C 
ATOM      5  C   UNL     1       0.483  10.007  18.383  0.00  0.00    +0.000 C 
ATOM      6  N   UNL     1       0.304  10.663  19.693  0.00  0.00    +0.000 N 
ATOM      7  C   UNL     1       0.375   9.738  20.841  0.00  0.00    +0.000 C 
ATOM      8  C   UNL     1       1.657   8.877  20.787  0.00  0.00    +0.000 C 
ENDROOT
BRANCH   6   9
ATOM      9  C   UNL     1       0.307  12.036  19.805  0.00  0.00    +0.000 A 
ATOM     10  S   UNL     1       1.735  12.940  20.215  0.00  0.00    +0.000 S 
ATOM     11  C   UNL     1       0.923  14.405  19.902  0.00  0.00    +0.000 A 
ATOM     12  N   UNL     1      -0.328  14.310  19.515  0.00  0.00    +0.000 NA
ATOM     13  C   UNL     1      -0.712  12.976  19.584  0.00  0.00    +0.000 A 
BRANCH  13  14
ATOM     14  C   UNL     1      -2.158  12.639  19.388  0.00  0.00    +0.000 A 
ATOM     15  N   UNL     1      -3.124  12.830  20.266  0.00  0.00    +0.000 NA
ATOM     16  C   UNL     1      -4.242  12.271  19.713  0.00  0.00    +0.000 A 
ATOM     17  C   UNL     1      -5.541  12.183  20.233  0.00  0.00    +0.000 A 
ATOM     18  C   UNL     1      -6.509  11.495  19.497  0.00  0.00    +0.000 A 
ATOM     19  C   UNL     1      -6.185  10.897  18.275  0.00  0.00    +0.000 A 
ATOM     20  C   UNL     1      -4.897  10.992  17.732  0.00  0.00    +0.000 A 
ATOM     21  C   UNL     1      -3.956  11.707  18.476  0.00  0.00    +0.000 A 
ATOM     22  N   UNL     1      -2.641  12.036  18.255  0.00  0.00    +0.000 N 
ATOM     23  H   UNL     1      -2.074  11.781  17.460  0.00  0.00    +0.000 HD
ENDBRANCH  13  14
ENDBRANCH   6   9
BRANCH   2  24
ATOM     24  C   UNL     1       1.964   6.232  17.944  0.00  0.00    +0.000 C 
BRANCH  24  25
ATOM     25  N   UNL     1       3.011   5.217  17.781  0.00  0.00    +0.000 N 
ATOM     26  C   UNL     1       2.635   3.902  18.080  0.00  0.00    +0.000 C 
ATOM     27  O   UNL     1       1.508   3.589  18.465  0.00  0.00    +0.000 OA
ATOM     28  C   UNL     1       3.712   2.849  18.040  0.00  0.00    +0.000 C 
ATOM     29  C   UNL     1       4.723   3.117  16.953  0.00  0.00    +0.000 C 
ATOM     30  C   UNL     1       5.251   4.512  17.102  0.00  0.00    +0.000 A 
ATOM     31  C   UNL     1       6.592   4.781  16.791  0.00  0.00    +0.000 A 
ATOM     32  C   UNL     1       7.091   6.074  16.895  0.00  0.00    +0.000 A 
ATOM     33  C   UNL     1       6.251   7.103  17.303  0.00  0.00    +0.000 A 
ATOM     34  C   UNL     1       4.903   6.835  17.602  0.00  0.00    +0.000 A 
ATOM     35  C   UNL     1       4.376   5.542  17.494  0.00  0.00    +0.000 A 
ENDBRANCH  24  25
ENDBRANCH   2  24
TORSDOF 4
ENDMDL
MODEL 6
REMARK VINA RESULT:      -8.2      3.328     10.181
REMARK  Name = 
REMARK  4 active torsions:
REMARK  status: ('A' for Active; 'I' for Inactive)
REMARK    1  A    between atoms: C_2  and  C_3
REMARK    2  A    between atoms: C_3  and  N_4
REMARK    3  A    between atoms: N_18  and  C_19
REMARK    4  A    between atoms: C_23  and  C_24
REMARK                            x       y       z     vdW  Elec       q    Type
REMARK                         _______ _______ _______ _____ _____    ______ ____
ROOT
ATOM      1  O   UNL     1       1.649   9.429  19.532  0.00  0.00    +0.000 OA
ATOM      2  C   UNL     1       1.322   8.486  20.258  0.00  0.00    +0.000 C 
ATOM      3  N   UNL     1       1.899   7.240  20.084  0.00  0.00    +0.000 N 
ATOM      4  C   UNL     1       1.650   6.055  20.894  0.00  0.00    +0.000 C 
ATOM      5  C   UNL     1       1.093   4.911  20.039  0.00  0.00    +0.000 C 
ATOM      6  N   UNL     1       1.998   4.630  18.908  0.00  0.00    +0.000 N 
ATOM      7  C   UNL     1       2.303   5.812  18.077  0.00  0.00    +0.000 C 
ATOM      8  C   UNL     1       2.797   6.993  18.943  0.00  0.00    +0.000 C 
ENDROOT
BRANCH   6   9
ATOM      9  C   UNL     1       2.657   3.425  18.807  0.00  0.00    +0.000 A 
ATOM     10  S   UNL     1       1.862   1.898  19.055  0.00  0.00    +0.000 S 
ATOM     11  C   UNL     1       3.252   1.065  18.529  0.00  0.00    +0.000 A 
ATOM     12  N   UNL     1       4.279   1.803  18.178  0.00  0.00    +0.000 NA
ATOM     13  C   UNL     1       3.984   3.132  18.457  0.00  0.00    +0.000 A 
BRANCH  13  14
ATOM     14  C   UNL     1       5.079   4.147  18.333  0.00  0.00    +0.000 A 
ATOM     15  N   UNL     1       6.043   4.357  19.209  0.00  0.00    +0.000 NA
ATOM     16  C   UNL     1       6.732   5.443  18.747  0.00  0.00    +0.000 A 
ATOM     17  C   UNL     1       7.841   6.093  19.305  0.00  0.00    +0.000 A 
ATOM     18  C   UNL     1       8.331   7.238  18.671  0.00  0.00    +0.000 A 
ATOM     19  C   UNL     1       7.721   7.730  17.513  0.00  0.00    +0.000 A 
ATOM     20  C   UNL     1       6.623   7.081  16.931  0.00  0.00    +0.000 A 
ATOM     21  C   UNL     1       6.171   5.925  17.571  0.00  0.00    +0.000 A 
ATOM     22  N   UNL     1       5.174   5.025  17.284  0.00  0.00    +0.000 N 
ATOM     23  H   UNL     1       4.530   5.056  16.507  0.00  0.00    +0.000 HD
ENDBRANCH  13  14
ENDBRANCH   6   9
BRANCH   2  24
ATOM     24  C   UNL     1       0.248   8.676  21.360  0.00  0.00    +0.000 C 
BRANCH  24  25
ATOM     25  N   UNL     1      -0.317  10.030  21.392  0.00  0.00    +0.000 N 
ATOM     26  C   UNL     1      -0.372  10.637  22.653  0.00  0.00    +0.000 C 
ATOM     27  O   UNL     1       0.014  10.090  23.687  0.00  0.00    +0.000 OA
ATOM     28  C   UNL     1      -1.054  11.977  22.747  0.00  0.00    +0.000 C 
ATOM     29  C   UNL     1      -0.819  12.816  21.515  0.00  0.00    +0.000 C 
ATOM     30  C   UNL     1      -1.207  12.028  20.299  0.00  0.00    +0.000 A 
ATOM     31  C   UNL     1      -1.784  12.686  19.204  0.00  0.00    +0.000 A 
ATOM     32  C   UNL     1      -2.121  11.976  18.057  0.00  0.00    +0.000 A 
ATOM     33  C   UNL     1      -1.876  10.609  17.999  0.00  0.00    +0.000 A 
ATOM     34  C   UNL     1      -1.284   9.953  19.093  0.00  0.00    +0.000 A 
ATOM     35  C   UNL     1      -0.926  10.649  20.254  0.00  0.00    +0.000 A 
ENDBRANCH  24  25
ENDBRANCH   2  24
TORSDOF 4
ENDMDL
MODEL 7
REMARK VINA RESULT:      -8.2      3.112      5.232
REMARK  Name = 
REMARK  4 active torsions:
REMARK  status: ('A' for Active; 'I' for Inactive)
REMARK    1  A    between atoms: C_2  and  C_3
REMARK    2  A    between atoms: C_3  and  N_4
REMARK    3  A    between atoms: N_18  and  C_19
REMARK    4  A    between atoms: C_23  and  C_24
REMARK                            x       y       z     vdW  Elec       q    Type
REMARK                         _______ _______ _______ _____ _____    ______ ____
ROOT
ATOM      1  O   UNL     1       2.172   7.853  17.785  0.00  0.00    +0.000 OA
ATOM      2  C   UNL     1       1.972   7.740  18.998  0.00  0.00    +0.000 C 
ATOM      3  N   UNL     1       1.191   8.668  19.665  0.00  0.00    +0.000 N 
ATOM      4  C   UNL     1       0.830   8.633  21.075  0.00  0.00    +0.000 C 
ATOM      5  C   UNL     1       1.333   9.885  21.803  0.00  0.00    +0.000 C 
ATOM      6  N   UNL     1       0.836  11.102  21.132  0.00  0.00    +0.000 N 
ATOM      7  C   UNL     1       1.154  11.163  19.691  0.00  0.00    +0.000 C 
ATOM      8  C   UNL     1       0.712   9.872  18.965  0.00  0.00    +0.000 C 
ENDROOT
BRANCH   6   9
ATOM      9  C   UNL     1      -0.034  11.959  21.768  0.00  0.00    +0.000 A 
ATOM     10  S   UNL     1      -1.355  11.396  22.750  0.00  0.00    +0.000 S 
ATOM     11  C   UNL     1      -1.677  12.987  23.266  0.00  0.00    +0.000 A 
ATOM     12  N   UNL     1      -0.899  13.928  22.785  0.00  0.00    +0.000 NA
ATOM     13  C   UNL     1      -0.052  13.360  21.840  0.00  0.00    +0.000 A 
BRANCH  13  14
ATOM     14  C   UNL     1       0.791  14.270  21.001  0.00  0.00    +0.000 A 
ATOM     15  N   UNL     1       0.381  14.962  19.956  0.00  0.00    +0.000 NA
ATOM     16  C   UNL     1       1.502  15.547  19.436  0.00  0.00    +0.000 A 
ATOM     17  C   UNL     1       1.631  16.377  18.314  0.00  0.00    +0.000 A 
ATOM     18  C   UNL     1       2.910  16.800  17.941  0.00  0.00    +0.000 A 
ATOM     19  C   UNL     1       4.036  16.393  18.664  0.00  0.00    +0.000 A 
ATOM     20  C   UNL     1       3.922  15.579  19.800  0.00  0.00    +0.000 A 
ATOM     21  C   UNL     1       2.631  15.193  20.165  0.00  0.00    +0.000 A 
ATOM     22  N   UNL     1       2.135  14.451  21.208  0.00  0.00    +0.000 N 
ATOM     23  H   UNL     1       2.663  14.004  21.943  0.00  0.00    +0.000 HD
ENDBRANCH  13  14
ENDBRANCH   6   9
BRANCH   2  24
ATOM     24  C   UNL     1       2.608   6.572  19.795  0.00  0.00    +0.000 C 
BRANCH  24  25
ATOM     25  N   UNL     1       2.768   5.347  19.002  0.00  0.00    +0.000 N 
ATOM     26  C   UNL     1       1.838   4.331  19.258  0.00  0.00    +0.000 C 
ATOM     27  O   UNL     1       0.940   4.428  20.095  0.00  0.00    +0.000 OA
ATOM     28  C   UNL     1       2.039   3.016  18.552  0.00  0.00    +0.000 C 
ATOM     29  C   UNL     1       2.591   3.202  17.159  0.00  0.00    +0.000 C 
ATOM     30  C   UNL     1       3.829   4.044  17.227  0.00  0.00    +0.000 A 
ATOM     31  C   UNL     1       4.888   3.789  16.343  0.00  0.00    +0.000 A 
ATOM     32  C   UNL     1       6.032   4.579  16.371  0.00  0.00    +0.000 A 
ATOM     33  C   UNL     1       6.117   5.630  17.277  0.00  0.00    +0.000 A 
ATOM     34  C   UNL     1       5.050   5.893  18.153  0.00  0.00    +0.000 A 
ATOM     35  C   UNL     1       3.884   5.118  18.136  0.00  0.00    +0.000 A 
ENDBRANCH  24  25
ENDBRANCH   2  24
TORSDOF 4
ENDMDL
MODEL 8
REMARK VINA RESULT:      -8.1      2.733      4.941
REMARK  Name = 
REMARK  4 active torsions:
REMARK  status: ('A' for Active; 'I' for Inactive)
REMARK    1  A    between atoms: C_2  and  C_3
REMARK    2  A    between atoms: C_3  and  N_4
REMARK    3  A    between atoms: N_18  and  C_19
REMARK    4  A    between atoms: C_23  and  C_24
REMARK                            x       y       z     vdW  Elec       q    Type
REMARK                         _______ _______ _______ _____ _____    ______ ____
ROOT
ATOM      1  O   UNL     1       1.053   8.832  17.306  0.00  0.00    +0.000 OA
ATOM      2  C   UNL     1       1.281   9.076  18.494  0.00  0.00    +0.000 C 
ATOM      3  N   UNL     1       0.473   9.957  19.192  0.00  0.00    +0.000 N 
ATOM      4  C   UNL     1       0.591  10.299  20.603  0.00  0.00    +0.000 C 
ATOM      5  C   UNL     1       0.835  11.802  20.786  0.00  0.00    +0.000 C 
ATOM      6  N   UNL     1      -0.224  12.578  20.112  0.00  0.00    +0.000 N 
ATOM      7  C   UNL     1      -0.399  12.240  18.685  0.00  0.00    +0.000 C 
ATOM      8  C   UNL     1      -0.574  10.717  18.489  0.00  0.00    +0.000 C 
ENDROOT
BRANCH   6   9
ATOM      9  C   UNL     1      -1.097  13.363  20.833  0.00  0.00    +0.000 A 
ATOM     10  S   UNL     1      -2.202  12.705  22.004  0.00  0.00    +0.000 S 
ATOM     11  C   UNL     1      -2.636  14.274  22.507  0.00  0.00    +0.000 A 
ATOM     12  N   UNL     1      -2.044  15.271  21.892  0.00  0.00    +0.000 NA
ATOM     13  C   UNL     1      -1.269  14.755  20.860  0.00  0.00    +0.000 A 
BRANCH  13  14
ATOM     14  C   UNL     1      -0.655  15.712  19.884  0.00  0.00    +0.000 A 
ATOM     15  N   UNL     1      -1.310  16.565  19.119  0.00  0.00    +0.000 NA
ATOM     16  C   UNL     1      -0.366  17.138  18.313  0.00  0.00    +0.000 A 
ATOM     17  C   UNL     1      -0.525  18.101  17.308  0.00  0.00    +0.000 A 
ATOM     18  C   UNL     1       0.597  18.484  16.568  0.00  0.00    +0.000 A 
ATOM     19  C   UNL     1       1.848  17.909  16.818  0.00  0.00    +0.000 A 
ATOM     20  C   UNL     1       2.027  16.959  17.832  0.00  0.00    +0.000 A 
ATOM     21  C   UNL     1       0.895  16.614  18.573  0.00  0.00    +0.000 A 
ATOM     22  N   UNL     1       0.693  15.773  19.639  0.00  0.00    +0.000 N 
ATOM     23  H   UNL     1       1.382  15.196  20.099  0.00  0.00    +0.000 HD
ENDBRANCH  13  14
ENDBRANCH   6   9
BRANCH   2  24
ATOM     24  C   UNL     1       2.485   8.419  19.216  0.00  0.00    +0.000 C 
BRANCH  24  25
ATOM     25  N   UNL     1       2.441   6.951  19.200  0.00  0.00    +0.000 N 
ATOM     26  C   UNL     1       1.757   6.353  20.265  0.00  0.00    +0.000 C 
ATOM     27  O   UNL     1       1.224   6.990  21.175  0.00  0.00    +0.000 OA
ATOM     28  C   UNL     1       1.790   4.849  20.350  0.00  0.00    +0.000 C 
ATOM     29  C   UNL     1       1.773   4.207  18.984  0.00  0.00    +0.000 C 
ATOM     30  C   UNL     1       2.877   4.786  18.152  0.00  0.00    +0.000 A 
ATOM     31  C   UNL     1       3.553   3.969  17.234  0.00  0.00    +0.000 A 
ATOM     32  C   UNL     1       4.558   4.498  16.432  0.00  0.00    +0.000 A 
ATOM     33  C   UNL     1       4.886   5.844  16.541  0.00  0.00    +0.000 A 
ATOM     34  C   UNL     1       4.198   6.665  17.451  0.00  0.00    +0.000 A 
ATOM     35  C   UNL     1       3.175   6.158  18.261  0.00  0.00    +0.000 A 
ENDBRANCH  24  25
ENDBRANCH   2  24
TORSDOF 4
ENDMDL
MODEL 9
REMARK VINA RESULT:      -8.1      2.960      4.776
REMARK  Name = 
REMARK  4 active torsions:
REMARK  status: ('A' for Active; 'I' for Inactive)
REMARK    1  A    between atoms: C_2  and  C_3
REMARK    2  A    between atoms: C_3  and  N_4
REMARK    3  A    between atoms: N_18  and  C_19
REMARK    4  A    between atoms: C_23  and  C_24
REMARK                            x       y       z     vdW  Elec       q    Type
REMARK                         _______ _______ _______ _____ _____    ______ ____
ROOT
ATOM      1  O   UNL     1       2.381   8.043  17.785  0.00  0.00    +0.000 OA
ATOM      2  C   UNL     1       2.155   7.857  18.984  0.00  0.00    +0.000 C 
ATOM      3  N   UNL     1       1.272   8.678  19.663  0.00  0.00    +0.000 N 
ATOM      4  C   UNL     1       0.873   8.546  21.057  0.00  0.00    +0.000 C 
ATOM      5  C   UNL     1       1.237   9.803  21.856  0.00  0.00    +0.000 C 
ATOM      6  N   UNL     1       0.651  11.000  21.222  0.00  0.00    +0.000 N 
ATOM      7  C   UNL     1       1.006  11.156  19.796  0.00  0.00    +0.000 C 
ATOM      8  C   UNL     1       0.707   9.866  19.001  0.00  0.00    +0.000 C 
ENDROOT
BRANCH   6   9
ATOM      9  C   UNL     1      -0.313  11.744  21.864  0.00  0.00    +0.000 A 
ATOM     10  S   UNL     1      -1.416  11.055  23.019  0.00  0.00    +0.000 S 
ATOM     11  C   UNL     1      -1.995  12.606  23.423  0.00  0.00    +0.000 A 
ATOM     12  N   UNL     1      -1.455  13.617  22.785  0.00  0.00    +0.000 NA
ATOM     13  C   UNL     1      -0.595  13.118  21.813  0.00  0.00    +0.000 A 
BRANCH  13  14
ATOM     14  C   UNL     1      -0.013  14.074  20.817  0.00  0.00    +0.000 A 
ATOM     15  N   UNL     1       1.256  14.423  20.728  0.00  0.00    +0.000 NA
ATOM     16  C   UNL     1       1.305  15.395  19.768  0.00  0.00    +0.000 A 
ATOM     17  C   UNL     1       2.408  16.117  19.292  0.00  0.00    +0.000 A 
ATOM     18  C   UNL     1       2.190  17.119  18.342  0.00  0.00    +0.000 A 
ATOM     19  C   UNL     1       0.898  17.402  17.887  0.00  0.00    +0.000 A 
ATOM     20  C   UNL     1      -0.213  16.677  18.338  0.00  0.00    +0.000 A 
ATOM     21  C   UNL     1       0.037  15.665  19.267  0.00  0.00    +0.000 A 
ATOM     22  N   UNL     1      -0.770  14.745  19.890  0.00  0.00    +0.000 N 
ATOM     23  H   UNL     1      -1.769  14.645  19.791  0.00  0.00    +0.000 HD
ENDBRANCH  13  14
ENDBRANCH   6   9
BRANCH   2  24
ATOM     24  C   UNL     1       2.870   6.715  19.751  0.00  0.00    +0.000 C 
BRANCH  24  25
ATOM     25  N   UNL     1       2.957   5.466  18.985  0.00  0.00    +0.000 N 
ATOM     26  C   UNL     1       2.024   4.478  19.325  0.00  0.00    +0.000 C 
ATOM     27  O   UNL     1       1.180   4.618  20.211  0.00  0.00    +0.000 OA
ATOM     28  C   UNL     1       2.155   3.140  18.645  0.00  0.00    +0.000 C 
ATOM     29  C   UNL     1       2.625   3.277  17.218  0.00  0.00    +0.000 C 
ATOM     30  C   UNL     1       3.882   4.092  17.187  0.00  0.00    +0.000 A 
ATOM     31  C   UNL     1       4.880   3.790  16.249  0.00  0.00    +0.000 A 
ATOM     32  C   UNL     1       6.039   4.555  16.186  0.00  0.00    +0.000 A 
ATOM     33  C   UNL     1       6.201   5.627  17.054  0.00  0.00    +0.000 A 
ATOM     34  C   UNL     1       5.195   5.938  17.985  0.00  0.00    +0.000 A 
ATOM     35  C   UNL     1       4.014   5.189  18.060  0.00  0.00    +0.000 A 
ENDBRANCH  24  25
ENDBRANCH   2  24
TORSDOF 4
ENDMDL
