MODEL 1
REMARK VINA RESULT:      -8.1      0.000      0.000
REMARK  Name = 
REMARK  10 active torsions:
REMARK  status: ('A' for Active; 'I' for Inactive)
REMARK    1  A    between atoms: C_1  and  C_2
REMARK    2  A    between atoms: C_2  and  C_3
REMARK    3  A    between atoms: C_3  and  N_4
REMARK    4  A    between atoms: C_6  and  C_7
REMARK    5  A    between atoms: C_10  and  O_11
REMARK    6  A    between atoms: O_11  and  C_12
REMARK    7  A    between atoms: C_12  and  C_13
REMARK    8  A    between atoms: C_13  and  C_14
REMARK    9  A    between atoms: C_14  and  N_15
REMARK   10  A    between atoms: C_19  and  C_20
REMARK                            x       y       z     vdW  Elec       q    Type
REMARK                         _______ _______ _______ _____ _____    ______ ____
ROOT
ATOM      1  C   UNL     1       2.429   7.227  19.271  0.00  0.00    +0.000 A 
ATOM      2  C   UNL     1       2.481   7.908  18.052  0.00  0.00    +0.000 A 
ATOM      3  C   UNL     1       1.867   9.151  17.915  0.00  0.00    +0.000 A 
ATOM      4  C   UNL     1       1.190   9.734  18.991  0.00  0.00    +0.000 A 
ATOM      5  C   UNL     1       1.145   9.063  20.211  0.00  0.00    +0.000 A 
ATOM      6  C   UNL     1       1.786   7.828  20.360  0.00  0.00    +0.000 A 
ENDROOT
BRANCH   1   9
ATOM      7  N   UNL     1       5.066   4.662  18.929  0.00  0.00    +0.000 N 
ATOM      8  N   UNL     1       4.341   5.848  18.858  0.00  0.00    +0.000 NA
ATOM      9  C   UNL     1       3.129   5.911  19.349  0.00  0.00    +0.000 A 
ATOM     10  C   UNL     1       2.532   4.726  19.926  0.00  0.00    +0.000 A 
ATOM     11  S   UNL     1       0.918   4.537  20.426  0.00  0.00    +0.000 S 
ATOM     12  C   UNL     1       1.210   2.952  20.992  0.00  0.00    +0.000 A 
ATOM     13  C   UNL     1       2.486   2.531  20.691  0.00  0.00    +0.000 A 
ATOM     14  C   UNL     1       3.244   3.555  20.039  0.00  0.00    +0.000 A 
ATOM     15  C   UNL     1       4.603   3.478  19.527  0.00  0.00    +0.000 A 
ATOM     16  O   UNL     1       5.258   2.443  19.606  0.00  0.00    +0.000 OA
BRANCH   7  17
ATOM     17  C   UNL     1       6.398   4.692  18.334  0.00  0.00    +0.000 C 
BRANCH  17  19
ATOM     18  C   UNL     1       7.757   6.802  18.103  0.00  0.00    +0.000 C 
ATOM     19  C   UNL     1       7.323   5.684  19.039  0.00  0.00    +0.000 C 
ENDBRANCH  17  19
ENDBRANCH   7  17
ENDBRANCH   1   9
BRANCH   4  20
ATOM     20  O   UNL     1       0.561  10.955  18.959  0.00  0.00    +0.000 OA
BRANCH  20  21
ATOM     21  C   UNL     1      -0.602  11.020  19.784  0.00  0.00    +0.000 C 
BRANCH  21  22
ATOM     22  C   UNL     1      -1.512  12.158  19.352  0.00  0.00    +0.000 C 
BRANCH  22  23
ATOM     23  C   UNL     1      -2.824  11.597  18.785  0.00  0.00    +0.000 C 
BRANCH  23  24
ATOM     24  N   UNL     1      -2.807  11.472  17.329  0.00  0.00    +0.000 NA
ATOM     25  C   UNL     1      -2.067  10.309  16.827  0.00  0.00    +0.000 C 
ATOM     26  C   UNL     1      -2.992   9.608  15.852  0.00  0.00    +0.000 C 
ATOM     27  C   UNL     1      -3.905  10.717  15.379  0.00  0.00    +0.000 C 
ATOM     28  C   UNL     1      -4.101  11.571  16.630  0.00  0.00    +0.000 C 
ATOM     29  C   UNL     1      -5.330  11.115  17.423  0.00  0.00    +0.000 C 
ENDBRANCH  23  24
ENDBRANCH  22  23
ENDBRANCH  21  22
ENDBRANCH  20  21
ENDBRANCH   4  20
TORSDOF 8
ENDMDL
MODEL 2
REMARK VINA RESULT:      -8.0      1.972      3.562
REMARK  Name = 
REMARK  10 active torsions:
REMARK  status: ('A' for Active; 'I' for Inactive)
REMARK    1  A    between atoms: C_1  and  C_2
REMARK    2  A    between atoms: C_2  and  C_3
REMARK    3  A    between atoms: C_3  and  N_4
REMARK    4  A    between atoms: C_6  and  C_7
REMARK    5  A    between atoms: C_10  and  O_11
REMARK    6  A    between atoms: O_11  and  C_12
REMARK    7  A    between atoms: C_12  and  C_13
REMARK    8  A    between atoms: C_13  and  C_14
REMARK    9  A    between atoms: C_14  and  N_15
REMARK   10  A    between atoms: C_19  and  C_20
REMARK                            x       y       z     vdW  Elec       q    Type
REMARK                         _______ _______ _______ _____ _____    ______ ____
ROOT
ATOM      1  C   UNL     1       2.158   7.248  18.887  0.00  0.00    +0.000 A 
ATOM      2  C   UNL     1       1.806   7.491  20.217  0.00  0.00    +0.000 A 
ATOM      3  C   UNL     1       1.364   8.753  20.608  0.00  0.00    +0.000 A 
ATOM      4  C   UNL     1       1.267   9.793  19.679  0.00  0.00    +0.000 A 
ATOM      5  C   UNL     1       1.607   9.552  18.349  0.00  0.00    +0.000 A 
ATOM      6  C   UNL     1       2.025   8.278  17.949  0.00  0.00    +0.000 A 
ENDROOT
BRANCH   1   9
ATOM      7  N   UNL     1       2.264   3.558  18.751  0.00  0.00    +0.000 N 
ATOM      8  N   UNL     1       1.928   4.873  19.062  0.00  0.00    +0.000 NA
ATOM      9  C   UNL     1       2.601   5.866  18.539  0.00  0.00    +0.000 A 
ATOM     10  C   UNL     1       3.726   5.586  17.673  0.00  0.00    +0.000 A 
ATOM     11  S   UNL     1       4.848   6.709  17.062  0.00  0.00    +0.000 S 
ATOM     12  C   UNL     1       5.657   5.508  16.157  0.00  0.00    +0.000 A 
ATOM     13  C   UNL     1       5.155   4.251  16.414  0.00  0.00    +0.000 A 
ATOM     14  C   UNL     1       4.051   4.296  17.325  0.00  0.00    +0.000 A 
ATOM     15  C   UNL     1       3.293   3.183  17.872  0.00  0.00    +0.000 A 
ATOM     16  O   UNL     1       3.567   2.021  17.586  0.00  0.00    +0.000 OA
BRANCH   7  17
ATOM     17  C   UNL     1       1.465   2.525  19.403  0.00  0.00    +0.000 C 
BRANCH  17  19
ATOM     18  C   UNL     1       2.397   2.666  21.741  0.00  0.00    +0.000 C 
ATOM     19  C   UNL     1       1.169   2.862  20.865  0.00  0.00    +0.000 C 
ENDBRANCH  17  19
ENDBRANCH   7  17
ENDBRANCH   1   9
BRANCH   4  20
ATOM     20  O   UNL     1       0.837  11.066  19.962  0.00  0.00    +0.000 OA
BRANCH  20  21
ATOM     21  C   UNL     1       0.879  11.947  18.840  0.00  0.00    +0.000 C 
BRANCH  21  22
ATOM     22  C   UNL     1      -0.390  12.779  18.753  0.00  0.00    +0.000 C 
BRANCH  22  23
ATOM     23  C   UNL     1      -1.315  12.217  17.664  0.00  0.00    +0.000 C 
BRANCH  23  24
ATOM     24  N   UNL     1      -2.272  11.239  18.179  0.00  0.00    +0.000 NA
ATOM     25  C   UNL     1      -3.486  11.823  18.758  0.00  0.00    +0.000 C 
ATOM     26  C   UNL     1      -4.652  11.100  18.114  0.00  0.00    +0.000 C 
ATOM     27  C   UNL     1      -4.059   9.764  17.722  0.00  0.00    +0.000 C 
ATOM     28  C   UNL     1      -2.639  10.123  17.289  0.00  0.00    +0.000 C 
ATOM     29  C   UNL     1      -2.575  10.412  15.787  0.00  0.00    +0.000 C 
ENDBRANCH  23  24
ENDBRANCH  22  23
ENDBRANCH  21  22
ENDBRANCH  20  21
ENDBRANCH   4  20
TORSDOF 8
ENDMDL
MODEL 3
REMARK VINA RESULT:      -7.9      2.299      8.492
REMARK  Name = 
REMARK  10 active torsions:
REMARK  status: ('A' for Active; 'I' for Inactive)
REMARK    1  A    between atoms: C_1  and  C_2
REMARK    2  A    between atoms: C_2  and  C_3
REMARK    3  A    between atoms: C_3  and  N_4
REMARK    4  A    between atoms: C_6  and  C_7
REMARK    5  A    between atoms: C_10  and  O_11
REMARK    6  A    between atoms: O_11  and  C_12
REMARK    7  A    between atoms: C_12  and  C_13
REMARK    8  A    between atoms: C_13  and  C_14
REMARK    9  A    between atoms: C_14  and  N_15
REMARK   10  A    between atoms: C_19  and  C_20
REMARK                            x       y       z     vdW  Elec       q    Type
REMARK                         _______ _______ _______ _____ _____    ______ ____
ROOT
ATOM      1  C   UNL     1       1.740   8.532  18.963  0.00  0.00    +0.000 A 
ATOM      2  C   UNL     1       1.989   7.404  19.748  0.00  0.00    +0.000 A 
ATOM      3  C   UNL     1       2.937   6.465  19.348  0.00  0.00    +0.000 A 
ATOM      4  C   UNL     1       3.651   6.636  18.158  0.00  0.00    +0.000 A 
ATOM      5  C   UNL     1       3.413   7.765  17.377  0.00  0.00    +0.000 A 
ATOM      6  C   UNL     1       2.482   8.724  17.791  0.00  0.00    +0.000 A 
ENDROOT
BRANCH   1   9
ATOM      7  N   UNL     1      -0.880  11.138  18.974  0.00  0.00    +0.000 N 
ATOM      8  N   UNL     1       0.103  10.235  18.577  0.00  0.00    +0.000 NA
ATOM      9  C   UNL     1       0.726   9.506  19.467  0.00  0.00    +0.000 A 
ATOM     10  C   UNL     1       0.419   9.677  20.870  0.00  0.00    +0.000 A 
ATOM     11  S   UNL     1       1.245   8.990  22.188  0.00  0.00    +0.000 S 
ATOM     12  C   UNL     1       0.154   9.668  23.312  0.00  0.00    +0.000 A 
ATOM     13  C   UNL     1      -0.753  10.506  22.700  0.00  0.00    +0.000 A 
ATOM     14  C   UNL     1      -0.574  10.537  21.280  0.00  0.00    +0.000 A 
ATOM     15  C   UNL     1      -1.298  11.330  20.301  0.00  0.00    +0.000 A 
ATOM     16  O   UNL     1      -2.182  12.112  20.639  0.00  0.00    +0.000 OA
BRANCH   7  17
ATOM     17  C   UNL     1      -1.498  11.917  17.906  0.00  0.00    +0.000 C 
BRANCH  17  19
ATOM     18  C   UNL     1      -3.644  10.656  17.508  0.00  0.00    +0.000 C 
ATOM     19  C   UNL     1      -2.288  11.039  16.935  0.00  0.00    +0.000 C 
ENDBRANCH  17  19
ENDBRANCH   7  17
ENDBRANCH   1   9
BRANCH   4  20
ATOM     20  O   UNL     1       4.608   5.774  17.682  0.00  0.00    +0.000 OA
BRANCH  20  21
ATOM     21  C   UNL     1       4.075   4.553  17.169  0.00  0.00    +0.000 C 
BRANCH  21  22
ATOM     22  C   UNL     1       4.500   3.372  18.026  0.00  0.00    +0.000 C 
BRANCH  22  23
ATOM     23  C   UNL     1       3.422   2.279  17.986  0.00  0.00    +0.000 C 
BRANCH  23  24
ATOM     24  N   UNL     1       2.800   2.044  19.288  0.00  0.00    +0.000 NA
ATOM     25  C   UNL     1       3.539   2.604  20.424  0.00  0.00    +0.000 C 
ATOM     26  C   UNL     1       2.533   3.398  21.232  0.00  0.00    +0.000 C 
ATOM     27  C   UNL     1       1.215   2.737  20.895  0.00  0.00    +0.000 C 
ATOM     28  C   UNL     1       1.370   2.374  19.419  0.00  0.00    +0.000 C 
ATOM     29  C   UNL     1       0.854   3.498  18.517  0.00  0.00    +0.000 C 
ENDBRANCH  23  24
ENDBRANCH  22  23
ENDBRANCH  21  22
ENDBRANCH  20  21
ENDBRANCH   4  20
TORSDOF 8
ENDMDL
MODEL 4
REMARK VINA RESULT:      -7.8      3.172      4.346
REMARK  Name = 
REMARK  10 active torsions:
REMARK  status: ('A' for Active; 'I' for Inactive)
REMARK    1  A    between atoms: C_1  and  C_2
REMARK    2  A    between atoms: C_2  and  C_3
REMARK    3  A    between atoms: C_3  and  N_4
REMARK    4  A    between atoms: C_6  and  C_7
REMARK    5  A    between atoms: C_10  and  O_11
REMARK    6  A    between atoms: O_11  and  C_12
REMARK    7  A    between atoms: C_12  and  C_13
REMARK    8  A    between atoms: C_13  and  C_14
REMARK    9  A    between atoms: C_14  and  N_15
REMARK   10  A    between atoms: C_19  and  C_20
REMARK                            x       y       z     vdW  Elec       q    Type
REMARK                         _______ _______ _______ _____ _____    ______ ____
ROOT
ATOM      1  C   UNL     1       2.553   7.571  18.572  0.00  0.00    +0.000 A 
ATOM      2  C   UNL     1       2.210   7.430  19.919  0.00  0.00    +0.000 A 
ATOM      3  C   UNL     1       1.320   8.320  20.515  0.00  0.00    +0.000 A 
ATOM      4  C   UNL     1       0.759   9.367  19.778  0.00  0.00    +0.000 A 
ATOM      5  C   UNL     1       1.090   9.506  18.431  0.00  0.00    +0.000 A 
ATOM      6  C   UNL     1       1.961   8.595  17.823  0.00  0.00    +0.000 A 
ENDROOT
BRANCH   1   9
ATOM      7  N   UNL     1       5.618   6.101  17.125  0.00  0.00    +0.000 N 
ATOM      8  N   UNL     1       4.678   6.992  17.636  0.00  0.00    +0.000 NA
ATOM      9  C   UNL     1       3.494   6.566  17.997  0.00  0.00    +0.000 A 
ATOM     10  C   UNL     1       3.155   5.170  17.819  0.00  0.00    +0.000 A 
ATOM     11  S   UNL     1       1.625   4.457  18.026  0.00  0.00    +0.000 S 
ATOM     12  C   UNL     1       2.234   2.897  17.694  0.00  0.00    +0.000 A 
ATOM     13  C   UNL     1       3.556   2.937  17.310  0.00  0.00    +0.000 A 
ATOM     14  C   UNL     1       4.081   4.268  17.351  0.00  0.00    +0.000 A 
ATOM     15  C   UNL     1       5.411   4.720  16.976  0.00  0.00    +0.000 A 
ATOM     16  O   UNL     1       6.254   3.938  16.546  0.00  0.00    +0.000 OA
BRANCH   7  17
ATOM     17  C   UNL     1       6.898   6.681  16.733  0.00  0.00    +0.000 C 
BRANCH  17  19
ATOM     18  C   UNL     1       8.041   8.659  17.799  0.00  0.00    +0.000 C 
ATOM     19  C   UNL     1       7.697   7.183  17.937  0.00  0.00    +0.000 C 
ENDBRANCH  17  19
ENDBRANCH   7  17
ENDBRANCH   1   9
BRANCH   4  20
ATOM     20  O   UNL     1      -0.131  10.291  20.270  0.00  0.00    +0.000 OA
BRANCH  20  21
ATOM     21  C   UNL     1       0.335  10.969  21.436  0.00  0.00    +0.000 C 
BRANCH  21  22
ATOM     22  C   UNL     1      -0.807  11.239  22.401  0.00  0.00    +0.000 C 
BRANCH  22  23
ATOM     23  C   UNL     1      -0.909  12.744  22.687  0.00  0.00    +0.000 C 
BRANCH  23  24
ATOM     24  N   UNL     1      -2.289  13.206  22.827  0.00  0.00    +0.000 NA
ATOM     25  C   UNL     1      -3.208  12.211  23.389  0.00  0.00    +0.000 C 
ATOM     26  C   UNL     1      -3.943  12.904  24.518  0.00  0.00    +0.000 C 
ATOM     27  C   UNL     1      -3.883  14.365  24.129  0.00  0.00    +0.000 C 
ATOM     28  C   UNL     1      -2.500  14.503  23.494  0.00  0.00    +0.000 C 
ATOM     29  C   UNL     1      -1.451  14.903  24.535  0.00  0.00    +0.000 C 
ENDBRANCH  23  24
ENDBRANCH  22  23
ENDBRANCH  21  22
ENDBRANCH  20  21
ENDBRANCH   4  20
TORSDOF 8
ENDMDL
MODEL 5
REMARK VINA RESULT:      -7.8      3.124      4.145
REMARK  Name = 
REMARK  10 active torsions:
REMARK  status: ('A' for Active; 'I' for Inactive)
REMARK    1  A    between atoms: C_1  and  C_2
REMARK    2  A    between atoms: C_2  and  C_3
REMARK    3  A    between atoms: C_3  and  N_4
REMARK    4  A    between atoms: C_6  and  C_7
REMARK    5  A    between atoms: C_10  and  O_11
REMARK    6  A    between atoms: O_11  and  C_12
REMARK    7  A    between atoms: C_12  and  C_13
REMARK    8  A    between atoms: C_13  and  C_14
REMARK    9  A    between atoms: C_14  and  N_15
REMARK   10  A    between atoms: C_19  and  C_20
REMARK                            x       y       z     vdW  Elec       q    Type
REMARK                         _______ _______ _______ _____ _____    ______ ____
ROOT
ATOM      1  C   UNL     1       2.480   7.435  18.716  0.00  0.00    +0.000 A 
ATOM      2  C   UNL     1       2.032   8.496  17.925  0.00  0.00    +0.000 A 
ATOM      3  C   UNL     1       1.219   9.486  18.472  0.00  0.00    +0.000 A 
ATOM      4  C   UNL     1       0.838   9.432  19.816  0.00  0.00    +0.000 A 
ATOM      5  C   UNL     1       1.291   8.381  20.612  0.00  0.00    +0.000 A 
ATOM      6  C   UNL     1       2.132   7.402  20.071  0.00  0.00    +0.000 A 
ENDROOT
BRANCH   1   9
ATOM      7  N   UNL     1       5.406   5.955  17.012  0.00  0.00    +0.000 N 
ATOM      8  N   UNL     1       4.514   6.849  17.599  0.00  0.00    +0.000 NA
ATOM      9  C   UNL     1       3.367   6.426  18.066  0.00  0.00    +0.000 A 
ATOM     10  C   UNL     1       3.014   5.029  17.927  0.00  0.00    +0.000 A 
ATOM     11  S   UNL     1       1.508   4.319  18.273  0.00  0.00    +0.000 S 
ATOM     12  C   UNL     1       2.085   2.756  17.897  0.00  0.00    +0.000 A 
ATOM     13  C   UNL     1       3.369   2.793  17.398  0.00  0.00    +0.000 A 
ATOM     14  C   UNL     1       3.895   4.124  17.384  0.00  0.00    +0.000 A 
ATOM     15  C   UNL     1       5.186   4.574  16.890  0.00  0.00    +0.000 A 
ATOM     16  O   UNL     1       5.989   3.789  16.392  0.00  0.00    +0.000 OA
BRANCH   7  17
ATOM     17  C   UNL     1       6.646   6.533  16.505  0.00  0.00    +0.000 C 
BRANCH  17  19
ATOM     18  C   UNL     1       7.840   6.278  18.711  0.00  0.00    +0.000 C 
ATOM     19  C   UNL     1       7.443   7.241  17.602  0.00  0.00    +0.000 C 
ENDBRANCH  17  19
ENDBRANCH   7  17
ENDBRANCH   1   9
BRANCH   4  20
ATOM     20  O   UNL     1       0.047  10.359  20.450  0.00  0.00    +0.000 OA
BRANCH  20  21
ATOM     21  C   UNL     1       0.293  10.458  21.852  0.00  0.00    +0.000 C 
BRANCH  21  22
ATOM     22  C   UNL     1      -0.892  11.085  22.570  0.00  0.00    +0.000 C 
BRANCH  22  23
ATOM     23  C   UNL     1      -0.944  12.592  22.280  0.00  0.00    +0.000 C 
BRANCH  23  24
ATOM     24  N   UNL     1      -2.268  13.170  22.506  0.00  0.00    +0.000 NA
ATOM     25  C   UNL     1      -3.244  12.244  23.089  0.00  0.00    +0.000 C 
ATOM     26  C   UNL     1      -3.854  12.963  24.275  0.00  0.00    +0.000 C 
ATOM     27  C   UNL     1      -3.681  14.424  23.923  0.00  0.00    +0.000 C 
ATOM     28  C   UNL     1      -2.326  14.459  23.218  0.00  0.00    +0.000 C 
ATOM     29  C   UNL     1      -1.194  14.730  24.212  0.00  0.00    +0.000 C 
ENDBRANCH  23  24
ENDBRANCH  22  23
ENDBRANCH  21  22
ENDBRANCH  20  21
ENDBRANCH   4  20
TORSDOF 8
ENDMDL
MODEL 6
REMARK VINA RESULT:      -7.8      2.829      3.665
REMARK  Name = 
REMARK  10 active torsions:
REMARK  status: ('A' for Active; 'I' for Inactive)
REMARK    1  A    between atoms: C_1  and  C_2
REMARK    2  A    between atoms: C_2  and  C_3
REMARK    3  A    between atoms: C_3  and  N_4
REMARK    4  A    between atoms: C_6  and  C_7
REMARK    5  A    between atoms: C_10  and  O_11
REMARK    6  A    between atoms: O_11  and  C_12
REMARK    7  A    between atoms: C_12  and  C_13
REMARK    8  A    between atoms: C_13  and  C_14
REMARK    9  A    between atoms: C_14  and  N_15
REMARK   10  A    between atoms: C_19  and  C_20
REMARK                            x       y       z     vdW  Elec       q    Type
REMARK                         _______ _______ _______ _____ _____    ______ ____
ROOT
ATOM      1  C   UNL     1       2.449   7.519  18.665  0.00  0.00    +0.000 A 
ATOM      2  C   UNL     1       1.989   8.529  17.816  0.00  0.00    +0.000 A 
ATOM      3  C   UNL     1       1.163   9.537  18.306  0.00  0.00    +0.000 A 
ATOM      4  C   UNL     1       0.780   9.554  19.651  0.00  0.00    +0.000 A 
ATOM      5  C   UNL     1       1.245   8.555  20.503  0.00  0.00    +0.000 A 
ATOM      6  C   UNL     1       2.098   7.557  20.020  0.00  0.00    +0.000 A 
ENDROOT
BRANCH   1   9
ATOM      7  N   UNL     1       5.414   5.975  17.090  0.00  0.00    +0.000 N 
ATOM      8  N   UNL     1       4.510   6.891  17.623  0.00  0.00    +0.000 NA
ATOM      9  C   UNL     1       3.349   6.486  18.074  0.00  0.00    +0.000 A 
ATOM     10  C   UNL     1       2.995   5.087  17.973  0.00  0.00    +0.000 A 
ATOM     11  S   UNL     1       1.479   4.391  18.303  0.00  0.00    +0.000 S 
ATOM     12  C   UNL     1       2.061   2.815  17.997  0.00  0.00    +0.000 A 
ATOM     13  C   UNL     1       3.357   2.833  17.530  0.00  0.00    +0.000 A 
ATOM     14  C   UNL     1       3.888   4.161  17.485  0.00  0.00    +0.000 A 
ATOM     15  C   UNL     1       5.193   4.591  17.010  0.00  0.00    +0.000 A 
ATOM     16  O   UNL     1       6.005   3.787  16.560  0.00  0.00    +0.000 OA
BRANCH   7  17
ATOM     17  C   UNL     1       6.669   6.532  16.596  0.00  0.00    +0.000 C 
BRANCH  17  19
ATOM     18  C   UNL     1       7.887   6.292  18.790  0.00  0.00    +0.000 C 
ATOM     19  C   UNL     1       7.451   7.253  17.695  0.00  0.00    +0.000 C 
ENDBRANCH  17  19
ENDBRANCH   7  17
ENDBRANCH   1   9
BRANCH   4  20
ATOM     20  O   UNL     1      -0.023  10.506  20.230  0.00  0.00    +0.000 OA
BRANCH  20  21
ATOM     21  C   UNL     1      -0.313  10.249  21.604  0.00  0.00    +0.000 C 
BRANCH  21  22
ATOM     22  C   UNL     1      -0.512  11.547  22.370  0.00  0.00    +0.000 C 
BRANCH  22  23
ATOM     23  C   UNL     1      -1.922  11.590  22.975  0.00  0.00    +0.000 C 
BRANCH  23  24
ATOM     24  N   UNL     1      -2.688  12.762  22.552  0.00  0.00    +0.000 NA
ATOM     25  C   UNL     1      -3.391  12.600  21.276  0.00  0.00    +0.000 C 
ATOM     26  C   UNL     1      -4.823  13.028  21.525  0.00  0.00    +0.000 C 
ATOM     27  C   UNL     1      -4.704  13.984  22.691  0.00  0.00    +0.000 C 
ATOM     28  C   UNL     1      -3.597  13.364  23.542  0.00  0.00    +0.000 C 
ATOM     29  C   UNL     1      -4.176  12.411  24.591  0.00  0.00    +0.000 C 
ENDBRANCH  23  24
ENDBRANCH  22  23
ENDBRANCH  21  22
ENDBRANCH  20  21
ENDBRANCH   4  20
TORSDOF 8
ENDMDL
MODEL 7
REMARK VINA RESULT:      -7.8      2.421      3.707
REMARK  Name = 
REMARK  10 active torsions:
REMARK  status: ('A' for Active; 'I' for Inactive)
REMARK    1  A    between atoms: C_1  and  C_2
REMARK    2  A    between atoms: C_2  and  C_3
REMARK    3  A    between atoms: C_3  and  N_4
REMARK    4  A    between atoms: C_6  and  C_7
REMARK    5  A    between atoms: C_10  and  O_11
REMARK    6  A    between atoms: O_11  and  C_12
REMARK    7  A    between atoms: C_12  and  C_13
REMARK    8  A    between atoms: C_13  and  C_14
REMARK    9  A    between atoms: C_14  and  N_15
REMARK   10  A    between atoms: C_19  and  C_20
REMARK                            x       y       z     vdW  Elec       q    Type
REMARK                         _______ _______ _______ _____ _____    ______ ____
ROOT
ATOM      1  C   UNL     1       2.582   7.463  18.498  0.00  0.00    +0.000 A 
ATOM      2  C   UNL     1       2.215   8.518  17.659  0.00  0.00    +0.000 A 
ATOM      3  C   UNL     1       1.390   9.537  18.131  0.00  0.00    +0.000 A 
ATOM      4  C   UNL     1       0.917   9.519  19.446  0.00  0.00    +0.000 A 
ATOM      5  C   UNL     1       1.288   8.473  20.289  0.00  0.00    +0.000 A 
ATOM      6  C   UNL     1       2.140   7.464  19.827  0.00  0.00    +0.000 A 
ENDROOT
BRANCH   1   9
ATOM      7  N   UNL     1       5.576   5.886  17.014  0.00  0.00    +0.000 N 
ATOM      8  N   UNL     1       4.668   6.811  17.522  0.00  0.00    +0.000 NA
ATOM      9  C   UNL     1       3.487   6.421  17.930  0.00  0.00    +0.000 A 
ATOM     10  C   UNL     1       3.116   5.028  17.806  0.00  0.00    +0.000 A 
ATOM     11  S   UNL     1       1.579   4.353  18.078  0.00  0.00    +0.000 S 
ATOM     12  C   UNL     1       2.147   2.771  17.779  0.00  0.00    +0.000 A 
ATOM     13  C   UNL     1       3.459   2.772  17.358  0.00  0.00    +0.000 A 
ATOM     14  C   UNL     1       4.011   4.092  17.341  0.00  0.00    +0.000 A 
ATOM     15  C   UNL     1       5.338   4.506  16.915  0.00  0.00    +0.000 A 
ATOM     16  O   UNL     1       6.153   3.694  16.487  0.00  0.00    +0.000 OA
BRANCH   7  17
ATOM     17  C   UNL     1       6.855   6.427  16.568  0.00  0.00    +0.000 C 
BRANCH  17  19
ATOM     18  C   UNL     1       7.941   6.312  18.840  0.00  0.00    +0.000 C 
ATOM     19  C   UNL     1       7.566   7.212  17.673  0.00  0.00    +0.000 C 
ENDBRANCH  17  19
ENDBRANCH   7  17
ENDBRANCH   1   9
BRANCH   4  20
ATOM     20  O   UNL     1       0.107  10.476  20.006  0.00  0.00    +0.000 OA
BRANCH  20  21
ATOM     21  C   UNL     1      -1.125  10.662  19.309  0.00  0.00    +0.000 C 
BRANCH  21  22
ATOM     22  C   UNL     1      -1.090  11.930  18.472  0.00  0.00    +0.000 C 
BRANCH  22  23
ATOM     23  C   UNL     1      -0.686  13.126  19.345  0.00  0.00    +0.000 C 
BRANCH  23  24
ATOM     24  N   UNL     1       0.131  14.104  18.629  0.00  0.00    +0.000 NA
ATOM     25  C   UNL     1      -0.176  15.502  18.949  0.00  0.00    +0.000 C 
ATOM     26  C   UNL     1       1.149  16.161  19.277  0.00  0.00    +0.000 C 
ATOM     27  C   UNL     1       2.154  15.318  18.522  0.00  0.00    +0.000 C 
ATOM     28  C   UNL     1       1.590  13.904  18.646  0.00  0.00    +0.000 C 
ATOM     29  C   UNL     1       2.156  13.190  19.877  0.00  0.00    +0.000 C 
ENDBRANCH  23  24
ENDBRANCH  22  23
ENDBRANCH  21  22
ENDBRANCH  20  21
ENDBRANCH   4  20
TORSDOF 8
ENDMDL
MODEL 8
REMARK VINA RESULT:      -7.8      2.678      4.553
REMARK  Name = 
REMARK  10 active torsions:
REMARK  status: ('A' for Active; 'I' for Inactive)
REMARK    1  A    between atoms: C_1  and  C_2
REMARK    2  A    between atoms: C_2  and  C_3
REMARK    3  A    between atoms: C_3  and  N_4
REMARK    4  A    between atoms: C_6  and  C_7
REMARK    5  A    between atoms: C_10  and  O_11
REMARK    6  A    between atoms: O_11  and  C_12
REMARK    7  A    between atoms: C_12  and  C_13
REMARK    8  A    between atoms: C_13  and  C_14
REMARK    9  A    between atoms: C_14  and  N_15
REMARK   10  A    between atoms: C_19  and  C_20
REMARK                            x       y       z     vdW  Elec       q    Type
REMARK                         _______ _______ _______ _____ _____    ______ ____
ROOT
ATOM      1  C   UNL     1       2.238   7.256  18.657  0.00  0.00    +0.000 A 
ATOM      2  C   UNL     1       1.885   7.560  19.974  0.00  0.00    +0.000 A 
ATOM      3  C   UNL     1       1.434   8.836  20.304  0.00  0.00    +0.000 A 
ATOM      4  C   UNL     1       1.329   9.830  19.326  0.00  0.00    +0.000 A 
ATOM      5  C   UNL     1       1.670   9.528  18.009  0.00  0.00    +0.000 A 
ATOM      6  C   UNL     1       2.096   8.239  17.670  0.00  0.00    +0.000 A 
ENDROOT
BRANCH   1   9
ATOM      7  N   UNL     1       2.343   3.563  18.662  0.00  0.00    +0.000 N 
ATOM      8  N   UNL     1       1.999   4.888  18.912  0.00  0.00    +0.000 NA
ATOM      9  C   UNL     1       2.690   5.862  18.375  0.00  0.00    +0.000 A 
ATOM     10  C   UNL     1       3.842   5.550  17.557  0.00  0.00    +0.000 A 
ATOM     11  S   UNL     1       4.984   6.649  16.942  0.00  0.00    +0.000 S 
ATOM     12  C   UNL     1       5.821   5.415  16.109  0.00  0.00    +0.000 A 
ATOM     13  C   UNL     1       5.309   4.168  16.396  0.00  0.00    +0.000 A 
ATOM     14  C   UNL     1       4.177   4.247  17.268  0.00  0.00    +0.000 A 
ATOM     15  C   UNL     1       3.399   3.155  17.831  0.00  0.00    +0.000 A 
ATOM     16  O   UNL     1       3.681   1.983  17.598  0.00  0.00    +0.000 OA
BRANCH   7  17
ATOM     17  C   UNL     1       1.522   2.555  19.326  0.00  0.00    +0.000 C 
BRANCH  17  19
ATOM     18  C   UNL     1       2.195   2.755  21.746  0.00  0.00    +0.000 C 
ATOM     19  C   UNL     1       1.092   2.993  20.727  0.00  0.00    +0.000 C 
ENDBRANCH  17  19
ENDBRANCH   7  17
ENDBRANCH   1   9
BRANCH   4  20
ATOM     20  O   UNL     1       0.891  11.112  19.548  0.00  0.00    +0.000 OA
BRANCH  20  21
ATOM     21  C   UNL     1      -0.190  11.502  18.701  0.00  0.00    +0.000 C 
BRANCH  21  22
ATOM     22  C   UNL     1      -0.954  12.672  19.297  0.00  0.00    +0.000 C 
BRANCH  22  23
ATOM     23  C   UNL     1      -2.166  12.161  20.090  0.00  0.00    +0.000 C 
BRANCH  23  24
ATOM     24  N   UNL     1      -2.473  12.985  21.257  0.00  0.00    +0.000 NA
ATOM     25  C   UNL     1      -3.898  13.053  21.595  0.00  0.00    +0.000 C 
ATOM     26  C   UNL     1      -3.999  12.733  23.073  0.00  0.00    +0.000 C 
ATOM     27  C   UNL     1      -2.641  13.131  23.609  0.00  0.00    +0.000 C 
ATOM     28  C   UNL     1      -1.689  12.739  22.480  0.00  0.00    +0.000 C 
ATOM     29  C   UNL     1      -1.167  11.312  22.669  0.00  0.00    +0.000 C 
ENDBRANCH  23  24
ENDBRANCH  22  23
ENDBRANCH  21  22
ENDBRANCH  20  21
ENDBRANCH   4  20
TORSDOF 8
ENDMDL
MODEL 9
REMARK VINA RESULT:      -7.7      2.779      3.501
REMARK  Name = 
REMARK  10 active torsions:
REMARK  status: ('A' for Active; 'I' for Inactive)
REMARK    1  A    between atoms: C_1  and  C_2
REMARK    2  A    between atoms: C_2  and  C_3
REMARK    3  A    between atoms: C_3  and  N_4
REMARK    4  A    between atoms: C_6  and  C_7
REMARK    5  A    between atoms: C_10  and  O_11
REMARK    6  A    between atoms: O_11  and  C_12
REMARK    7  A    between atoms: C_12  and  C_13
REMARK    8  A    between atoms: C_13  and  C_14
REMARK    9  A    between atoms: C_14  and  N_15
REMARK   10  A    between atoms: C_19  and  C_20
REMARK                            x       y       z     vdW  Elec       q    Type
REMARK                         _______ _______ _______ _____ _____    ______ ____
ROOT
ATOM      1  C   UNL     1       2.581   7.508  18.556  0.00  0.00    +0.000 A 
ATOM      2  C   UNL     1       2.137   8.514  17.694  0.00  0.00    +0.000 A 
ATOM      3  C   UNL     1       1.258   9.493  18.150  0.00  0.00    +0.000 A 
ATOM      4  C   UNL     1       0.805   9.484  19.473  0.00  0.00    +0.000 A 
ATOM      5  C   UNL     1       1.254   8.488  20.339  0.00  0.00    +0.000 A 
ATOM      6  C   UNL     1       2.160   7.520  19.891  0.00  0.00    +0.000 A 
ENDROOT
BRANCH   1   9
ATOM      7  N   UNL     1       5.681   6.058  17.164  0.00  0.00    +0.000 N 
ATOM      8  N   UNL     1       4.725   6.943  17.655  0.00  0.00    +0.000 NA
ATOM      9  C   UNL     1       3.540   6.508  18.002  0.00  0.00    +0.000 A 
ATOM     10  C   UNL     1       3.217   5.108  17.828  0.00  0.00    +0.000 A 
ATOM     11  S   UNL     1       1.691   4.382  18.018  0.00  0.00    +0.000 S 
ATOM     12  C   UNL     1       2.319   2.825  17.705  0.00  0.00    +0.000 A 
ATOM     13  C   UNL     1       3.647   2.875  17.341  0.00  0.00    +0.000 A 
ATOM     14  C   UNL     1       4.159   4.211  17.380  0.00  0.00    +0.000 A 
ATOM     15  C   UNL     1       5.489   4.674  17.022  0.00  0.00    +0.000 A 
ATOM     16  O   UNL     1       6.346   3.897  16.609  0.00  0.00    +0.000 OA
BRANCH   7  17
ATOM     17  C   UNL     1       6.961   6.648  16.787  0.00  0.00    +0.000 C 
BRANCH  17  19
ATOM     18  C   UNL     1       8.050   8.656  17.852  0.00  0.00    +0.000 C 
ATOM     19  C   UNL     1       7.732   7.176  17.998  0.00  0.00    +0.000 C 
ENDBRANCH  17  19
ENDBRANCH   7  17
ENDBRANCH   1   9
BRANCH   4  20
ATOM     20  O   UNL     1      -0.054  10.405  20.020  0.00  0.00    +0.000 OA
BRANCH  20  21
ATOM     21  C   UNL     1      -0.169  10.309  21.439  0.00  0.00    +0.000 C 
BRANCH  21  22
ATOM     22  C   UNL     1      -0.472  11.665  22.054  0.00  0.00    +0.000 C 
BRANCH  22  23
ATOM     23  C   UNL     1      -1.163  12.568  21.022  0.00  0.00    +0.000 C 
BRANCH  23  24
ATOM     24  N   UNL     1      -0.417  13.795  20.748  0.00  0.00    +0.000 NA
ATOM     25  C   UNL     1       0.948  13.808  21.284  0.00  0.00    +0.000 C 
ATOM     26  C   UNL     1       1.849  14.221  20.137  0.00  0.00    +0.000 C 
ATOM     27  C   UNL     1       0.928  15.018  19.240  0.00  0.00    +0.000 C 
ATOM     28  C   UNL     1      -0.404  14.278  19.356  0.00  0.00    +0.000 C 
ATOM     29  C   UNL     1      -0.536  13.206  18.271  0.00  0.00    +0.000 C 
ENDBRANCH  23  24
ENDBRANCH  22  23
ENDBRANCH  21  22
ENDBRANCH  20  21
ENDBRANCH   4  20
TORSDOF 8
ENDMDL
