MODEL 1
REMARK VINA RESULT:      -9.2      0.000      0.000
REMARK  Name = 
REMARK  11 active torsions:
REMARK  status: ('A' for Active; 'I' for Inactive)
REMARK    1  A    between atoms: N_1  and  C_2
REMARK    2  A    between atoms: C_5  and  C_6
REMARK    3  A    between atoms: N_8  and  CA_9
REMARK    4  A    between atoms: CA_9  and  CB_10
REMARK    5  A    between atoms: CA_9  and  C_20
REMARK    6  A    between atoms: CB_10  and  CG_11
REMARK    7  A    between atoms: C_20  and  OXT_22
REMARK    8  A    between atoms: C_24  and  O_25
REMARK    9  A    between atoms: O_25  and  C_26
REMARK   10  A    between atoms: C_26  and  C_27
REMARK   11  A    between atoms: C_27  and  C_28
REMARK                            x       y       z     vdW  Elec       q    Type
REMARK                         _______ _______ _______ _____ _____    ______ ____
ROOT
ATOM      1  C   UNK A   0       7.483   5.541  18.093  0.00  0.00    +0.000 A 
ATOM      2  C   UNK A   0       8.149   6.146  19.172  0.00  0.00    +0.000 A 
ATOM      3  C   UNK A   0       8.488   7.495  19.148  0.00  0.00    +0.000 A 
ATOM      4  C   UNK A   0       8.166   8.274  18.037  0.00  0.00    +0.000 A 
ATOM      5  C   UNK A   0       7.501   7.694  16.951  0.00  0.00    +0.000 A 
ATOM      6  C   UNK A   0       7.119   6.339  16.985  0.00  0.00    +0.000 A 
ENDROOT
BRANCH   4   7
ATOM      7  C   UNK A   0       8.492   9.722  18.101  0.00  0.00    +0.000 C 
ATOM      8  O   UNK A   0       7.771  10.539  17.537  0.00  0.00    +0.000 OA
ATOM      9  N   TRP A   1       9.577  10.079  18.857  0.00  0.00    +0.000 N 
ATOM     10  H   TRP A   1      10.078   9.378  19.398  0.00  0.00    +0.000 HD
BRANCH   9  11
ATOM     11  CA  TRP A   1       9.921  11.479  19.137  0.00  0.00    +0.000 C 
BRANCH  11  12
ATOM     12  C   TRP A   1      10.785  11.978  17.964  0.00  0.00    +0.000 C 
ATOM     13  O   TRP A   1      10.449  12.883  17.208  0.00  0.00    +0.000 OA
BRANCH  12  14
ATOM     14  OXT TRP A   1      11.989  11.370  17.841  0.00  0.00    +0.000 OA
ATOM     15  HXT TRP A   1      12.634  11.837  17.280  0.00  0.00    +0.000 HD
ENDBRANCH  12  14
ENDBRANCH  11  12
BRANCH  11  16
ATOM     16  CB  TRP A   1      10.618  11.693  20.499  0.00  0.00    +0.000 C 
BRANCH  16  17
ATOM     17  CG  TRP A   1       9.996  12.784  21.315  0.00  0.00    +0.000 A 
ATOM     18  CD1 TRP A   1      10.282  14.132  21.215  0.00  0.00    +0.000 A 
ATOM     19  NE1 TRP A   1       9.660  14.775  22.250  0.00  0.00    +0.000 N 
ATOM     20  CE2 TRP A   1       8.855  13.900  22.938  0.00  0.00    +0.000 A 
ATOM     21  CZ2 TRP A   1       8.006  14.125  24.027  0.00  0.00    +0.000 A 
ATOM     22  CH2 TRP A   1       7.260  13.043  24.502  0.00  0.00    +0.000 A 
ATOM     23  CZ3 TRP A   1       7.374  11.784  23.919  0.00  0.00    +0.000 A 
ATOM     24  CE3 TRP A   1       8.252  11.572  22.849  0.00  0.00    +0.000 A 
ATOM     25  CD2 TRP A   1       9.013  12.646  22.347  0.00  0.00    +0.000 A 
ATOM     26  HE1 TRP A   1       9.760  15.757  22.470  0.00  0.00    +0.000 HD
ENDBRANCH  16  17
ENDBRANCH  11  16
ENDBRANCH   9  11
ENDBRANCH   4   7
BRANCH   1  27
ATOM     27  N   UNK A   0       7.130   4.190  18.243  0.00  0.00    +0.000 N 
ATOM     28  H   UNK A   0       6.479   4.007  19.004  0.00  0.00    +0.000 HD
ATOM     29  H   UNK A   0       7.938   3.581  18.289  0.00  0.00    +0.000 HD
ENDBRANCH   1  27
BRANCH   6  30
ATOM     30  O   UNK A   0       6.404   5.955  15.869  0.00  0.00    +0.000 OA
BRANCH  30  31
ATOM     31  C   UNK A   0       5.021   6.336  15.819  0.00  0.00    +0.000 C 
BRANCH  31  32
ATOM     32  C   UNK A   0       4.404   6.362  17.224  0.00  0.00    +0.000 C 
BRANCH  32  33
ATOM     33  C   UNK A   0       3.674   5.089  17.541  0.00  0.00    +0.000 A 
ATOM     34  C   UNK A   0       3.737   3.918  16.809  0.00  0.00    +0.000 A 
ATOM     35  N   UNK A   0       2.946   2.975  17.408  0.00  0.00    +0.000 N 
ATOM     36  C   UNK A   0       2.363   3.496  18.534  0.00  0.00    +0.000 A 
ATOM     37  C   UNK A   0       1.503   2.885  19.465  0.00  0.00    +0.000 A 
ATOM     38  C   UNK A   0       1.049   3.660  20.534  0.00  0.00    +0.000 A 
ATOM     39  C   UNK A   0       1.427   4.993  20.659  0.00  0.00    +0.000 A 
ATOM     40  C   UNK A   0       2.282   5.589  19.718  0.00  0.00    +0.000 A 
ATOM     41  C   UNK A   0       2.775   4.828  18.641  0.00  0.00    +0.000 A 
ATOM     42  H   UNK A   0       2.811   2.033  17.078  0.00  0.00    +0.000 HD
ENDBRANCH  32  33
ENDBRANCH  31  32
ENDBRANCH  30  31
ENDBRANCH   6  30
TORSDOF 11
ENDMDL
MODEL 2
REMARK VINA RESULT:      -8.7      5.774      9.176
REMARK  Name = 
REMARK  11 active torsions:
REMARK  status: ('A' for Active; 'I' for Inactive)
REMARK    1  A    between atoms: N_1  and  C_2
REMARK    2  A    between atoms: C_5  and  C_6
REMARK    3  A    between atoms: N_8  and  CA_9
REMARK    4  A    between atoms: CA_9  and  CB_10
REMARK    5  A    between atoms: CA_9  and  C_20
REMARK    6  A    between atoms: CB_10  and  CG_11
REMARK    7  A    between atoms: C_20  and  OXT_22
REMARK    8  A    between atoms: C_24  and  O_25
REMARK    9  A    between atoms: O_25  and  C_26
REMARK   10  A    between atoms: C_26  and  C_27
REMARK   11  A    between atoms: C_27  and  C_28
REMARK                            x       y       z     vdW  Elec       q    Type
REMARK                         _______ _______ _______ _____ _____    ______ ____
ROOT
ATOM      1  C   UNK A   0       2.563   5.384  19.841  0.00  0.00    +0.000 A 
ATOM      2  C   UNK A   0       1.854   6.166  20.769  0.00  0.00    +0.000 A 
ATOM      3  C   UNK A   0       1.520   7.488  20.494  0.00  0.00    +0.000 A 
ATOM      4  C   UNK A   0       1.889   8.061  19.277  0.00  0.00    +0.000 A 
ATOM      5  C   UNK A   0       2.593   7.301  18.336  0.00  0.00    +0.000 A 
ATOM      6  C   UNK A   0       2.900   5.950  18.592  0.00  0.00    +0.000 A 
ENDROOT
BRANCH   4   7
ATOM      7  C   UNK A   0       1.442   9.453  19.014  0.00  0.00    +0.000 C 
ATOM      8  O   UNK A   0       1.502   9.912  17.878  0.00  0.00    +0.000 OA
ATOM      9  N   TRP A   1       0.917  10.144  20.074  0.00  0.00    +0.000 N 
ATOM     10  H   TRP A   1       0.783   9.684  20.971  0.00  0.00    +0.000 HD
BRANCH   9  11
ATOM     11  CA  TRP A   1       0.294  11.466  19.926  0.00  0.00    +0.000 C 
BRANCH  11  12
ATOM     12  C   TRP A   1       1.327  12.510  20.388  0.00  0.00    +0.000 C 
ATOM     13  O   TRP A   1       2.270  12.885  19.699  0.00  0.00    +0.000 OA
BRANCH  12  14
ATOM     14  OXT TRP A   1       1.101  13.034  21.616  0.00  0.00    +0.000 OA
ATOM     15  HXT TRP A   1       0.576  12.474  22.215  0.00  0.00    +0.000 HD
ENDBRANCH  12  14
ENDBRANCH  11  12
BRANCH  11  16
ATOM     16  CB  TRP A   1      -1.049  11.613  20.676  0.00  0.00    +0.000 C 
BRANCH  16  17
ATOM     17  CG  TRP A   1      -2.207  11.886  19.766  0.00  0.00    +0.000 A 
ATOM     18  CD1 TRP A   1      -3.204  12.818  19.983  0.00  0.00    +0.000 A 
ATOM     19  NE1 TRP A   1      -4.171  12.632  19.033  0.00  0.00    +0.000 N 
ATOM     20  CE2 TRP A   1      -3.760  11.698  18.113  0.00  0.00    +0.000 A 
ATOM     21  CZ2 TRP A   1      -4.398  11.233  16.957  0.00  0.00    +0.000 A 
ATOM     22  CH2 TRP A   1      -3.716  10.300  16.172  0.00  0.00    +0.000 A 
ATOM     23  CZ3 TRP A   1      -2.454   9.842  16.538  0.00  0.00    +0.000 A 
ATOM     24  CE3 TRP A   1      -1.845  10.296  17.714  0.00  0.00    +0.000 A 
ATOM     25  CD2 TRP A   1      -2.508  11.241  18.523  0.00  0.00    +0.000 A 
ATOM     26  HE1 TRP A   1      -5.055  13.121  18.999  0.00  0.00    +0.000 HD
ENDBRANCH  16  17
ENDBRANCH  11  16
ENDBRANCH   9  11
ENDBRANCH   4   7
BRANCH   1  27
ATOM     27  N   UNK A   0       2.796   4.043  20.189  0.00  0.00    +0.000 N 
ATOM     28  H   UNK A   0       2.059   3.619  20.748  0.00  0.00    +0.000 HD
ATOM     29  H   UNK A   0       3.708   3.904  20.609  0.00  0.00    +0.000 HD
ENDBRANCH   1  27
BRANCH   6  30
ATOM     30  O   UNK A   0       3.525   5.332  17.528  0.00  0.00    +0.000 OA
BRANCH  30  31
ATOM     31  C   UNK A   0       4.649   4.492  17.832  0.00  0.00    +0.000 C 
BRANCH  31  32
ATOM     32  C   UNK A   0       5.033   3.624  16.626  0.00  0.00    +0.000 C 
BRANCH  32  33
ATOM     33  C   UNK A   0       6.028   4.310  15.734  0.00  0.00    +0.000 A 
ATOM     34  C   UNK A   0       6.957   5.251  16.135  0.00  0.00    +0.000 A 
ATOM     35  N   UNK A   0       7.692   5.642  15.049  0.00  0.00    +0.000 N 
ATOM     36  C   UNK A   0       7.274   4.969  13.930  0.00  0.00    +0.000 A 
ATOM     37  C   UNK A   0       7.756   5.033  12.610  0.00  0.00    +0.000 A 
ATOM     38  C   UNK A   0       7.135   4.228  11.653  0.00  0.00    +0.000 A 
ATOM     39  C   UNK A   0       6.068   3.406  11.998  0.00  0.00    +0.000 A 
ATOM     40  C   UNK A   0       5.595   3.358  13.319  0.00  0.00    +0.000 A 
ATOM     41  C   UNK A   0       6.215   4.140  14.312  0.00  0.00    +0.000 A 
ATOM     42  H   UNK A   0       8.437   6.321  15.063  0.00  0.00    +0.000 HD
ENDBRANCH  32  33
ENDBRANCH  31  32
ENDBRANCH  30  31
ENDBRANCH   6  30
TORSDOF 11
ENDMDL
MODEL 3
REMARK VINA RESULT:      -8.6      5.128      7.880
REMARK  Name = 
REMARK  11 active torsions:
REMARK  status: ('A' for Active; 'I' for Inactive)
REMARK    1  A    between atoms: N_1  and  C_2
REMARK    2  A    between atoms: C_5  and  C_6
REMARK    3  A    between atoms: N_8  and  CA_9
REMARK    4  A    between atoms: CA_9  and  CB_10
REMARK    5  A    between atoms: CA_9  and  C_20
REMARK    6  A    between atoms: CB_10  and  CG_11
REMARK    7  A    between atoms: C_20  and  OXT_22
REMARK    8  A    between atoms: C_24  and  O_25
REMARK    9  A    between atoms: O_25  and  C_26
REMARK   10  A    between atoms: C_26  and  C_27
REMARK   11  A    between atoms: C_27  and  C_28
REMARK                            x       y       z     vdW  Elec       q    Type
REMARK                         _______ _______ _______ _____ _____    ______ ____
ROOT
ATOM      1  C   UNK A   0       1.874   3.089  19.284  0.00  0.00    +0.000 A 
ATOM      2  C   UNK A   0       1.284   3.695  20.407  0.00  0.00    +0.000 A 
ATOM      3  C   UNK A   0       1.321   5.073  20.586  0.00  0.00    +0.000 A 
ATOM      4  C   UNK A   0       1.951   5.883  19.640  0.00  0.00    +0.000 A 
ATOM      5  C   UNK A   0       2.543   5.302  18.513  0.00  0.00    +0.000 A 
ATOM      6  C   UNK A   0       2.475   3.911  18.304  0.00  0.00    +0.000 A 
ENDROOT
BRANCH   4   7
ATOM      7  C   UNK A   0       1.895   7.352  19.853  0.00  0.00    +0.000 C 
ATOM      8  O   UNK A   0       2.446   8.108  19.060  0.00  0.00    +0.000 OA
ATOM      9  N   TRP A   1       1.159   7.795  20.921  0.00  0.00    +0.000 N 
ATOM     10  H   TRP A   1       0.626   7.137  21.484  0.00  0.00    +0.000 HD
BRANCH   9  11
ATOM     11  CA  TRP A   1       0.887   9.218  21.158  0.00  0.00    +0.000 C 
BRANCH  11  12
ATOM     12  C   TRP A   1       0.538   9.371  22.651  0.00  0.00    +0.000 C 
ATOM     13  O   TRP A   1      -0.609   9.372  23.085  0.00  0.00    +0.000 OA
BRANCH  12  14
ATOM     14  OXT TRP A   1       1.604   9.462  23.481  0.00  0.00    +0.000 OA
ATOM     15  HXT TRP A   1       1.937  10.366  23.630  0.00  0.00    +0.000 HD
ENDBRANCH  12  14
ENDBRANCH  11  12
BRANCH  11  16
ATOM     16  CB  TRP A   1      -0.212   9.807  20.246  0.00  0.00    +0.000 C 
BRANCH  16  17
ATOM     17  CG  TRP A   1      -0.196  11.304  20.194  0.00  0.00    +0.000 A 
ATOM     18  CD1 TRP A   1      -1.104  12.144  20.810  0.00  0.00    +0.000 A 
ATOM     19  NE1 TRP A   1      -0.868  13.418  20.371  0.00  0.00    +0.000 N 
ATOM     20  CE2 TRP A   1       0.266  13.451  19.597  0.00  0.00    +0.000 A 
ATOM     21  CZ2 TRP A   1       0.905  14.534  18.983  0.00  0.00    +0.000 A 
ATOM     22  CH2 TRP A   1       2.087  14.278  18.283  0.00  0.00    +0.000 A 
ATOM     23  CZ3 TRP A   1       2.599  12.987  18.191  0.00  0.00    +0.000 A 
ATOM     24  CE3 TRP A   1       1.929  11.912  18.786  0.00  0.00    +0.000 A 
ATOM     25  CD2 TRP A   1       0.736  12.142  19.502  0.00  0.00    +0.000 A 
ATOM     26  HE1 TRP A   1      -1.433  14.226  20.596  0.00  0.00    +0.000 HD
ENDBRANCH  16  17
ENDBRANCH  11  16
ENDBRANCH   9  11
ENDBRANCH   4   7
BRANCH   1  27
ATOM     27  N   UNK A   0       1.727   1.697  19.164  0.00  0.00    +0.000 N 
ATOM     28  H   UNK A   0       2.546   1.162  19.444  0.00  0.00    +0.000 HD
ATOM     29  H   UNK A   0       1.396   1.419  18.247  0.00  0.00    +0.000 HD
ENDBRANCH   1  27
BRANCH   6  30
ATOM     30  O   UNK A   0       3.039   3.520  17.107  0.00  0.00    +0.000 OA
BRANCH  30  31
ATOM     31  C   UNK A   0       4.328   2.892  17.169  0.00  0.00    +0.000 C 
BRANCH  31  32
ATOM     32  C   UNK A   0       5.228   3.363  16.018  0.00  0.00    +0.000 C 
BRANCH  32  33
ATOM     33  C   UNK A   0       5.634   4.800  16.174  0.00  0.00    +0.000 A 
ATOM     34  C   UNK A   0       5.183   5.855  15.404  0.00  0.00    +0.000 A 
ATOM     35  N   UNK A   0       5.766   7.011  15.846  0.00  0.00    +0.000 N 
ATOM     36  C   UNK A   0       6.594   6.746  16.907  0.00  0.00    +0.000 A 
ATOM     37  C   UNK A   0       7.368   7.625  17.685  0.00  0.00    +0.000 A 
ATOM     38  C   UNK A   0       8.130   7.078  18.719  0.00  0.00    +0.000 A 
ATOM     39  C   UNK A   0       8.129   5.707  18.955  0.00  0.00    +0.000 A 
ATOM     40  C   UNK A   0       7.354   4.841  18.166  0.00  0.00    +0.000 A 
ATOM     41  C   UNK A   0       6.557   5.366  17.131  0.00  0.00    +0.000 A 
ATOM     42  H   UNK A   0       5.612   7.927  15.457  0.00  0.00    +0.000 HD
ENDBRANCH  32  33
ENDBRANCH  31  32
ENDBRANCH  30  31
ENDBRANCH   6  30
TORSDOF 11
ENDMDL
MODEL 4
REMARK VINA RESULT:      -8.6      1.611      2.290
REMARK  Name = 
REMARK  11 active torsions:
REMARK  status: ('A' for Active; 'I' for Inactive)
REMARK    1  A    between atoms: N_1  and  C_2
REMARK    2  A    between atoms: C_5  and  C_6
REMARK    3  A    between atoms: N_8  and  CA_9
REMARK    4  A    between atoms: CA_9  and  CB_10
REMARK    5  A    between atoms: CA_9  and  C_20
REMARK    6  A    between atoms: CB_10  and  CG_11
REMARK    7  A    between atoms: C_20  and  OXT_22
REMARK    8  A    between atoms: C_24  and  O_25
REMARK    9  A    between atoms: O_25  and  C_26
REMARK   10  A    between atoms: C_26  and  C_27
REMARK   11  A    between atoms: C_27  and  C_28
REMARK                            x       y       z     vdW  Elec       q    Type
REMARK                         _______ _______ _______ _____ _____    ______ ____
ROOT
ATOM      1  C   UNK A   0       7.403   5.619  18.307  0.00  0.00    +0.000 A 
ATOM      2  C   UNK A   0       8.207   6.194  19.306  0.00  0.00    +0.000 A 
ATOM      3  C   UNK A   0       8.597   7.528  19.241  0.00  0.00    +0.000 A 
ATOM      4  C   UNK A   0       8.188   8.322  18.169  0.00  0.00    +0.000 A 
ATOM      5  C   UNK A   0       7.385   7.771  17.163  0.00  0.00    +0.000 A 
ATOM      6  C   UNK A   0       6.954   6.433  17.243  0.00  0.00    +0.000 A 
ENDROOT
BRANCH   4   7
ATOM      7  C   UNK A   0       8.578   9.755  18.192  0.00  0.00    +0.000 C 
ATOM      8  O   UNK A   0       7.928  10.578  17.556  0.00  0.00    +0.000 OA
ATOM      9  N   TRP A   1       9.635  10.095  18.994  0.00  0.00    +0.000 N 
ATOM     10  H   TRP A   1      10.072   9.396  19.592  0.00  0.00    +0.000 HD
BRANCH   9  11
ATOM     11  CA  TRP A   1      10.029  11.489  19.237  0.00  0.00    +0.000 C 
BRANCH  11  12
ATOM     12  C   TRP A   1      11.561  11.559  19.099  0.00  0.00    +0.000 C 
ATOM     13  O   TRP A   1      12.333  11.492  20.049  0.00  0.00    +0.000 OA
BRANCH  12  14
ATOM     14  OXT TRP A   1      12.017  11.657  17.828  0.00  0.00    +0.000 OA
ATOM     15  HXT TRP A   1      12.291  10.816  17.420  0.00  0.00    +0.000 HD
ENDBRANCH  12  14
ENDBRANCH  11  12
BRANCH  11  16
ATOM     16  CB  TRP A   1       9.546  12.050  20.593  0.00  0.00    +0.000 C 
BRANCH  16  17
ATOM     17  CG  TRP A   1       9.448  13.544  20.612  0.00  0.00    +0.000 A 
ATOM     18  CD1 TRP A   1      10.099  14.386  21.495  0.00  0.00    +0.000 A 
ATOM     19  NE1 TRP A   1       9.607  15.650  21.315  0.00  0.00    +0.000 N 
ATOM     20  CE2 TRP A   1       8.757  15.680  20.236  0.00  0.00    +0.000 A 
ATOM     21  CZ2 TRP A   1       8.070  16.756  19.663  0.00  0.00    +0.000 A 
ATOM     22  CH2 TRP A   1       7.299  16.500  18.525  0.00  0.00    +0.000 A 
ATOM     23  CZ3 TRP A   1       7.212  15.217  17.993  0.00  0.00    +0.000 A 
ATOM     24  CE3 TRP A   1       7.883  14.148  18.599  0.00  0.00    +0.000 A 
ATOM     25  CD2 TRP A   1       8.670  14.378  19.746  0.00  0.00    +0.000 A 
ATOM     26  HE1 TRP A   1       9.845  16.453  21.881  0.00  0.00    +0.000 HD
ENDBRANCH  16  17
ENDBRANCH  11  16
ENDBRANCH   9  11
ENDBRANCH   4   7
BRANCH   1  27
ATOM     27  N   UNK A   0       7.013   4.283  18.498  0.00  0.00    +0.000 N 
ATOM     28  H   UNK A   0       6.179   4.166  19.069  0.00  0.00    +0.000 HD
ATOM     29  H   UNK A   0       7.774   3.701  18.827  0.00  0.00    +0.000 HD
ENDBRANCH   1  27
BRANCH   6  30
ATOM     30  O   UNK A   0       6.106   6.080  16.212  0.00  0.00    +0.000 OA
BRANCH  30  31
ATOM     31  C   UNK A   0       4.808   6.691  16.200  0.00  0.00    +0.000 C 
BRANCH  31  32
ATOM     32  C   UNK A   0       4.101   6.516  17.551  0.00  0.00    +0.000 C 
BRANCH  32  33
ATOM     33  C   UNK A   0       3.580   5.120  17.736  0.00  0.00    +0.000 A 
ATOM     34  C   UNK A   0       3.826   4.049  16.898  0.00  0.00    +0.000 A 
ATOM     35  N   UNK A   0       3.192   2.942  17.393  0.00  0.00    +0.000 N 
ATOM     36  C   UNK A   0       2.534   3.255  18.555  0.00  0.00    +0.000 A 
ATOM     37  C   UNK A   0       1.781   2.432  19.411  0.00  0.00    +0.000 A 
ATOM     38  C   UNK A   0       1.211   3.021  20.542  0.00  0.00    +0.000 A 
ATOM     39  C   UNK A   0       1.376   4.378  20.797  0.00  0.00    +0.000 A 
ATOM     40  C   UNK A   0       2.127   5.188  19.930  0.00  0.00    +0.000 A 
ATOM     41  C   UNK A   0       2.733   4.618  18.793  0.00  0.00    +0.000 A 
ATOM     42  H   UNK A   0       3.206   2.026  16.974  0.00  0.00    +0.000 HD
ENDBRANCH  32  33
ENDBRANCH  31  32
ENDBRANCH  30  31
ENDBRANCH   6  30
TORSDOF 11
ENDMDL
MODEL 5
REMARK VINA RESULT:      -8.5      5.940      8.215
REMARK  Name = 
REMARK  11 active torsions:
REMARK  status: ('A' for Active; 'I' for Inactive)
REMARK    1  A    between atoms: N_1  and  C_2
REMARK    2  A    between atoms: C_5  and  C_6
REMARK    3  A    between atoms: N_8  and  CA_9
REMARK    4  A    between atoms: CA_9  and  CB_10
REMARK    5  A    between atoms: CA_9  and  C_20
REMARK    6  A    between atoms: CB_10  and  CG_11
REMARK    7  A    between atoms: C_20  and  OXT_22
REMARK    8  A    between atoms: C_24  and  O_25
REMARK    9  A    between atoms: O_25  and  C_26
REMARK   10  A    between atoms: C_26  and  C_27
REMARK   11  A    between atoms: C_27  and  C_28
REMARK                            x       y       z     vdW  Elec       q    Type
REMARK                         _______ _______ _______ _____ _____    ______ ____
ROOT
ATOM      1  C   UNK A   0       3.128   3.218  18.950  0.00  0.00    +0.000 A 
ATOM      2  C   UNK A   0       1.806   3.694  18.914  0.00  0.00    +0.000 A 
ATOM      3  C   UNK A   0       1.511   5.030  19.164  0.00  0.00    +0.000 A 
ATOM      4  C   UNK A   0       2.539   5.927  19.456  0.00  0.00    +0.000 A 
ATOM      5  C   UNK A   0       3.863   5.477  19.496  0.00  0.00    +0.000 A 
ATOM      6  C   UNK A   0       4.173   4.134  19.205  0.00  0.00    +0.000 A 
ENDROOT
BRANCH   4   7
ATOM      7  C   UNK A   0       2.168   7.353  19.644  0.00  0.00    +0.000 C 
ATOM      8  O   UNK A   0       2.202   8.127  18.693  0.00  0.00    +0.000 OA
ATOM      9  N   TRP A   1       1.739   7.721  20.892  0.00  0.00    +0.000 N 
ATOM     10  H   TRP A   1       1.619   7.021  21.621  0.00  0.00    +0.000 HD
BRANCH   9  11
ATOM     11  CA  TRP A   1       1.193   9.054  21.180  0.00  0.00    +0.000 C 
BRANCH  11  12
ATOM     12  C   TRP A   1       1.410   9.318  22.683  0.00  0.00    +0.000 C 
ATOM     13  O   TRP A   1       0.495   9.461  23.487  0.00  0.00    +0.000 OA
BRANCH  12  14
ATOM     14  OXT TRP A   1       2.704   9.340  23.079  0.00  0.00    +0.000 OA
ATOM     15  HXT TRP A   1       3.112  10.224  23.114  0.00  0.00    +0.000 HD
ENDBRANCH  12  14
ENDBRANCH  11  12
BRANCH  11  16
ATOM     16  CB  TRP A   1      -0.287   9.227  20.772  0.00  0.00    +0.000 C 
BRANCH  16  17
ATOM     17  CG  TRP A   1      -0.520  10.411  19.885  0.00  0.00    +0.000 A 
ATOM     18  CD1 TRP A   1      -0.856  10.364  18.545  0.00  0.00    +0.000 A 
ATOM     19  NE1 TRP A   1      -0.791  11.636  18.047  0.00  0.00    +0.000 N 
ATOM     20  CE2 TRP A   1      -0.564  12.533  19.063  0.00  0.00    +0.000 A 
ATOM     21  CZ2 TRP A   1      -0.471  13.928  19.027  0.00  0.00    +0.000 A 
ATOM     22  CH2 TRP A   1      -0.277  14.597  20.239  0.00  0.00    +0.000 A 
ATOM     23  CZ3 TRP A   1      -0.167  13.894  21.434  0.00  0.00    +0.000 A 
ATOM     24  CE3 TRP A   1      -0.233  12.496  21.447  0.00  0.00    +0.000 A 
ATOM     25  CD2 TRP A   1      -0.431  11.795  20.239  0.00  0.00    +0.000 A 
ATOM     26  HE1 TRP A   1      -0.909  11.888  17.075  0.00  0.00    +0.000 HD
ENDBRANCH  16  17
ENDBRANCH  11  16
ENDBRANCH   9  11
ENDBRANCH   4   7
BRANCH   1  27
ATOM     27  N   UNK A   0       3.324   1.867  18.621  0.00  0.00    +0.000 N 
ATOM     28  H   UNK A   0       4.264   1.645  18.298  0.00  0.00    +0.000 HD
ATOM     29  H   UNK A   0       2.619   1.517  17.984  0.00  0.00    +0.000 HD
ENDBRANCH   1  27
BRANCH   6  30
ATOM     30  O   UNK A   0       5.530   3.883  19.211  0.00  0.00    +0.000 OA
BRANCH  30  31
ATOM     31  C   UNK A   0       6.288   4.378  18.097  0.00  0.00    +0.000 C 
BRANCH  31  32
ATOM     32  C   UNK A   0       5.514   4.210  16.783  0.00  0.00    +0.000 C 
BRANCH  32  33
ATOM     33  C   UNK A   0       6.343   4.588  15.590  0.00  0.00    +0.000 A 
ATOM     34  C   UNK A   0       7.451   5.414  15.606  0.00  0.00    +0.000 A 
ATOM     35  N   UNK A   0       7.947   5.519  14.335  0.00  0.00    +0.000 N 
ATOM     36  C   UNK A   0       7.191   4.768  13.471  0.00  0.00    +0.000 A 
ATOM     37  C   UNK A   0       7.347   4.561  12.088  0.00  0.00    +0.000 A 
ATOM     38  C   UNK A   0       6.420   3.738  11.447  0.00  0.00    +0.000 A 
ATOM     39  C   UNK A   0       5.372   3.159  12.156  0.00  0.00    +0.000 A 
ATOM     40  C   UNK A   0       5.228   3.379  13.535  0.00  0.00    +0.000 A 
ATOM     41  C   UNK A   0       6.160   4.186  14.214  0.00  0.00    +0.000 A 
ATOM     42  H   UNK A   0       8.751   6.062  14.066  0.00  0.00    +0.000 HD
ENDBRANCH  32  33
ENDBRANCH  31  32
ENDBRANCH  30  31
ENDBRANCH   6  30
TORSDOF 11
ENDMDL
MODEL 6
REMARK VINA RESULT:      -8.5      6.386     10.253
REMARK  Name = 
REMARK  11 active torsions:
REMARK  status: ('A' for Active; 'I' for Inactive)
REMARK    1  A    between atoms: N_1  and  C_2
REMARK    2  A    between atoms: C_5  and  C_6
REMARK    3  A    between atoms: N_8  and  CA_9
REMARK    4  A    between atoms: CA_9  and  CB_10
REMARK    5  A    between atoms: CA_9  and  C_20
REMARK    6  A    between atoms: CB_10  and  CG_11
REMARK    7  A    between atoms: C_20  and  OXT_22
REMARK    8  A    between atoms: C_24  and  O_25
REMARK    9  A    between atoms: O_25  and  C_26
REMARK   10  A    between atoms: C_26  and  C_27
REMARK   11  A    between atoms: C_27  and  C_28
REMARK                            x       y       z     vdW  Elec       q    Type
REMARK                         _______ _______ _______ _____ _____    ______ ____
ROOT
ATOM      1  C   UNK A   0       0.410   9.886  21.216  0.00  0.00    +0.000 A 
ATOM      2  C   UNK A   0       0.923   8.641  21.621  0.00  0.00    +0.000 A 
ATOM      3  C   UNK A   0       1.574   7.802  20.723  0.00  0.00    +0.000 A 
ATOM      4  C   UNK A   0       1.729   8.190  19.393  0.00  0.00    +0.000 A 
ATOM      5  C   UNK A   0       1.228   9.426  18.967  0.00  0.00    +0.000 A 
ATOM      6  C   UNK A   0       0.604  10.298  19.879  0.00  0.00    +0.000 A 
ENDROOT
BRANCH   4   7
ATOM      7  C   UNK A   0       2.494   7.282  18.500  0.00  0.00    +0.000 C 
ATOM      8  O   UNK A   0       3.322   7.742  17.720  0.00  0.00    +0.000 OA
ATOM      9  N   TRP A   1       2.269   5.938  18.646  0.00  0.00    +0.000 N 
ATOM     10  H   TRP A   1       1.657   5.597  19.384  0.00  0.00    +0.000 HD
BRANCH   9  11
ATOM     11  CA  TRP A   1       3.065   4.922  17.945  0.00  0.00    +0.000 C 
BRANCH  11  12
ATOM     12  C   TRP A   1       2.127   3.738  17.645  0.00  0.00    +0.000 C 
ATOM     13  O   TRP A   1       0.935   3.863  17.383  0.00  0.00    +0.000 OA
BRANCH  12  14
ATOM     14  OXT TRP A   1       2.723   2.522  17.644  0.00  0.00    +0.000 OA
ATOM     15  HXT TRP A   1       2.698   2.049  16.793  0.00  0.00    +0.000 HD
ENDBRANCH  12  14
ENDBRANCH  11  12
BRANCH  11  16
ATOM     16  CB  TRP A   1       4.329   4.476  18.714  0.00  0.00    +0.000 C 
BRANCH  16  17
ATOM     17  CG  TRP A   1       5.599   4.741  17.967  0.00  0.00    +0.000 A 
ATOM     18  CD1 TRP A   1       6.779   5.203  18.517  0.00  0.00    +0.000 A 
ATOM     19  NE1 TRP A   1       7.637   5.499  17.492  0.00  0.00    +0.000 N 
ATOM     20  CE2 TRP A   1       7.098   5.102  16.293  0.00  0.00    +0.000 A 
ATOM     21  CZ2 TRP A   1       7.635   5.163  15.002  0.00  0.00    +0.000 A 
ATOM     22  CH2 TRP A   1       6.871   4.636  13.957  0.00  0.00    +0.000 A 
ATOM     23  CZ3 TRP A   1       5.616   4.085  14.195  0.00  0.00    +0.000 A 
ATOM     24  CE3 TRP A   1       5.082   4.061  15.489  0.00  0.00    +0.000 A 
ATOM     25  CD2 TRP A   1       5.833   4.582  16.563  0.00  0.00    +0.000 A 
ATOM     26  HE1 TRP A   1       8.545   5.931  17.599  0.00  0.00    +0.000 HD
ENDBRANCH  16  17
ENDBRANCH  11  16
ENDBRANCH   9  11
ENDBRANCH   4   7
BRANCH   1  27
ATOM     27  N   UNK A   0      -0.173  10.685  22.213  0.00  0.00    +0.000 N 
ATOM     28  H   UNK A   0      -0.071  10.321  23.158  0.00  0.00    +0.000 HD
ATOM     29  H   UNK A   0      -1.137  10.920  22.007  0.00  0.00    +0.000 HD
ENDBRANCH   1  27
BRANCH   6  30
ATOM     30  O   UNK A   0       0.244  11.503  19.309  0.00  0.00    +0.000 OA
BRANCH  30  31
ATOM     31  C   UNK A   0      -0.928  11.505  18.480  0.00  0.00    +0.000 C 
BRANCH  31  32
ATOM     32  C   UNK A   0      -2.196  11.731  19.315  0.00  0.00    +0.000 C 
BRANCH  32  33
ATOM     33  C   UNK A   0      -3.437  11.699  18.472  0.00  0.00    +0.000 A 
ATOM     34  C   UNK A   0      -3.508  11.287  17.155  0.00  0.00    +0.000 A 
ATOM     35  N   UNK A   0      -4.803  11.390  16.725  0.00  0.00    +0.000 N 
ATOM     36  C   UNK A   0      -5.601  11.855  17.739  0.00  0.00    +0.000 A 
ATOM     37  C   UNK A   0      -6.988  12.087  17.757  0.00  0.00    +0.000 A 
ATOM     38  C   UNK A   0      -7.550  12.572  18.940  0.00  0.00    +0.000 A 
ATOM     39  C   UNK A   0      -6.755  12.826  20.053  0.00  0.00    +0.000 A 
ATOM     40  C   UNK A   0      -5.371  12.594  20.017  0.00  0.00    +0.000 A 
ATOM     41  C   UNK A   0      -4.779  12.084  18.846  0.00  0.00    +0.000 A 
ATOM     42  H   UNK A   0      -5.132  11.155  15.802  0.00  0.00    +0.000 HD
ENDBRANCH  32  33
ENDBRANCH  31  32
ENDBRANCH  30  31
ENDBRANCH   6  30
TORSDOF 11
ENDMDL
MODEL 7
REMARK VINA RESULT:      -8.5      3.102      9.020
REMARK  Name = 
REMARK  11 active torsions:
REMARK  status: ('A' for Active; 'I' for Inactive)
REMARK    1  A    between atoms: N_1  and  C_2
REMARK    2  A    between atoms: C_5  and  C_6
REMARK    3  A    between atoms: N_8  and  CA_9
REMARK    4  A    between atoms: CA_9  and  CB_10
REMARK    5  A    between atoms: CA_9  and  C_20
REMARK    6  A    between atoms: CB_10  and  CG_11
REMARK    7  A    between atoms: C_20  and  OXT_22
REMARK    8  A    between atoms: C_24  and  O_25
REMARK    9  A    between atoms: O_25  and  C_26
REMARK   10  A    between atoms: C_26  and  C_27
REMARK   11  A    between atoms: C_27  and  C_28
REMARK                            x       y       z     vdW  Elec       q    Type
REMARK                         _______ _______ _______ _____ _____    ______ ____
ROOT
ATOM      1  C   UNK A   0       6.988   5.123  15.210  0.00  0.00    +0.000 A 
ATOM      2  C   UNK A   0       6.111   4.025  15.234  0.00  0.00    +0.000 A 
ATOM      3  C   UNK A   0       5.444   3.658  16.397  0.00  0.00    +0.000 A 
ATOM      4  C   UNK A   0       5.638   4.386  17.571  0.00  0.00    +0.000 A 
ATOM      5  C   UNK A   0       6.506   5.485  17.572  0.00  0.00    +0.000 A 
ATOM      6  C   UNK A   0       7.154   5.886  16.388  0.00  0.00    +0.000 A 
ENDROOT
BRANCH   4   7
ATOM      7  C   UNK A   0       4.844   3.988  18.762  0.00  0.00    +0.000 C 
ATOM      8  O   UNK A   0       5.330   3.235  19.600  0.00  0.00    +0.000 OA
ATOM      9  N   TRP A   1       3.600   4.549  18.891  0.00  0.00    +0.000 N 
ATOM     10  H   TRP A   1       3.285   5.255  18.230  0.00  0.00    +0.000 HD
BRANCH   9  11
ATOM     11  CA  TRP A   1       2.773   4.370  20.091  0.00  0.00    +0.000 C 
BRANCH  11  12
ATOM     12  C   TRP A   1       1.556   3.518  19.681  0.00  0.00    +0.000 C 
ATOM     13  O   TRP A   1       1.597   2.642  18.824  0.00  0.00    +0.000 OA
BRANCH  12  14
ATOM     14  OXT TRP A   1       0.421   3.774  20.373  0.00  0.00    +0.000 OA
ATOM     15  HXT TRP A   1      -0.405   3.667  19.867  0.00  0.00    +0.000 HD
ENDBRANCH  12  14
ENDBRANCH  11  12
BRANCH  11  16
ATOM     16  CB  TRP A   1       2.349   5.695  20.763  0.00  0.00    +0.000 C 
BRANCH  16  17
ATOM     17  CG  TRP A   1       2.151   6.814  19.787  0.00  0.00    +0.000 A 
ATOM     18  CD1 TRP A   1       2.553   6.815  18.465  0.00  0.00    +0.000 A 
ATOM     19  NE1 TRP A   1       2.369   8.076  17.967  0.00  0.00    +0.000 N 
ATOM     20  CE2 TRP A   1       1.719   8.860  18.889  0.00  0.00    +0.000 A 
ATOM     21  CZ2 TRP A   1       1.287  10.188  18.794  0.00  0.00    +0.000 A 
ATOM     22  CH2 TRP A   1       0.601  10.726  19.887  0.00  0.00    +0.000 A 
ATOM     23  CZ3 TRP A   1       0.372   9.968  21.032  0.00  0.00    +0.000 A 
ATOM     24  CE3 TRP A   1       0.839   8.651  21.119  0.00  0.00    +0.000 A 
ATOM     25  CD2 TRP A   1       1.530   8.081  20.030  0.00  0.00    +0.000 A 
ATOM     26  HE1 TRP A   1       2.652   8.386  17.047  0.00  0.00    +0.000 HD
ENDBRANCH  16  17
ENDBRANCH  11  16
ENDBRANCH   9  11
ENDBRANCH   4   7
BRANCH   1  27
ATOM     27  N   UNK A   0       7.563   5.449  13.971  0.00  0.00    +0.000 N 
ATOM     28  H   UNK A   0       6.979   6.034  13.376  0.00  0.00    +0.000 HD
ATOM     29  H   UNK A   0       7.900   4.633  13.473  0.00  0.00    +0.000 HD
ENDBRANCH   1  27
BRANCH   6  30
ATOM     30  O   UNK A   0       7.906   7.032  16.549  0.00  0.00    +0.000 OA
BRANCH  30  31
ATOM     31  C   UNK A   0       7.696   7.783  17.754  0.00  0.00    +0.000 C 
BRANCH  31  32
ATOM     32  C   UNK A   0       7.745   9.293  17.479  0.00  0.00    +0.000 C 
BRANCH  32  33
ATOM     33  C   UNK A   0       8.608  10.017  18.472  0.00  0.00    +0.000 A 
ATOM     34  C   UNK A   0       9.108   9.486  19.646  0.00  0.00    +0.000 A 
ATOM     35  N   UNK A   0       9.856  10.438  20.283  0.00  0.00    +0.000 N 
ATOM     36  C   UNK A   0       9.871  11.596  19.547  0.00  0.00    +0.000 A 
ATOM     37  C   UNK A   0      10.527  12.813  19.801  0.00  0.00    +0.000 A 
ATOM     38  C   UNK A   0      10.367  13.843  18.872  0.00  0.00    +0.000 A 
ATOM     39  C   UNK A   0       9.572  13.666  17.744  0.00  0.00    +0.000 A 
ATOM     40  C   UNK A   0       8.920  12.445  17.507  0.00  0.00    +0.000 A 
ATOM     41  C   UNK A   0       9.080  11.381  18.414  0.00  0.00    +0.000 A 
ATOM     42  H   UNK A   0      10.333  10.314  21.162  0.00  0.00    +0.000 HD
ENDBRANCH  32  33
ENDBRANCH  31  32
ENDBRANCH  30  31
ENDBRANCH   6  30
TORSDOF 11
ENDMDL
MODEL 8
REMARK VINA RESULT:      -8.5      6.271      9.918
REMARK  Name = 
REMARK  11 active torsions:
REMARK  status: ('A' for Active; 'I' for Inactive)
REMARK    1  A    between atoms: N_1  and  C_2
REMARK    2  A    between atoms: C_5  and  C_6
REMARK    3  A    between atoms: N_8  and  CA_9
REMARK    4  A    between atoms: CA_9  and  CB_10
REMARK    5  A    between atoms: CA_9  and  C_20
REMARK    6  A    between atoms: CB_10  and  CG_11
REMARK    7  A    between atoms: C_20  and  OXT_22
REMARK    8  A    between atoms: C_24  and  O_25
REMARK    9  A    between atoms: O_25  and  C_26
REMARK   10  A    between atoms: C_26  and  C_27
REMARK   11  A    between atoms: C_27  and  C_28
REMARK                            x       y       z     vdW  Elec       q    Type
REMARK                         _______ _______ _______ _____ _____    ______ ____
ROOT
ATOM      1  C   UNK A   0       0.418   9.879  21.191  0.00  0.00    +0.000 A 
ATOM      2  C   UNK A   0       0.970   8.741  21.804  0.00  0.00    +0.000 A 
ATOM      3  C   UNK A   0       1.686   7.800  21.071  0.00  0.00    +0.000 A 
ATOM      4  C   UNK A   0       1.870   7.979  19.700  0.00  0.00    +0.000 A 
ATOM      5  C   UNK A   0       1.331   9.105  19.068  0.00  0.00    +0.000 A 
ATOM      6  C   UNK A   0       0.639  10.081  19.810  0.00  0.00    +0.000 A 
ENDROOT
BRANCH   4   7
ATOM      7  C   UNK A   0       2.703   6.977  18.986  0.00  0.00    +0.000 C 
ATOM      8  O   UNK A   0       3.055   7.184  17.829  0.00  0.00    +0.000 OA
ATOM      9  N   TRP A   1       3.092   5.875  19.700  0.00  0.00    +0.000 N 
ATOM     10  H   TRP A   1       2.870   5.800  20.690  0.00  0.00    +0.000 HD
BRANCH   9  11
ATOM     11  CA  TRP A   1       4.042   4.886  19.175  0.00  0.00    +0.000 C 
BRANCH  11  12
ATOM     12  C   TRP A   1       3.668   3.524  19.789  0.00  0.00    +0.000 C 
ATOM     13  O   TRP A   1       4.197   2.465  19.470  0.00  0.00    +0.000 OA
BRANCH  12  14
ATOM     14  OXT TRP A   1       2.726   3.575  20.760  0.00  0.00    +0.000 OA
ATOM     15  HXT TRP A   1       2.078   2.848  20.748  0.00  0.00    +0.000 HD
ENDBRANCH  12  14
ENDBRANCH  11  12
BRANCH  11  16
ATOM     16  CB  TRP A   1       5.524   5.245  19.428  0.00  0.00    +0.000 C 
BRANCH  16  17
ATOM     17  CG  TRP A   1       6.288   5.518  18.169  0.00  0.00    +0.000 A 
ATOM     18  CD1 TRP A   1       7.281   6.467  18.016  0.00  0.00    +0.000 A 
ATOM     19  NE1 TRP A   1       7.595   6.541  16.686  0.00  0.00    +0.000 N 
ATOM     20  CE2 TRP A   1       6.934   5.560  15.987  0.00  0.00    +0.000 A 
ATOM     21  CZ2 TRP A   1       6.988   5.233  14.628  0.00  0.00    +0.000 A 
ATOM     22  CH2 TRP A   1       6.233   4.140  14.193  0.00  0.00    +0.000 A 
ATOM     23  CZ3 TRP A   1       5.447   3.414  15.083  0.00  0.00    +0.000 A 
ATOM     24  CE3 TRP A   1       5.382   3.775  16.434  0.00  0.00    +0.000 A 
ATOM     25  CD2 TRP A   1       6.137   4.871  16.901  0.00  0.00    +0.000 A 
ATOM     26  HE1 TRP A   1       8.233   7.208  16.275  0.00  0.00    +0.000 HD
ENDBRANCH  16  17
ENDBRANCH  11  16
ENDBRANCH   9  11
ENDBRANCH   4   7
BRANCH   1  27
ATOM     27  N   UNK A   0      -0.233  10.798  22.030  0.00  0.00    +0.000 N 
ATOM     28  H   UNK A   0      -0.538  10.412  22.921  0.00  0.00    +0.000 HD
ATOM     29  H   UNK A   0      -0.985  11.288  21.559  0.00  0.00    +0.000 HD
ENDBRANCH   1  27
BRANCH   6  30
ATOM     30  O   UNK A   0       0.247  11.161  19.044  0.00  0.00    +0.000 OA
BRANCH  30  31
ATOM     31  C   UNK A   0      -0.957  11.011  18.278  0.00  0.00    +0.000 C 
BRANCH  31  32
ATOM     32  C   UNK A   0      -1.992  12.079  18.661  0.00  0.00    +0.000 C 
BRANCH  32  33
ATOM     33  C   UNK A   0      -3.358  11.753  18.129  0.00  0.00    +0.000 A 
ATOM     34  C   UNK A   0      -3.638  11.268  16.866  0.00  0.00    +0.000 A 
ATOM     35  N   UNK A   0      -4.989  11.085  16.749  0.00  0.00    +0.000 N 
ATOM     36  C   UNK A   0      -5.615  11.431  17.919  0.00  0.00    +0.000 A 
ATOM     37  C   UNK A   0      -6.979  11.379  18.259  0.00  0.00    +0.000 A 
ATOM     38  C   UNK A   0      -7.346  11.801  19.538  0.00  0.00    +0.000 A 
ATOM     39  C   UNK A   0      -6.391  12.267  20.435  0.00  0.00    +0.000 A 
ATOM     40  C   UNK A   0      -5.033  12.317  20.080  0.00  0.00    +0.000 A 
ATOM     41  C   UNK A   0      -4.629  11.878  18.804  0.00  0.00    +0.000 A 
ATOM     42  H   UNK A   0      -5.462  10.741  15.928  0.00  0.00    +0.000 HD
ENDBRANCH  32  33
ENDBRANCH  31  32
ENDBRANCH  30  31
ENDBRANCH   6  30
TORSDOF 11
ENDMDL
MODEL 9
REMARK VINA RESULT:      -8.4      1.763      9.467
REMARK  Name = 
REMARK  11 active torsions:
REMARK  status: ('A' for Active; 'I' for Inactive)
REMARK    1  A    between atoms: N_1  and  C_2
REMARK    2  A    between atoms: C_5  and  C_6
REMARK    3  A    between atoms: N_8  and  CA_9
REMARK    4  A    between atoms: CA_9  and  CB_10
REMARK    5  A    between atoms: CA_9  and  C_20
REMARK    6  A    between atoms: CB_10  and  CG_11
REMARK    7  A    between atoms: C_20  and  OXT_22
REMARK    8  A    between atoms: C_24  and  O_25
REMARK    9  A    between atoms: O_25  and  C_26
REMARK   10  A    between atoms: C_26  and  C_27
REMARK   11  A    between atoms: C_27  and  C_28
REMARK                            x       y       z     vdW  Elec       q    Type
REMARK                         _______ _______ _______ _____ _____    ______ ____
ROOT
ATOM      1  C   UNK A   0       9.035  12.069  18.285  0.00  0.00    +0.000 A 
ATOM      2  C   UNK A   0       8.041  11.605  17.407  0.00  0.00    +0.000 A 
ATOM      3  C   UNK A   0       7.715  10.255  17.334  0.00  0.00    +0.000 A 
ATOM      4  C   UNK A   0       8.378   9.333  18.144  0.00  0.00    +0.000 A 
ATOM      5  C   UNK A   0       9.370   9.772  19.028  0.00  0.00    +0.000 A 
ATOM      6  C   UNK A   0       9.678  11.142  19.136  0.00  0.00    +0.000 A 
ENDROOT
BRANCH   4   7
ATOM      7  C   UNK A   0       7.936   7.916  18.071  0.00  0.00    +0.000 C 
ATOM      8  O   UNK A   0       8.363   7.098  18.879  0.00  0.00    +0.000 OA
ATOM      9  N   TRP A   1       7.005   7.608  17.115  0.00  0.00    +0.000 N 
ATOM     10  H   TRP A   1       6.596   8.342  16.542  0.00  0.00    +0.000 HD
BRANCH   9  11
ATOM     11  CA  TRP A   1       6.364   6.290  17.031  0.00  0.00    +0.000 C 
BRANCH  11  12
ATOM     12  C   TRP A   1       7.332   5.361  16.274  0.00  0.00    +0.000 C 
ATOM     13  O   TRP A   1       7.521   5.416  15.064  0.00  0.00    +0.000 OA
BRANCH  12  14
ATOM     14  OXT TRP A   1       8.011   4.486  17.053  0.00  0.00    +0.000 OA
ATOM     15  HXT TRP A   1       8.053   3.575  16.714  0.00  0.00    +0.000 HD
ENDBRANCH  12  14
ENDBRANCH  11  12
BRANCH  11  16
ATOM     16  CB  TRP A   1       4.962   6.314  16.381  0.00  0.00    +0.000 C 
BRANCH  16  17
ATOM     17  CG  TRP A   1       3.851   6.122  17.367  0.00  0.00    +0.000 A 
ATOM     18  CD1 TRP A   1       3.304   7.105  18.170  0.00  0.00    +0.000 A 
ATOM     19  NE1 TRP A   1       2.457   6.502  19.060  0.00  0.00    +0.000 N 
ATOM     20  CE2 TRP A   1       2.326   5.167  18.761  0.00  0.00    +0.000 A 
ATOM     21  CZ2 TRP A   1       1.536   4.184  19.366  0.00  0.00    +0.000 A 
ATOM     22  CH2 TRP A   1       1.566   2.899  18.816  0.00  0.00    +0.000 A 
ATOM     23  CZ3 TRP A   1       2.365   2.611  17.714  0.00  0.00    +0.000 A 
ATOM     24  CE3 TRP A   1       3.172   3.601  17.141  0.00  0.00    +0.000 A 
ATOM     25  CD2 TRP A   1       3.159   4.907  17.673  0.00  0.00    +0.000 A 
ATOM     26  HE1 TRP A   1       1.981   6.970  19.819  0.00  0.00    +0.000 HD
ENDBRANCH  16  17
ENDBRANCH  11  16
ENDBRANCH   9  11
ENDBRANCH   4   7
BRANCH   1  27
ATOM     27  N   UNK A   0       9.245  13.457  18.328  0.00  0.00    +0.000 N 
ATOM     28  H   UNK A   0      10.118  13.764  17.905  0.00  0.00    +0.000 HD
ATOM     29  H   UNK A   0       9.128  13.839  19.260  0.00  0.00    +0.000 HD
ENDBRANCH   1  27
BRANCH   6  30
ATOM     30  O   UNK A   0      10.620  11.406  20.110  0.00  0.00    +0.000 OA
BRANCH  30  31
ATOM     31  C   UNK A   0      10.233  12.300  21.164  0.00  0.00    +0.000 C 
BRANCH  31  32
ATOM     32  C   UNK A   0       9.030  11.747  21.943  0.00  0.00    +0.000 C 
BRANCH  32  33
ATOM     33  C   UNK A   0       8.393  12.795  22.809  0.00  0.00    +0.000 A 
ATOM     34  C   UNK A   0       8.615  14.157  22.725  0.00  0.00    +0.000 A 
ATOM     35  N   UNK A   0       7.854  14.791  23.669  0.00  0.00    +0.000 N 
ATOM     36  C   UNK A   0       7.119  13.874  24.376  0.00  0.00    +0.000 A 
ATOM     37  C   UNK A   0       6.189  14.074  25.412  0.00  0.00    +0.000 A 
ATOM     38  C   UNK A   0       5.578  12.946  25.963  0.00  0.00    +0.000 A 
ATOM     39  C   UNK A   0       5.896  11.671  25.507  0.00  0.00    +0.000 A 
ATOM     40  C   UNK A   0       6.829  11.487  24.475  0.00  0.00    +0.000 A 
ATOM     41  C   UNK A   0       7.445  12.607  23.883  0.00  0.00    +0.000 A 
ATOM     42  H   UNK A   0       7.828  15.786  23.825  0.00  0.00    +0.000 HD
ENDBRANCH  32  33
ENDBRANCH  31  32
ENDBRANCH  30  31
ENDBRANCH   6  30
TORSDOF 11
ENDMDL
