MODEL 1
REMARK VINA RESULT:      -7.6      0.000      0.000
REMARK  Name = 
REMARK  3 active torsions:
REMARK  status: ('A' for Active; 'I' for Inactive)
REMARK    1  A    between atoms: C_5  and  C_6
REMARK    2  A    between atoms: C_6  and  S_7
REMARK    3  A    between atoms: S_7  and  C_8
REMARK                            x       y       z     vdW  Elec       q    Type
REMARK                         _______ _______ _______ _____ _____    ______ ____
ROOT
ATOM      1  O   UNL     1       1.648   6.544  20.304  0.00  0.00    +0.000 OA
ATOM      2  C   UNL     1       2.399   5.975  19.519  0.00  0.00    +0.000 A 
ATOM      3  N   UNL     1       3.475   6.602  18.944  0.00  0.00    +0.000 N 
ATOM      4  N   UNL     1       4.378   6.036  18.101  0.00  0.00    +0.000 NA
ATOM      5  C   UNL     1       4.226   4.786  17.768  0.00  0.00    +0.000 A 
ATOM      6  C   UNL     1       3.096   3.956  18.269  0.00  0.00    +0.000 A 
ATOM      7  C   UNL     1       2.895   2.618  17.914  0.00  0.00    +0.000 A 
ATOM      8  C   UNL     1       1.788   1.916  18.404  0.00  0.00    +0.000 A 
ATOM      9  C   UNL     1       0.893   2.534  19.274  0.00  0.00    +0.000 A 
ATOM     10  C   UNL     1       1.097   3.860  19.652  0.00  0.00    +0.000 A 
ATOM     11  C   UNL     1       2.192   4.568  19.141  0.00  0.00    +0.000 A 
ATOM     12  H   UNL     1       3.637   7.572  19.198  0.00  0.00    +0.000 HD
ENDROOT
BRANCH   5  13
ATOM     13  C   UNL     1       5.301   4.168  16.884  0.00  0.00    +0.000 C 
BRANCH  13  14
ATOM     14  S   UNL     1       6.530   5.408  16.360  0.00  0.00    +0.000 S 
BRANCH  14  15
ATOM     15  C   UNL     1       6.776   4.895  14.666  0.00  0.00    +0.000 A 
ATOM     16  C   UNL     1       5.957   3.907  14.130  0.00  0.00    +0.000 A 
ATOM     17  C   UNL     1       6.125   3.546  12.794  0.00  0.00    +0.000 A 
ATOM     18  C   UNL     1       7.103   4.177  12.036  0.00  0.00    +0.000 A 
ATOM     19  C   UNL     1       7.885   5.137  12.654  0.00  0.00    +0.000 A 
ATOM     20  N   UNL     1       7.746   5.503  13.948  0.00  0.00    +0.000 NA
ENDBRANCH  14  15
ENDBRANCH  13  14
ENDBRANCH   5  13
TORSDOF 3
ENDMDL
MODEL 2
REMARK VINA RESULT:      -7.5      2.927      3.996
REMARK  Name = 
REMARK  3 active torsions:
REMARK  status: ('A' for Active; 'I' for Inactive)
REMARK    1  A    between atoms: C_5  and  C_6
REMARK    2  A    between atoms: C_6  and  S_7
REMARK    3  A    between atoms: S_7  and  C_8
REMARK                            x       y       z     vdW  Elec       q    Type
REMARK                         _______ _______ _______ _____ _____    ______ ____
ROOT
ATOM      1  O   UNL     1       2.235   3.453  21.617  0.00  0.00    +0.000 OA
ATOM      2  C   UNL     1       2.682   3.721  20.507  0.00  0.00    +0.000 A 
ATOM      3  N   UNL     1       3.326   2.792  19.728  0.00  0.00    +0.000 N 
ATOM      4  N   UNL     1       3.811   2.993  18.475  0.00  0.00    +0.000 NA
ATOM      5  C   UNL     1       3.690   4.174  17.939  0.00  0.00    +0.000 A 
ATOM      6  C   UNL     1       3.050   5.315  18.650  0.00  0.00    +0.000 A 
ATOM      7  C   UNL     1       2.924   6.599  18.108  0.00  0.00    +0.000 A 
ATOM      8  C   UNL     1       2.336   7.625  18.855  0.00  0.00    +0.000 A 
ATOM      9  C   UNL     1       1.843   7.371  20.133  0.00  0.00    +0.000 A 
ATOM     10  C   UNL     1       1.942   6.090  20.672  0.00  0.00    +0.000 A 
ATOM     11  C   UNL     1       2.554   5.070  19.932  0.00  0.00    +0.000 A 
ATOM     12  H   UNL     1       3.418   1.854  20.106  0.00  0.00    +0.000 HD
ENDROOT
BRANCH   5  13
ATOM     13  C   UNL     1       4.178   4.337  16.506  0.00  0.00    +0.000 C 
BRANCH  13  14
ATOM     14  S   UNL     1       5.881   3.720  16.304  0.00  0.00    +0.000 S 
BRANCH  14  15
ATOM     15  C   UNL     1       6.769   4.971  17.219  0.00  0.00    +0.000 A 
ATOM     16  C   UNL     1       6.822   6.269  16.721  0.00  0.00    +0.000 A 
ATOM     17  C   UNL     1       7.477   7.249  17.464  0.00  0.00    +0.000 A 
ATOM     18  C   UNL     1       8.060   6.907  18.677  0.00  0.00    +0.000 A 
ATOM     19  C   UNL     1       7.975   5.589  19.091  0.00  0.00    +0.000 A 
ATOM     20  N   UNL     1       7.350   4.618  18.387  0.00  0.00    +0.000 NA
ENDBRANCH  14  15
ENDBRANCH  13  14
ENDBRANCH   5  13
TORSDOF 3
ENDMDL
MODEL 3
REMARK VINA RESULT:      -7.5      2.214      2.602
REMARK  Name = 
REMARK  3 active torsions:
REMARK  status: ('A' for Active; 'I' for Inactive)
REMARK    1  A    between atoms: C_5  and  C_6
REMARK    2  A    between atoms: C_6  and  S_7
REMARK    3  A    between atoms: S_7  and  C_8
REMARK                            x       y       z     vdW  Elec       q    Type
REMARK                         _______ _______ _______ _____ _____    ______ ____
ROOT
ATOM      1  O   UNL     1       5.036   1.541  21.189  0.00  0.00    +0.000 OA
ATOM      2  C   UNL     1       4.733   2.423  20.393  0.00  0.00    +0.000 A 
ATOM      3  N   UNL     1       5.636   2.960  19.511  0.00  0.00    +0.000 N 
ATOM      4  N   UNL     1       5.375   3.905  18.570  0.00  0.00    +0.000 NA
ATOM      5  C   UNL     1       4.167   4.386  18.484  0.00  0.00    +0.000 A 
ATOM      6  C   UNL     1       3.065   3.945  19.382  0.00  0.00    +0.000 A 
ATOM      7  C   UNL     1       1.763   4.457  19.326  0.00  0.00    +0.000 A 
ATOM      8  C   UNL     1       0.791   4.012  20.228  0.00  0.00    +0.000 A 
ATOM      9  C   UNL     1       1.101   3.034  21.170  0.00  0.00    +0.000 A 
ATOM     10  C   UNL     1       2.388   2.501  21.219  0.00  0.00    +0.000 A 
ATOM     11  C   UNL     1       3.367   2.965  20.331  0.00  0.00    +0.000 A 
ATOM     12  H   UNL     1       6.583   2.593  19.535  0.00  0.00    +0.000 HD
ENDROOT
BRANCH   5  13
ATOM     13  C   UNL     1       3.898   5.386  17.368  0.00  0.00    +0.000 C 
BRANCH  13  14
ATOM     14  S   UNL     1       5.394   6.337  16.946  0.00  0.00    +0.000 S 
BRANCH  14  15
ATOM     15  C   UNL     1       5.929   5.437  15.498  0.00  0.00    +0.000 A 
ATOM     16  C   UNL     1       5.041   4.570  14.871  0.00  0.00    +0.000 A 
ATOM     17  C   UNL     1       5.451   3.907  13.716  0.00  0.00    +0.000 A 
ATOM     18  C   UNL     1       6.731   4.126  13.223  0.00  0.00    +0.000 A 
ATOM     19  C   UNL     1       7.556   4.992  13.920  0.00  0.00    +0.000 A 
ATOM     20  N   UNL     1       7.185   5.644  15.044  0.00  0.00    +0.000 NA
ENDBRANCH  14  15
ENDBRANCH  13  14
ENDBRANCH   5  13
TORSDOF 3
ENDMDL
MODEL 4
REMARK VINA RESULT:      -7.4      2.664      3.936
REMARK  Name = 
REMARK  3 active torsions:
REMARK  status: ('A' for Active; 'I' for Inactive)
REMARK    1  A    between atoms: C_5  and  C_6
REMARK    2  A    between atoms: C_6  and  S_7
REMARK    3  A    between atoms: S_7  and  C_8
REMARK                            x       y       z     vdW  Elec       q    Type
REMARK                         _______ _______ _______ _____ _____    ______ ____
ROOT
ATOM      1  O   UNL     1       2.475   3.639  21.037  0.00  0.00    +0.000 OA
ATOM      2  C   UNL     1       2.974   3.883  19.944  0.00  0.00    +0.000 A 
ATOM      3  N   UNL     1       3.640   2.933  19.210  0.00  0.00    +0.000 N 
ATOM      4  N   UNL     1       4.183   3.107  17.977  0.00  0.00    +0.000 NA
ATOM      5  C   UNL     1       4.102   4.280  17.416  0.00  0.00    +0.000 A 
ATOM      6  C   UNL     1       3.445   5.440  18.079  0.00  0.00    +0.000 A 
ATOM      7  C   UNL     1       3.360   6.716  17.512  0.00  0.00    +0.000 A 
ATOM      8  C   UNL     1       2.753   7.762  18.214  0.00  0.00    +0.000 A 
ATOM      9  C   UNL     1       2.201   7.536  19.473  0.00  0.00    +0.000 A 
ATOM     10  C   UNL     1       2.259   6.263  20.037  0.00  0.00    +0.000 A 
ATOM     11  C   UNL     1       2.889   5.223  19.342  0.00  0.00    +0.000 A 
ATOM     12  H   UNL     1       3.703   2.000  19.606  0.00  0.00    +0.000 HD
ENDROOT
BRANCH   5  13
ATOM     13  C   UNL     1       4.654   4.413  16.004  0.00  0.00    +0.000 C 
BRANCH  13  14
ATOM     14  S   UNL     1       6.437   4.041  15.945  0.00  0.00    +0.000 S 
BRANCH  14  15
ATOM     15  C   UNL     1       7.059   5.365  16.972  0.00  0.00    +0.000 A 
ATOM     16  C   UNL     1       7.597   5.063  18.218  0.00  0.00    +0.000 A 
ATOM     17  C   UNL     1       8.121   6.096  18.993  0.00  0.00    +0.000 A 
ATOM     18  C   UNL     1       8.091   7.395  18.505  0.00  0.00    +0.000 A 
ATOM     19  C   UNL     1       7.522   7.610  17.262  0.00  0.00    +0.000 A 
ATOM     20  N   UNL     1       7.002   6.627  16.492  0.00  0.00    +0.000 NA
ENDBRANCH  14  15
ENDBRANCH  13  14
ENDBRANCH   5  13
TORSDOF 3
ENDMDL
MODEL 5
REMARK VINA RESULT:      -7.4      2.732      3.923
REMARK  Name = 
REMARK  3 active torsions:
REMARK  status: ('A' for Active; 'I' for Inactive)
REMARK    1  A    between atoms: C_5  and  C_6
REMARK    2  A    between atoms: C_6  and  S_7
REMARK    3  A    between atoms: S_7  and  C_8
REMARK                            x       y       z     vdW  Elec       q    Type
REMARK                         _______ _______ _______ _____ _____    ______ ____
ROOT
ATOM      1  O   UNL     1       1.712   1.788  19.984  0.00  0.00    +0.000 OA
ATOM      2  C   UNL     1       2.350   2.433  19.158  0.00  0.00    +0.000 A 
ATOM      3  N   UNL     1       3.021   1.839  18.119  0.00  0.00    +0.000 N 
ATOM      4  N   UNL     1       3.713   2.479  17.141  0.00  0.00    +0.000 NA
ATOM      5  C   UNL     1       3.786   3.779  17.172  0.00  0.00    +0.000 A 
ATOM      6  C   UNL     1       3.147   4.590  18.245  0.00  0.00    +0.000 A 
ATOM      7  C   UNL     1       3.224   5.986  18.317  0.00  0.00    +0.000 A 
ATOM      8  C   UNL     1       2.622   6.672  19.377  0.00  0.00    +0.000 A 
ATOM      9  C   UNL     1       1.914   5.975  20.354  0.00  0.00    +0.000 A 
ATOM     10  C   UNL     1       1.811   4.588  20.278  0.00  0.00    +0.000 A 
ATOM     11  C   UNL     1       2.436   3.900  19.230  0.00  0.00    +0.000 A 
ATOM     12  H   UNL     1       2.968   0.828  18.050  0.00  0.00    +0.000 HD
ENDROOT
BRANCH   5  13
ATOM     13  C   UNL     1       4.505   4.462  16.017  0.00  0.00    +0.000 C 
BRANCH  13  14
ATOM     14  S   UNL     1       6.266   3.998  15.957  0.00  0.00    +0.000 S 
BRANCH  14  15
ATOM     15  C   UNL     1       6.952   5.276  17.001  0.00  0.00    +0.000 A 
ATOM     16  C   UNL     1       7.272   4.976  18.321  0.00  0.00    +0.000 A 
ATOM     17  C   UNL     1       7.849   5.966  19.114  0.00  0.00    +0.000 A 
ATOM     18  C   UNL     1       8.089   7.221  18.571  0.00  0.00    +0.000 A 
ATOM     19  C   UNL     1       7.725   7.439  17.253  0.00  0.00    +0.000 A 
ATOM     20  N   UNL     1       7.159   6.499  16.464  0.00  0.00    +0.000 NA
ENDBRANCH  14  15
ENDBRANCH  13  14
ENDBRANCH   5  13
TORSDOF 3
ENDMDL
MODEL 6
REMARK VINA RESULT:      -7.2      2.493      3.195
REMARK  Name = 
REMARK  3 active torsions:
REMARK  status: ('A' for Active; 'I' for Inactive)
REMARK    1  A    between atoms: C_5  and  C_6
REMARK    2  A    between atoms: C_6  and  S_7
REMARK    3  A    between atoms: S_7  and  C_8
REMARK                            x       y       z     vdW  Elec       q    Type
REMARK                         _______ _______ _______ _____ _____    ______ ____
ROOT
ATOM      1  O   UNL     1       1.821   7.355  20.370  0.00  0.00    +0.000 OA
ATOM      2  C   UNL     1       2.369   6.565  19.609  0.00  0.00    +0.000 A 
ATOM      3  N   UNL     1       2.840   6.937  18.374  0.00  0.00    +0.000 N 
ATOM      4  N   UNL     1       3.494   6.140  17.491  0.00  0.00    +0.000 NA
ATOM      5  C   UNL     1       3.692   4.890  17.802  0.00  0.00    +0.000 A 
ATOM      6  C   UNL     1       3.221   4.301  19.086  0.00  0.00    +0.000 A 
ATOM      7  C   UNL     1       3.401   2.959  19.439  0.00  0.00    +0.000 A 
ATOM      8  C   UNL     1       2.900   2.476  20.652  0.00  0.00    +0.000 A 
ATOM      9  C   UNL     1       2.243   3.332  21.533  0.00  0.00    +0.000 A 
ATOM     10  C   UNL     1       2.079   4.676  21.201  0.00  0.00    +0.000 A 
ATOM     11  C   UNL     1       2.560   5.152  19.975  0.00  0.00    +0.000 A 
ATOM     12  H   UNL     1       2.722   7.910  18.108  0.00  0.00    +0.000 HD
ENDROOT
BRANCH   5  13
ATOM     13  C   UNL     1       4.496   4.050  16.819  0.00  0.00    +0.000 C 
BRANCH  13  14
ATOM     14  S   UNL     1       5.490   5.093  15.703  0.00  0.00    +0.000 S 
BRANCH  14  15
ATOM     15  C   UNL     1       6.550   5.894  16.899  0.00  0.00    +0.000 A 
ATOM     16  C   UNL     1       7.064   5.150  17.956  0.00  0.00    +0.000 A 
ATOM     17  C   UNL     1       7.926   5.771  18.858  0.00  0.00    +0.000 A 
ATOM     18  C   UNL     1       8.248   7.110  18.681  0.00  0.00    +0.000 A 
ATOM     19  C   UNL     1       7.679   7.779  17.611  0.00  0.00    +0.000 A 
ATOM     20  N   UNL     1       6.836   7.203  16.725  0.00  0.00    +0.000 NA
ENDBRANCH  14  15
ENDBRANCH  13  14
ENDBRANCH   5  13
TORSDOF 3
ENDMDL
MODEL 7
REMARK VINA RESULT:      -7.2      2.852      6.463
REMARK  Name = 
REMARK  3 active torsions:
REMARK  status: ('A' for Active; 'I' for Inactive)
REMARK    1  A    between atoms: C_5  and  C_6
REMARK    2  A    between atoms: C_6  and  S_7
REMARK    3  A    between atoms: S_7  and  C_8
REMARK                            x       y       z     vdW  Elec       q    Type
REMARK                         _______ _______ _______ _____ _____    ______ ____
ROOT
ATOM      1  O   UNL     1       8.411   4.382  18.534  0.00  0.00    +0.000 OA
ATOM      2  C   UNL     1       7.277   4.813  18.357  0.00  0.00    +0.000 A 
ATOM      3  N   UNL     1       6.467   5.204  19.393  0.00  0.00    +0.000 N 
ATOM      4  N   UNL     1       5.219   5.730  19.282  0.00  0.00    +0.000 NA
ATOM      5  C   UNL     1       4.702   5.871  18.095  0.00  0.00    +0.000 A 
ATOM      6  C   UNL     1       5.423   5.470  16.856  0.00  0.00    +0.000 A 
ATOM      7  C   UNL     1       4.886   5.591  15.569  0.00  0.00    +0.000 A 
ATOM      8  C   UNL     1       5.616   5.160  14.456  0.00  0.00    +0.000 A 
ATOM      9  C   UNL     1       6.897   4.635  14.616  0.00  0.00    +0.000 A 
ATOM     10  C   UNL     1       7.450   4.533  15.891  0.00  0.00    +0.000 A 
ATOM     11  C   UNL     1       6.707   4.941  17.006  0.00  0.00    +0.000 A 
ATOM     12  H   UNL     1       6.847   5.128  20.332  0.00  0.00    +0.000 HD
ENDROOT
BRANCH   5  13
ATOM     13  C   UNL     1       3.335   6.535  18.010  0.00  0.00    +0.000 C 
BRANCH  13  14
ATOM     14  S   UNL     1       2.493   6.544  19.626  0.00  0.00    +0.000 S 
BRANCH  14  15
ATOM     15  C   UNL     1       1.921   4.852  19.681  0.00  0.00    +0.000 A 
ATOM     16  C   UNL     1       1.773   4.225  20.914  0.00  0.00    +0.000 A 
ATOM     17  C   UNL     1       1.283   2.921  20.951  0.00  0.00    +0.000 A 
ATOM     18  C   UNL     1       0.958   2.282  19.762  0.00  0.00    +0.000 A 
ATOM     19  C   UNL     1       1.153   2.973  18.578  0.00  0.00    +0.000 A 
ATOM     20  N   UNL     1       1.631   4.236  18.514  0.00  0.00    +0.000 NA
ENDBRANCH  14  15
ENDBRANCH  13  14
ENDBRANCH   5  13
TORSDOF 3
ENDMDL
MODEL 8
REMARK VINA RESULT:      -7.1      2.657      4.048
REMARK  Name = 
REMARK  3 active torsions:
REMARK  status: ('A' for Active; 'I' for Inactive)
REMARK    1  A    between atoms: C_5  and  C_6
REMARK    2  A    between atoms: C_6  and  S_7
REMARK    3  A    between atoms: S_7  and  C_8
REMARK                            x       y       z     vdW  Elec       q    Type
REMARK                         _______ _______ _______ _____ _____    ______ ____
ROOT
ATOM      1  O   UNL     1       2.649   2.327  19.851  0.00  0.00    +0.000 OA
ATOM      2  C   UNL     1       3.175   2.907  18.908  0.00  0.00    +0.000 A 
ATOM      3  N   UNL     1       3.858   2.239  17.922  0.00  0.00    +0.000 N 
ATOM      4  N   UNL     1       4.432   2.798  16.824  0.00  0.00    +0.000 NA
ATOM      5  C   UNL     1       4.367   4.090  16.672  0.00  0.00    +0.000 A 
ATOM      6  C   UNL     1       3.695   4.979  17.659  0.00  0.00    +0.000 A 
ATOM      7  C   UNL     1       3.626   6.371  17.533  0.00  0.00    +0.000 A 
ATOM      8  C   UNL     1       3.003   7.139  18.522  0.00  0.00    +0.000 A 
ATOM      9  C   UNL     1       2.419   6.523  19.626  0.00  0.00    +0.000 A 
ATOM     10  C   UNL     1       2.461   5.136  19.749  0.00  0.00    +0.000 A 
ATOM     11  C   UNL     1       3.108   4.370  18.770  0.00  0.00    +0.000 A 
ATOM     12  H   UNL     1       3.910   1.228  17.997  0.00  0.00    +0.000 HD
ENDROOT
BRANCH   5  13
ATOM     13  C   UNL     1       4.956   4.667  15.392  0.00  0.00    +0.000 C 
BRANCH  13  14
ATOM     14  S   UNL     1       6.750   4.368  15.286  0.00  0.00    +0.000 S 
BRANCH  14  15
ATOM     15  C   UNL     1       7.290   5.230  16.755  0.00  0.00    +0.000 A 
ATOM     16  C   UNL     1       7.278   6.621  16.769  0.00  0.00    +0.000 A 
ATOM     17  C   UNL     1       7.657   7.285  17.935  0.00  0.00    +0.000 A 
ATOM     18  C   UNL     1       8.036   6.546  19.047  0.00  0.00    +0.000 A 
ATOM     19  C   UNL     1       8.034   5.165  18.941  0.00  0.00    +0.000 A 
ATOM     20  N   UNL     1       7.676   4.497  17.822  0.00  0.00    +0.000 NA
ENDBRANCH  14  15
ENDBRANCH  13  14
ENDBRANCH   5  13
TORSDOF 3
ENDMDL
MODEL 9
REMARK VINA RESULT:      -7.1      2.889      5.830
REMARK  Name = 
REMARK  3 active torsions:
REMARK  status: ('A' for Active; 'I' for Inactive)
REMARK    1  A    between atoms: C_5  and  C_6
REMARK    2  A    between atoms: C_6  and  S_7
REMARK    3  A    between atoms: S_7  and  C_8
REMARK                            x       y       z     vdW  Elec       q    Type
REMARK                         _______ _______ _______ _____ _____    ______ ____
ROOT
ATOM      1  O   UNL     1       8.691   4.087  18.038  0.00  0.00    +0.000 OA
ATOM      2  C   UNL     1       7.586   4.619  18.026  0.00  0.00    +0.000 A 
ATOM      3  N   UNL     1       7.010   5.145  19.156  0.00  0.00    +0.000 N 
ATOM      4  N   UNL     1       5.814   5.786  19.222  0.00  0.00    +0.000 NA
ATOM      5  C   UNL     1       5.110   5.913  18.133  0.00  0.00    +0.000 A 
ATOM      6  C   UNL     1       5.561   5.374  16.821  0.00  0.00    +0.000 A 
ATOM      7  C   UNL     1       4.818   5.477  15.640  0.00  0.00    +0.000 A 
ATOM      8  C   UNL     1       5.299   4.915  14.452  0.00  0.00    +0.000 A 
ATOM      9  C   UNL     1       6.536   4.274  14.429  0.00  0.00    +0.000 A 
ATOM     10  C   UNL     1       7.294   4.187  15.594  0.00  0.00    +0.000 A 
ATOM     11  C   UNL     1       6.800   4.729  16.788  0.00  0.00    +0.000 A 
ATOM     12  H   UNL     1       7.541   5.083  20.019  0.00  0.00    +0.000 HD
ENDROOT
BRANCH   5  13
ATOM     13  C   UNL     1       3.813   6.704  18.236  0.00  0.00    +0.000 C 
BRANCH  13  14
ATOM     14  S   UNL     1       2.685   5.984  19.472  0.00  0.00    +0.000 S 
BRANCH  14  15
ATOM     15  C   UNL     1       2.843   4.253  19.057  0.00  0.00    +0.000 A 
ATOM     16  C   UNL     1       2.313   3.792  17.856  0.00  0.00    +0.000 A 
ATOM     17  C   UNL     1       2.481   2.451  17.518  0.00  0.00    +0.000 A 
ATOM     18  C   UNL     1       3.166   1.611  18.385  0.00  0.00    +0.000 A 
ATOM     19  C   UNL     1       3.646   2.148  19.567  0.00  0.00    +0.000 A 
ATOM     20  N   UNL     1       3.493   3.444  19.921  0.00  0.00    +0.000 NA
ENDBRANCH  14  15
ENDBRANCH  13  14
ENDBRANCH   5  13
TORSDOF 3
ENDMDL
