MODEL 1
REMARK VINA RESULT:      -7.0      0.000      0.000
REMARK  Name = 
REMARK  8 active torsions:
REMARK  status: ('A' for Active; 'I' for Inactive)
REMARK    1  A    between atoms: C_1  and  C_2
REMARK    2  A    between atoms: C_2  and  C_3
REMARK    3  A    between atoms: C_3  and  C_4
REMARK    4  A    between atoms: C_4  and  C_5
REMARK    5  A    between atoms: C_5  and  C_6
REMARK    6  A    between atoms: C_6  and  C_7
REMARK    7  A    between atoms: N_11  and  C_12
REMARK    8  A    between atoms: C_12  and  C_13
REMARK                            x       y       z     vdW  Elec       q    Type
REMARK                         _______ _______ _______ _____ _____    ______ ____
ROOT
ATOM      1  C   UNL     1       7.166   6.267  16.973  0.00  0.00    +0.000 C 
ATOM      2  N   UNL     1       7.356   5.699  18.286  0.00  0.00    +0.000 N 
ATOM      3  C   UNL     1       6.160   5.518  18.951  0.00  0.00    +0.000 C 
ATOM      4  O   UNL     1       6.075   4.913  20.006  0.00  0.00    +0.000 OA
ATOM      5  N   UNL     1       5.162   6.072  18.205  0.00  0.00    +0.000 N 
ATOM      6  C   UNL     1       5.652   6.524  17.012  0.00  0.00    +0.000 C 
ATOM      7  O   UNL     1       5.007   7.024  16.098  0.00  0.00    +0.000 OA
ATOM      8  H   UNL     1       8.210   5.288  18.638  0.00  0.00    +0.000 HD
ENDROOT
BRANCH   1   9
ATOM      9  C   UNL     1       7.517   5.252  15.860  0.00  0.00    +0.000 C 
BRANCH   9  11
ATOM     10  C   UNL     1       5.977   4.048  14.242  0.00  0.00    +0.000 C 
ATOM     11  C   UNL     1       6.486   4.127  15.672  0.00  0.00    +0.000 C 
ENDBRANCH   9  11
ENDBRANCH   1   9
BRANCH   1  12
ATOM     12  C   UNL     1       7.948   7.579  16.791  0.00  0.00    +0.000 C 
BRANCH  12  13
ATOM     13  C   UNL     1       7.534   8.724  17.727  0.00  0.00    +0.000 C 
ATOM     14  C   UNL     1       8.700   9.142  18.611  0.00  0.00    +0.000 C 
ENDBRANCH  12  13
ENDBRANCH   1  12
BRANCH   5  15
ATOM     15  C   UNL     1       3.753   6.055  18.557  0.00  0.00    +0.000 C 
BRANCH  15  16
ATOM     16  C   UNL     1       3.114   4.687  18.407  0.00  0.00    +0.000 A 
ATOM     17  C   UNL     1       3.077   4.068  17.141  0.00  0.00    +0.000 A 
ATOM     18  C   UNL     1       2.480   2.822  16.974  0.00  0.00    +0.000 A 
ATOM     19  C   UNL     1       1.930   2.173  18.072  0.00  0.00    +0.000 A 
ATOM     20  C   UNL     1       1.996   2.759  19.347  0.00  0.00    +0.000 A 
ATOM     21  C   UNL     1       1.472   2.095  20.464  0.00  0.00    +0.000 A 
ATOM     22  C   UNL     1       1.560   2.679  21.720  0.00  0.00    +0.000 A 
ATOM     23  C   UNL     1       2.175   3.910  21.813  0.00  0.00    +0.000 A 
ATOM     24  N   UNL     1       2.694   4.574  20.758  0.00  0.00    +0.000 NA
ATOM     25  C   UNL     1       2.602   4.024  19.530  0.00  0.00    +0.000 A 
ENDBRANCH  15  16
ENDBRANCH   5  15
TORSDOF 6
ENDMDL
MODEL 2
REMARK VINA RESULT:      -7.0      0.838      3.088
REMARK  Name = 
REMARK  8 active torsions:
REMARK  status: ('A' for Active; 'I' for Inactive)
REMARK    1  A    between atoms: C_1  and  C_2
REMARK    2  A    between atoms: C_2  and  C_3
REMARK    3  A    between atoms: C_3  and  C_4
REMARK    4  A    between atoms: C_4  and  C_5
REMARK    5  A    between atoms: C_5  and  C_6
REMARK    6  A    between atoms: C_6  and  C_7
REMARK    7  A    between atoms: N_11  and  C_12
REMARK    8  A    between atoms: C_12  and  C_13
REMARK                            x       y       z     vdW  Elec       q    Type
REMARK                         _______ _______ _______ _____ _____    ______ ____
ROOT
ATOM      1  C   UNL     1       6.882   6.175  17.428  0.00  0.00    +0.000 C 
ATOM      2  N   UNL     1       6.109   6.944  16.484  0.00  0.00    +0.000 N 
ATOM      3  C   UNL     1       4.779   7.026  16.846  0.00  0.00    +0.000 C 
ATOM      4  O   UNL     1       3.982   7.752  16.277  0.00  0.00    +0.000 OA
ATOM      5  N   UNL     1       4.575   6.223  17.928  0.00  0.00    +0.000 N 
ATOM      6  C   UNL     1       5.759   5.691  18.358  0.00  0.00    +0.000 C 
ATOM      7  O   UNL     1       5.926   4.972  19.337  0.00  0.00    +0.000 OA
ATOM      8  H   UNL     1       6.480   7.530  15.748  0.00  0.00    +0.000 HD
ENDROOT
BRANCH   1   9
ATOM      9  C   UNL     1       7.881   7.066  18.202  0.00  0.00    +0.000 C 
BRANCH   9  11
ATOM     10  C   UNL     1       8.757   9.407  18.642  0.00  0.00    +0.000 C 
ATOM     11  C   UNL     1       7.972   8.515  17.695  0.00  0.00    +0.000 C 
ENDBRANCH   9  11
ENDBRANCH   1   9
BRANCH   1  12
ATOM     12  C   UNL     1       7.600   4.990  16.761  0.00  0.00    +0.000 C 
BRANCH  12  13
ATOM     13  C   UNL     1       7.134   4.660  15.335  0.00  0.00    +0.000 C 
ATOM     14  C   UNL     1       5.975   3.675  15.363  0.00  0.00    +0.000 C 
ENDBRANCH  12  13
ENDBRANCH   1  12
BRANCH   5  15
ATOM     15  C   UNL     1       3.309   6.067  18.623  0.00  0.00    +0.000 C 
BRANCH  15  16
ATOM     16  C   UNL     1       2.751   4.659  18.546  0.00  0.00    +0.000 A 
ATOM     17  C   UNL     1       2.649   4.015  17.297  0.00  0.00    +0.000 A 
ATOM     18  C   UNL     1       2.124   2.730  17.197  0.00  0.00    +0.000 A 
ATOM     19  C   UNL     1       1.712   2.068  18.346  0.00  0.00    +0.000 A 
ATOM     20  C   UNL     1       1.846   2.680  19.603  0.00  0.00    +0.000 A 
ATOM     21  C   UNL     1       1.463   2.005  20.770  0.00  0.00    +0.000 A 
ATOM     22  C   UNL     1       1.618   2.617  22.006  0.00  0.00    +0.000 A 
ATOM     23  C   UNL     1       2.157   3.886  22.030  0.00  0.00    +0.000 A 
ATOM     24  N   UNL     1       2.540   4.563  20.925  0.00  0.00    +0.000 NA
ATOM     25  C   UNL     1       2.380   3.985  19.718  0.00  0.00    +0.000 A 
ENDBRANCH  15  16
ENDBRANCH   5  15
TORSDOF 6
ENDMDL
MODEL 3
REMARK VINA RESULT:      -6.7      2.331      3.760
REMARK  Name = 
REMARK  8 active torsions:
REMARK  status: ('A' for Active; 'I' for Inactive)
REMARK    1  A    between atoms: C_1  and  C_2
REMARK    2  A    between atoms: C_2  and  C_3
REMARK    3  A    between atoms: C_3  and  C_4
REMARK    4  A    between atoms: C_4  and  C_5
REMARK    5  A    between atoms: C_5  and  C_6
REMARK    6  A    between atoms: C_6  and  C_7
REMARK    7  A    between atoms: N_11  and  C_12
REMARK    8  A    between atoms: C_12  and  C_13
REMARK                            x       y       z     vdW  Elec       q    Type
REMARK                         _______ _______ _______ _____ _____    ______ ____
ROOT
ATOM      1  C   UNL     1       6.756   5.320  17.572  0.00  0.00    +0.000 C 
ATOM      2  N   UNL     1       6.390   4.290  18.513  0.00  0.00    +0.000 N 
ATOM      3  C   UNL     1       5.020   4.161  18.635  0.00  0.00    +0.000 C 
ATOM      4  O   UNL     1       4.495   3.252  19.255  0.00  0.00    +0.000 OA
ATOM      5  N   UNL     1       4.427   5.160  17.922  0.00  0.00    +0.000 N 
ATOM      6  C   UNL     1       5.366   5.886  17.245  0.00  0.00    +0.000 C 
ATOM      7  O   UNL     1       5.156   6.816  16.475  0.00  0.00    +0.000 OA
ATOM      8  H   UNL     1       7.010   3.595  18.906  0.00  0.00    +0.000 HD
ENDROOT
BRANCH   1   9
ATOM      9  C   UNL     1       7.412   4.724  16.306  0.00  0.00    +0.000 C 
BRANCH   9  11
ATOM     10  C   UNL     1       6.174   3.821  14.283  0.00  0.00    +0.000 C 
ATOM     11  C   UNL     1       6.690   5.062  14.991  0.00  0.00    +0.000 C 
ENDBRANCH   9  11
ENDBRANCH   1   9
BRANCH   1  12
ATOM     12  C   UNL     1       7.656   6.393  18.209  0.00  0.00    +0.000 C 
BRANCH  12  13
ATOM     13  C   UNL     1       7.712   7.731  17.458  0.00  0.00    +0.000 C 
ATOM     14  C   UNL     1       8.431   8.784  18.290  0.00  0.00    +0.000 C 
ENDBRANCH  12  13
ENDBRANCH   1  12
BRANCH   5  15
ATOM     15  C   UNL     1       2.993   5.341  17.779  0.00  0.00    +0.000 C 
BRANCH  15  16
ATOM     16  C   UNL     1       2.364   6.094  18.935  0.00  0.00    +0.000 A 
ATOM     17  C   UNL     1       2.100   5.423  20.146  0.00  0.00    +0.000 A 
ATOM     18  C   UNL     1       1.507   6.086  21.215  0.00  0.00    +0.000 A 
ATOM     19  C   UNL     1       1.188   7.433  21.093  0.00  0.00    +0.000 A 
ATOM     20  C   UNL     1       1.483   8.126  19.908  0.00  0.00    +0.000 A 
ATOM     21  C   UNL     1       1.193   9.492  19.790  0.00  0.00    +0.000 A 
ATOM     22  C   UNL     1       1.507  10.168  18.619  0.00  0.00    +0.000 A 
ATOM     23  C   UNL     1       2.104   9.448  17.604  0.00  0.00    +0.000 A 
ATOM     24  N   UNL     1       2.400   8.133  17.687  0.00  0.00    +0.000 NA
ATOM     25  C   UNL     1       2.087   7.463  18.814  0.00  0.00    +0.000 A 
ENDBRANCH  15  16
ENDBRANCH   5  15
TORSDOF 6
ENDMDL
MODEL 4
REMARK VINA RESULT:      -6.7      1.747      2.612
REMARK  Name = 
REMARK  8 active torsions:
REMARK  status: ('A' for Active; 'I' for Inactive)
REMARK    1  A    between atoms: C_1  and  C_2
REMARK    2  A    between atoms: C_2  and  C_3
REMARK    3  A    between atoms: C_3  and  C_4
REMARK    4  A    between atoms: C_4  and  C_5
REMARK    5  A    between atoms: C_5  and  C_6
REMARK    6  A    between atoms: C_6  and  C_7
REMARK    7  A    between atoms: N_11  and  C_12
REMARK    8  A    between atoms: C_12  and  C_13
REMARK                            x       y       z     vdW  Elec       q    Type
REMARK                         _______ _______ _______ _____ _____    ______ ____
ROOT
ATOM      1  C   UNL     1       6.522   5.067  15.973  0.00  0.00    +0.000 C 
ATOM      2  N   UNL     1       6.319   3.778  16.589  0.00  0.00    +0.000 N 
ATOM      3  C   UNL     1       4.997   3.566  16.926  0.00  0.00    +0.000 C 
ATOM      4  O   UNL     1       4.579   2.489  17.314  0.00  0.00    +0.000 OA
ATOM      5  N   UNL     1       4.302   4.716  16.696  0.00  0.00    +0.000 N 
ATOM      6  C   UNL     1       5.110   5.655  16.117  0.00  0.00    +0.000 C 
ATOM      7  O   UNL     1       4.779   6.772  15.738  0.00  0.00    +0.000 OA
ATOM      8  H   UNL     1       6.986   3.019  16.614  0.00  0.00    +0.000 HD
ENDROOT
BRANCH   1   9
ATOM      9  C   UNL     1       6.903   4.928  14.481  0.00  0.00    +0.000 C 
BRANCH   9  11
ATOM     10  C   UNL     1       6.602   3.681  12.291  0.00  0.00    +0.000 C 
ATOM     11  C   UNL     1       6.087   3.879  13.707  0.00  0.00    +0.000 C 
ENDBRANCH   9  11
ENDBRANCH   1   9
BRANCH   1  12
ATOM     12  C   UNL     1       7.557   5.915  16.731  0.00  0.00    +0.000 C 
BRANCH  12  13
ATOM     13  C   UNL     1       7.102   6.433  18.103  0.00  0.00    +0.000 C 
ATOM     14  C   UNL     1       7.883   5.755  19.219  0.00  0.00    +0.000 C 
ENDBRANCH  12  13
ENDBRANCH   1  12
BRANCH   5  15
ATOM     15  C   UNL     1       2.873   4.879  16.897  0.00  0.00    +0.000 C 
BRANCH  15  16
ATOM     16  C   UNL     1       2.511   5.329  18.300  0.00  0.00    +0.000 A 
ATOM     17  C   UNL     1       2.475   6.705  18.605  0.00  0.00    +0.000 A 
ATOM     18  C   UNL     1       2.164   7.143  19.888  0.00  0.00    +0.000 A 
ATOM     19  C   UNL     1       1.868   6.213  20.876  0.00  0.00    +0.000 A 
ATOM     20  C   UNL     1       1.859   4.841  20.577  0.00  0.00    +0.000 A 
ATOM     21  C   UNL     1       1.530   3.899  21.561  0.00  0.00    +0.000 A 
ATOM     22  C   UNL     1       1.509   2.547  21.246  0.00  0.00    +0.000 A 
ATOM     23  C   UNL     1       1.817   2.186  19.951  0.00  0.00    +0.000 A 
ATOM     24  N   UNL     1       2.134   3.068  18.979  0.00  0.00    +0.000 NA
ATOM     25  C   UNL     1       2.172   4.383  19.276  0.00  0.00    +0.000 A 
ENDBRANCH  15  16
ENDBRANCH   5  15
TORSDOF 6
ENDMDL
MODEL 5
REMARK VINA RESULT:      -6.7      1.596      2.572
REMARK  Name = 
REMARK  8 active torsions:
REMARK  status: ('A' for Active; 'I' for Inactive)
REMARK    1  A    between atoms: C_1  and  C_2
REMARK    2  A    between atoms: C_2  and  C_3
REMARK    3  A    between atoms: C_3  and  C_4
REMARK    4  A    between atoms: C_4  and  C_5
REMARK    5  A    between atoms: C_5  and  C_6
REMARK    6  A    between atoms: C_6  and  C_7
REMARK    7  A    between atoms: N_11  and  C_12
REMARK    8  A    between atoms: C_12  and  C_13
REMARK                            x       y       z     vdW  Elec       q    Type
REMARK                         _______ _______ _______ _____ _____    ______ ____
ROOT
ATOM      1  C   UNL     1       6.448   6.545  17.390  0.00  0.00    +0.000 C 
ATOM      2  N   UNL     1       6.685   5.796  16.179  0.00  0.00    +0.000 N 
ATOM      3  C   UNL     1       6.165   4.519  16.249  0.00  0.00    +0.000 C 
ATOM      4  O   UNL     1       6.116   3.772  15.287  0.00  0.00    +0.000 OA
ATOM      5  N   UNL     1       5.705   4.307  17.515  0.00  0.00    +0.000 N 
ATOM      6  C   UNL     1       5.811   5.450  18.258  0.00  0.00    +0.000 C 
ATOM      7  O   UNL     1       5.437   5.607  19.415  0.00  0.00    +0.000 OA
ATOM      8  H   UNL     1       7.007   6.175  15.299  0.00  0.00    +0.000 HD
ENDROOT
BRANCH   1   9
ATOM      9  C   UNL     1       5.450   7.702  17.155  0.00  0.00    +0.000 C 
BRANCH   9  11
ATOM     10  C   UNL     1       3.031   8.238  17.705  0.00  0.00    +0.000 C 
ATOM     11  C   UNL     1       3.982   7.264  17.027  0.00  0.00    +0.000 C 
ENDBRANCH   9  11
ENDBRANCH   1   9
BRANCH   1  12
ATOM     12  C   UNL     1       7.755   7.060  18.016  0.00  0.00    +0.000 C 
BRANCH  12  13
ATOM     13  C   UNL     1       8.131   8.504  17.653  0.00  0.00    +0.000 C 
ATOM     14  C   UNL     1       8.792   9.200  18.834  0.00  0.00    +0.000 C 
ENDBRANCH  12  13
ENDBRANCH   1  12
BRANCH   5  15
ATOM     15  C   UNL     1       5.057   3.091  17.972  0.00  0.00    +0.000 C 
BRANCH  15  16
ATOM     16  C   UNL     1       3.563   3.249  18.181  0.00  0.00    +0.000 A 
ATOM     17  C   UNL     1       2.743   3.637  17.101  0.00  0.00    +0.000 A 
ATOM     18  C   UNL     1       1.373   3.807  17.271  0.00  0.00    +0.000 A 
ATOM     19  C   UNL     1       0.803   3.574  18.516  0.00  0.00    +0.000 A 
ATOM     20  C   UNL     1       1.600   3.146  19.591  0.00  0.00    +0.000 A 
ATOM     21  C   UNL     1       1.027   2.878  20.841  0.00  0.00    +0.000 A 
ATOM     22  C   UNL     1       1.824   2.440  21.889  0.00  0.00    +0.000 A 
ATOM     23  C   UNL     1       3.173   2.283  21.645  0.00  0.00    +0.000 A 
ATOM     24  N   UNL     1       3.756   2.529  20.452  0.00  0.00    +0.000 NA
ATOM     25  C   UNL     1       2.994   2.968  19.430  0.00  0.00    +0.000 A 
ENDBRANCH  15  16
ENDBRANCH   5  15
TORSDOF 6
ENDMDL
MODEL 6
REMARK VINA RESULT:      -6.5      4.598      6.718
REMARK  Name = 
REMARK  8 active torsions:
REMARK  status: ('A' for Active; 'I' for Inactive)
REMARK    1  A    between atoms: C_1  and  C_2
REMARK    2  A    between atoms: C_2  and  C_3
REMARK    3  A    between atoms: C_3  and  C_4
REMARK    4  A    between atoms: C_4  and  C_5
REMARK    5  A    between atoms: C_5  and  C_6
REMARK    6  A    between atoms: C_6  and  C_7
REMARK    7  A    between atoms: N_11  and  C_12
REMARK    8  A    between atoms: C_12  and  C_13
REMARK                            x       y       z     vdW  Elec       q    Type
REMARK                         _______ _______ _______ _____ _____    ______ ____
ROOT
ATOM      1  C   UNL     1       0.487  10.013  18.800  0.00  0.00    +0.000 C 
ATOM      2  N   UNL     1       0.013   9.732  20.133  0.00  0.00    +0.000 N 
ATOM      3  C   UNL     1       0.782   8.776  20.767  0.00  0.00    +0.000 C 
ATOM      4  O   UNL     1       0.654   8.501  21.947  0.00  0.00    +0.000 OA
ATOM      5  N   UNL     1       1.682   8.281  19.870  0.00  0.00    +0.000 N 
ATOM      6  C   UNL     1       1.599   8.959  18.686  0.00  0.00    +0.000 C 
ATOM      7  O   UNL     1       2.305   8.794  17.698  0.00  0.00    +0.000 OA
ATOM      8  H   UNL     1      -0.663  10.277  20.651  0.00  0.00    +0.000 HD
ENDROOT
BRANCH   1   9
ATOM      9  C   UNL     1       1.077  11.439  18.696  0.00  0.00    +0.000 C 
BRANCH   9  11
ATOM     10  C   UNL     1      -0.073  13.596  19.378  0.00  0.00    +0.000 C 
ATOM     11  C   UNL     1       0.696  12.375  19.855  0.00  0.00    +0.000 C 
ENDBRANCH   9  11
ENDBRANCH   1   9
BRANCH   1  12
ATOM     12  C   UNL     1      -0.602   9.787  17.738  0.00  0.00    +0.000 C 
BRANCH  12  13
ATOM     13  C   UNL     1      -2.021  10.197  18.157  0.00  0.00    +0.000 C 
ATOM     14  C   UNL     1      -2.486  11.410  17.363  0.00  0.00    +0.000 C 
ENDBRANCH  12  13
ENDBRANCH   1  12
BRANCH   5  15
ATOM     15  C   UNL     1       2.688   7.278  20.170  0.00  0.00    +0.000 C 
BRANCH  15  16
ATOM     16  C   UNL     1       2.275   5.874  19.769  0.00  0.00    +0.000 A 
ATOM     17  C   UNL     1       1.215   5.238  20.446  0.00  0.00    +0.000 A 
ATOM     18  C   UNL     1       0.830   3.944  20.111  0.00  0.00    +0.000 A 
ATOM     19  C   UNL     1       1.485   3.278  19.083  0.00  0.00    +0.000 A 
ATOM     20  C   UNL     1       2.516   3.915  18.372  0.00  0.00    +0.000 A 
ATOM     21  C   UNL     1       3.161   3.261  17.313  0.00  0.00    +0.000 A 
ATOM     22  C   UNL     1       4.165   3.910  16.607  0.00  0.00    +0.000 A 
ATOM     23  C   UNL     1       4.487   5.196  16.988  0.00  0.00    +0.000 A 
ATOM     24  N   UNL     1       3.883   5.855  18.000  0.00  0.00    +0.000 NA
ATOM     25  C   UNL     1       2.916   5.231  18.702  0.00  0.00    +0.000 A 
ENDBRANCH  15  16
ENDBRANCH   5  15
TORSDOF 6
ENDMDL
MODEL 7
REMARK VINA RESULT:      -6.4      1.177      2.130
REMARK  Name = 
REMARK  8 active torsions:
REMARK  status: ('A' for Active; 'I' for Inactive)
REMARK    1  A    between atoms: C_1  and  C_2
REMARK    2  A    between atoms: C_2  and  C_3
REMARK    3  A    between atoms: C_3  and  C_4
REMARK    4  A    between atoms: C_4  and  C_5
REMARK    5  A    between atoms: C_5  and  C_6
REMARK    6  A    between atoms: C_6  and  C_7
REMARK    7  A    between atoms: N_11  and  C_12
REMARK    8  A    between atoms: C_12  and  C_13
REMARK                            x       y       z     vdW  Elec       q    Type
REMARK                         _______ _______ _______ _____ _____    ______ ____
ROOT
ATOM      1  C   UNL     1       6.903   6.167  17.018  0.00  0.00    +0.000 C 
ATOM      2  N   UNL     1       6.725   5.719  18.377  0.00  0.00    +0.000 N 
ATOM      3  C   UNL     1       5.401   5.752  18.767  0.00  0.00    +0.000 C 
ATOM      4  O   UNL     1       5.008   5.274  19.816  0.00  0.00    +0.000 OA
ATOM      5  N   UNL     1       4.674   6.343  17.776  0.00  0.00    +0.000 N 
ATOM      6  C   UNL     1       5.467   6.607  16.694  0.00  0.00    +0.000 C 
ATOM      7  O   UNL     1       5.109   7.085  15.624  0.00  0.00    +0.000 OA
ATOM      8  H   UNL     1       7.418   5.247  18.943  0.00  0.00    +0.000 HD
ENDROOT
BRANCH   1   9
ATOM      9  C   UNL     1       7.338   5.009  16.091  0.00  0.00    +0.000 C 
BRANCH   9  11
ATOM     10  C   UNL     1       6.100   3.942  14.150  0.00  0.00    +0.000 C 
ATOM     11  C   UNL     1       6.199   4.071  15.661  0.00  0.00    +0.000 C 
ENDBRANCH   9  11
ENDBRANCH   1   9
BRANCH   1  12
ATOM     12  C   UNL     1       7.881   7.350  16.921  0.00  0.00    +0.000 C 
BRANCH  12  13
ATOM     13  C   UNL     1       8.255   8.003  18.259  0.00  0.00    +0.000 C 
ATOM     14  C   UNL     1       8.394   9.511  18.101  0.00  0.00    +0.000 C 
ENDBRANCH  12  13
ENDBRANCH   1  12
BRANCH   5  15
ATOM     15  C   UNL     1       3.235   6.531  17.800  0.00  0.00    +0.000 C 
BRANCH  15  16
ATOM     16  C   UNL     1       2.536   5.687  18.848  0.00  0.00    +0.000 A 
ATOM     17  C   UNL     1       2.024   6.299  20.010  0.00  0.00    +0.000 A 
ATOM     18  C   UNL     1       1.395   5.544  20.996  0.00  0.00    +0.000 A 
ATOM     19  C   UNL     1       1.254   4.173  20.823  0.00  0.00    +0.000 A 
ATOM     20  C   UNL     1       1.721   3.556  19.651  0.00  0.00    +0.000 A 
ATOM     21  C   UNL     1       1.553   2.178  19.455  0.00  0.00    +0.000 A 
ATOM     22  C   UNL     1       2.004   1.585  18.284  0.00  0.00    +0.000 A 
ATOM     23  C   UNL     1       2.608   2.397  17.346  0.00  0.00    +0.000 A 
ATOM     24  N   UNL     1       2.782   3.727  17.502  0.00  0.00    +0.000 NA
ATOM     25  C   UNL     1       2.361   4.312  18.641  0.00  0.00    +0.000 A 
ENDBRANCH  15  16
ENDBRANCH   5  15
TORSDOF 6
ENDMDL
MODEL 8
REMARK VINA RESULT:      -6.3      2.287      3.657
REMARK  Name = 
REMARK  8 active torsions:
REMARK  status: ('A' for Active; 'I' for Inactive)
REMARK    1  A    between atoms: C_1  and  C_2
REMARK    2  A    between atoms: C_2  and  C_3
REMARK    3  A    between atoms: C_3  and  C_4
REMARK    4  A    between atoms: C_4  and  C_5
REMARK    5  A    between atoms: C_5  and  C_6
REMARK    6  A    between atoms: C_6  and  C_7
REMARK    7  A    between atoms: N_11  and  C_12
REMARK    8  A    between atoms: C_12  and  C_13
REMARK                            x       y       z     vdW  Elec       q    Type
REMARK                         _______ _______ _______ _____ _____    ______ ____
ROOT
ATOM      1  C   UNL     1       6.421   4.970  16.374  0.00  0.00    +0.000 C 
ATOM      2  N   UNL     1       6.080   3.757  17.077  0.00  0.00    +0.000 N 
ATOM      3  C   UNL     1       4.735   3.691  17.378  0.00  0.00    +0.000 C 
ATOM      4  O   UNL     1       4.207   2.689  17.829  0.00  0.00    +0.000 OA
ATOM      5  N   UNL     1       4.157   4.878  17.038  0.00  0.00    +0.000 N 
ATOM      6  C   UNL     1       5.066   5.692  16.421  0.00  0.00    +0.000 C 
ATOM      7  O   UNL     1       4.851   6.802  15.948  0.00  0.00    +0.000 OA
ATOM      8  H   UNL     1       6.673   2.944  17.182  0.00  0.00    +0.000 HD
ENDROOT
BRANCH   1   9
ATOM      9  C   UNL     1       6.833   4.682  14.912  0.00  0.00    +0.000 C 
BRANCH   9  11
ATOM     10  C   UNL     1       6.259   3.585  12.696  0.00  0.00    +0.000 C 
ATOM     11  C   UNL     1       5.741   4.014  14.060  0.00  0.00    +0.000 C 
ENDBRANCH   9  11
ENDBRANCH   1   9
BRANCH   1  12
ATOM     12  C   UNL     1       7.506   5.778  17.105  0.00  0.00    +0.000 C 
BRANCH  12  13
ATOM     13  C   UNL     1       6.995   6.970  17.927  0.00  0.00    +0.000 C 
ATOM     14  C   UNL     1       7.840   8.207  17.662  0.00  0.00    +0.000 C 
ENDBRANCH  12  13
ENDBRANCH   1  12
BRANCH   5  15
ATOM     15  C   UNL     1       2.744   5.184  17.172  0.00  0.00    +0.000 C 
BRANCH  15  16
ATOM     16  C   UNL     1       2.375   5.732  18.538  0.00  0.00    +0.000 A 
ATOM     17  C   UNL     1       2.373   4.875  19.657  0.00  0.00    +0.000 A 
ATOM     18  C   UNL     1       2.021   5.348  20.917  0.00  0.00    +0.000 A 
ATOM     19  C   UNL     1       1.686   6.687  21.077  0.00  0.00    +0.000 A 
ATOM     20  C   UNL     1       1.724   7.562  19.979  0.00  0.00    +0.000 A 
ATOM     21  C   UNL     1       1.418   8.921  20.139  0.00  0.00    +0.000 A 
ATOM     22  C   UNL     1       1.477   9.777  19.048  0.00  0.00    +0.000 A 
ATOM     23  C   UNL     1       1.845   9.240  17.832  0.00  0.00    +0.000 A 
ATOM     24  N   UNL     1       2.150   7.938  17.644  0.00  0.00    +0.000 NA
ATOM     25  C   UNL     1       2.082   7.094  18.693  0.00  0.00    +0.000 A 
ENDBRANCH  15  16
ENDBRANCH   5  15
TORSDOF 6
ENDMDL
MODEL 9
REMARK VINA RESULT:      -6.2      2.220      3.891
REMARK  Name = 
REMARK  8 active torsions:
REMARK  status: ('A' for Active; 'I' for Inactive)
REMARK    1  A    between atoms: C_1  and  C_2
REMARK    2  A    between atoms: C_2  and  C_3
REMARK    3  A    between atoms: C_3  and  C_4
REMARK    4  A    between atoms: C_4  and  C_5
REMARK    5  A    between atoms: C_5  and  C_6
REMARK    6  A    between atoms: C_6  and  C_7
REMARK    7  A    between atoms: N_11  and  C_12
REMARK    8  A    between atoms: C_12  and  C_13
REMARK                            x       y       z     vdW  Elec       q    Type
REMARK                         _______ _______ _______ _____ _____    ______ ____
ROOT
ATOM      1  C   UNL     1       6.603   5.016  14.792  0.00  0.00    +0.000 C 
ATOM      2  N   UNL     1       5.443   5.871  14.871  0.00  0.00    +0.000 N 
ATOM      3  C   UNL     1       5.127   6.199  16.174  0.00  0.00    +0.000 C 
ATOM      4  O   UNL     1       4.283   7.031  16.460  0.00  0.00    +0.000 OA
ATOM      5  N   UNL     1       5.938   5.487  17.008  0.00  0.00    +0.000 N 
ATOM      6  C   UNL     1       6.855   4.774  16.288  0.00  0.00    +0.000 C 
ATOM      7  O   UNL     1       7.756   4.076  16.739  0.00  0.00    +0.000 OA
ATOM      8  H   UNL     1       5.006   6.352  14.097  0.00  0.00    +0.000 HD
ENDROOT
BRANCH   1   9
ATOM      9  C   UNL     1       7.804   5.748  14.150  0.00  0.00    +0.000 C 
BRANCH   9  11
ATOM     10  C   UNL     1       7.931   6.240  11.664  0.00  0.00    +0.000 C 
ATOM     11  C   UNL     1       8.204   5.224  12.761  0.00  0.00    +0.000 C 
ENDBRANCH   9  11
ENDBRANCH   1   9
BRANCH   1  12
ATOM     12  C   UNL     1       6.302   3.698  14.059  0.00  0.00    +0.000 C 
BRANCH  12  13
ATOM     13  C   UNL     1       5.100   3.738  13.105  0.00  0.00    +0.000 C 
ATOM     14  C   UNL     1       5.401   2.966  11.828  0.00  0.00    +0.000 C 
ENDBRANCH  12  13
ENDBRANCH   1  12
BRANCH   5  15
ATOM     15  C   UNL     1       5.931   5.584  18.457  0.00  0.00    +0.000 C 
BRANCH  15  16
ATOM     16  C   UNL     1       4.905   4.681  19.114  0.00  0.00    +0.000 A 
ATOM     17  C   UNL     1       5.188   3.311  19.287  0.00  0.00    +0.000 A 
ATOM     18  C   UNL     1       4.256   2.458  19.870  0.00  0.00    +0.000 A 
ATOM     19  C   UNL     1       3.039   2.968  20.305  0.00  0.00    +0.000 A 
ATOM     20  C   UNL     1       2.760   4.338  20.178  0.00  0.00    +0.000 A 
ATOM     21  C   UNL     1       1.547   4.865  20.644  0.00  0.00    +0.000 A 
ATOM     22  C   UNL     1       1.292   6.224  20.527  0.00  0.00    +0.000 A 
ATOM     23  C   UNL     1       2.266   7.011  19.949  0.00  0.00    +0.000 A 
ATOM     24  N   UNL     1       3.446   6.537  19.493  0.00  0.00    +0.000 NA
ATOM     25  C   UNL     1       3.699   5.216  19.588  0.00  0.00    +0.000 A 
ENDBRANCH  15  16
ENDBRANCH   5  15
TORSDOF 6
ENDMDL
