MODEL 1
REMARK VINA RESULT:      -8.4      0.000      0.000
REMARK  Name = 
REMARK  6 active torsions:
REMARK  status: ('A' for Active; 'I' for Inactive)
REMARK    1  A    between atoms: C_1  and  N_2
REMARK    2  A    between atoms: N_2  and  C_3
REMARK    3  A    between atoms: C_5  and  C_6
REMARK    4  A    between atoms: C_9  and  C_10
REMARK    5  A    between atoms: N_12  and  C_13
REMARK    6  A    between atoms: C_13  and  C_14
REMARK                            x       y       z     vdW  Elec       q    Type
REMARK                         _______ _______ _______ _____ _____    ______ ____
ROOT
ATOM      1  C   UNL     1       0.773   9.750  19.337  0.00  0.00    +0.000 A 
ATOM      2  C   UNL     1       1.302   9.474  18.065  0.00  0.00    +0.000 A 
ATOM      3  C   UNL     1       2.107   8.352  17.839  0.00  0.00    +0.000 A 
ATOM      4  C   UNL     1       2.415   7.463  18.879  0.00  0.00    +0.000 A 
ATOM      5  C   UNL     1       1.884   7.707  20.146  0.00  0.00    +0.000 A 
ATOM      6  C   UNL     1       1.083   8.841  20.368  0.00  0.00    +0.000 A 
ENDROOT
BRANCH   1   9
ATOM      7  C   UNL     1      -2.031  12.095  19.126  0.00  0.00    +0.000 A 
ATOM      8  N   UNL     1      -1.220  11.051  18.859  0.00  0.00    +0.000 NA
ATOM      9  C   UNL     1      -0.081  10.933  19.577  0.00  0.00    +0.000 A 
ATOM     10  N   UNL     1       0.317  11.806  20.523  0.00  0.00    +0.000 NA
ATOM     11  C   UNL     1      -0.518  12.835  20.765  0.00  0.00    +0.000 A 
ATOM     12  C   UNL     1      -1.703  13.022  20.099  0.00  0.00    +0.000 A 
ATOM     13  F   UNL     1      -2.486  14.066  20.409  0.00  0.00    +0.000 F 
BRANCH   7  15
ATOM     14  C   UNL     1      -3.482  11.034  17.459  0.00  0.00    +0.000 C 
ATOM     15  N   UNL     1      -3.211  12.104  18.393  0.00  0.00    +0.000 N 
ATOM     16  H   UNL     1      -3.976  12.355  19.013  0.00  0.00    +0.000 HD
ENDBRANCH   7  15
ENDBRANCH   1   9
BRANCH   4  17
ATOM     17  C   UNL     1       3.300   6.304  18.554  0.00  0.00    +0.000 C 
ATOM     18  O   UNL     1       2.916   5.166  18.825  0.00  0.00    +0.000 OA
ATOM     19  N   UNL     1       4.510   6.543  17.940  0.00  0.00    +0.000 N 
ATOM     20  H   UNL     1       4.650   7.426  17.475  0.00  0.00    +0.000 HD
BRANCH  19  21
ATOM     21  C   UNL     1       5.438   5.466  17.543  0.00  0.00    +0.000 C 
ATOM     22  C   UNL     1       4.737   4.515  16.561  0.00  0.00    +0.000 C 
ATOM     23  C   UNL     1       5.870   3.802  15.832  0.00  0.00    +0.000 C 
ATOM     24  C   UNL     1       7.045   4.770  15.836  0.00  0.00    +0.000 C 
ATOM     25  C   UNL     1       6.630   5.952  16.703  0.00  0.00    +0.000 C 
BRANCH  21  26
ATOM     26  C   UNL     1       5.883   4.708  18.829  0.00  0.00    +0.000 C 
ATOM     27  N   UNL     1       5.371   3.454  18.991  0.00  0.00    +0.000 N 
ATOM     28  O   UNL     1       6.671   5.159  19.658  0.00  0.00    +0.000 OA
ATOM     29  H   UNL     1       4.784   3.028  18.277  0.00  0.00    +0.000 HD
ATOM     30  H   UNL     1       5.657   2.908  19.794  0.00  0.00    +0.000 HD
ENDBRANCH  21  26
ENDBRANCH  19  21
ENDBRANCH   4  17
TORSDOF 5
ENDMDL
MODEL 2
REMARK VINA RESULT:      -8.4      0.947      1.235
REMARK  Name = 
REMARK  6 active torsions:
REMARK  status: ('A' for Active; 'I' for Inactive)
REMARK    1  A    between atoms: C_1  and  N_2
REMARK    2  A    between atoms: N_2  and  C_3
REMARK    3  A    between atoms: C_5  and  C_6
REMARK    4  A    between atoms: C_9  and  C_10
REMARK    5  A    between atoms: N_12  and  C_13
REMARK    6  A    between atoms: C_13  and  C_14
REMARK                            x       y       z     vdW  Elec       q    Type
REMARK                         _______ _______ _______ _____ _____    ______ ____
ROOT
ATOM      1  C   UNL     1       0.646   9.476  19.401  0.00  0.00    +0.000 A 
ATOM      2  C   UNL     1       1.277   9.214  18.173  0.00  0.00    +0.000 A 
ATOM      3  C   UNL     1       2.201   8.171  18.039  0.00  0.00    +0.000 A 
ATOM      4  C   UNL     1       2.531   7.353  19.128  0.00  0.00    +0.000 A 
ATOM      5  C   UNL     1       1.901   7.583  20.351  0.00  0.00    +0.000 A 
ATOM      6  C   UNL     1       0.980   8.636  20.483  0.00  0.00    +0.000 A 
ENDROOT
BRANCH   1   9
ATOM      7  C   UNL     1      -2.080  11.803  18.653  0.00  0.00    +0.000 A 
ATOM      8  N   UNL     1      -1.142  10.846  18.497  0.00  0.00    +0.000 NA
ATOM      9  C   UNL     1      -0.334  10.574  19.546  0.00  0.00    +0.000 A 
ATOM     10  N   UNL     1      -0.380  11.215  20.730  0.00  0.00    +0.000 NA
ATOM     11  C   UNL     1      -1.330  12.163  20.852  0.00  0.00    +0.000 A 
ATOM     12  C   UNL     1      -2.206  12.490  19.847  0.00  0.00    +0.000 A 
ATOM     13  F   UNL     1      -3.132  13.437  20.053  0.00  0.00    +0.000 F 
BRANCH   7  15
ATOM     14  C   UNL     1      -4.245  11.410  17.572  0.00  0.00    +0.000 C 
ATOM     15  N   UNL     1      -2.913  11.972  17.554  0.00  0.00    +0.000 N 
ATOM     16  H   UNL     1      -2.842  12.936  17.238  0.00  0.00    +0.000 HD
ENDBRANCH   7  15
ENDBRANCH   1   9
BRANCH   4  17
ATOM     17  C   UNL     1       3.544   6.279  18.899  0.00  0.00    +0.000 C 
ATOM     18  O   UNL     1       3.893   5.576  19.848  0.00  0.00    +0.000 OA
ATOM     19  N   UNL     1       4.041   6.094  17.628  0.00  0.00    +0.000 N 
ATOM     20  H   UNL     1       3.527   6.472  16.848  0.00  0.00    +0.000 HD
BRANCH  19  21
ATOM     21  C   UNL     1       5.015   5.037  17.290  0.00  0.00    +0.000 C 
ATOM     22  C   UNL     1       5.278   5.041  15.776  0.00  0.00    +0.000 C 
ATOM     23  C   UNL     1       6.617   4.332  15.612  0.00  0.00    +0.000 C 
ATOM     24  C   UNL     1       7.387   4.584  16.901  0.00  0.00    +0.000 C 
ATOM     25  C   UNL     1       6.424   5.290  17.848  0.00  0.00    +0.000 C 
BRANCH  21  26
ATOM     26  C   UNL     1       4.428   3.669  17.748  0.00  0.00    +0.000 C 
ATOM     27  N   UNL     1       5.061   3.066  18.794  0.00  0.00    +0.000 N 
ATOM     28  O   UNL     1       3.435   3.143  17.247  0.00  0.00    +0.000 OA
ATOM     29  H   UNL     1       5.831   3.523  19.278  0.00  0.00    +0.000 HD
ATOM     30  H   UNL     1       4.696   2.192  19.150  0.00  0.00    +0.000 HD
ENDBRANCH  21  26
ENDBRANCH  19  21
ENDBRANCH   4  17
TORSDOF 5
ENDMDL
MODEL 3
REMARK VINA RESULT:      -8.4      0.979      1.564
REMARK  Name = 
REMARK  6 active torsions:
REMARK  status: ('A' for Active; 'I' for Inactive)
REMARK    1  A    between atoms: C_1  and  N_2
REMARK    2  A    between atoms: N_2  and  C_3
REMARK    3  A    between atoms: C_5  and  C_6
REMARK    4  A    between atoms: C_9  and  C_10
REMARK    5  A    between atoms: N_12  and  C_13
REMARK    6  A    between atoms: C_13  and  C_14
REMARK                            x       y       z     vdW  Elec       q    Type
REMARK                         _______ _______ _______ _____ _____    ______ ____
ROOT
ATOM      1  C   UNL     1       0.584   9.543  19.254  0.00  0.00    +0.000 A 
ATOM      2  C   UNL     1       0.973   8.695  20.304  0.00  0.00    +0.000 A 
ATOM      3  C   UNL     1       1.935   7.696  20.114  0.00  0.00    +0.000 A 
ATOM      4  C   UNL     1       2.544   7.506  18.866  0.00  0.00    +0.000 A 
ATOM      5  C   UNL     1       2.187   8.352  17.814  0.00  0.00    +0.000 A 
ATOM      6  C   UNL     1       1.214   9.347  18.008  0.00  0.00    +0.000 A 
ENDROOT
BRANCH   1   9
ATOM      7  C   UNL     1      -2.253  11.775  18.646  0.00  0.00    +0.000 A 
ATOM      8  N   UNL     1      -1.288  10.856  18.440  0.00  0.00    +0.000 NA
ATOM      9  C   UNL     1      -0.429  10.601  19.452  0.00  0.00    +0.000 A 
ATOM     10  N   UNL     1      -0.451  11.226  20.646  0.00  0.00    +0.000 NA
ATOM     11  C   UNL     1      -1.430  12.136  20.817  0.00  0.00    +0.000 A 
ATOM     12  C   UNL     1      -2.357  12.442  19.852  0.00  0.00    +0.000 A 
ATOM     13  F   UNL     1      -3.309  13.351  20.107  0.00  0.00    +0.000 F 
BRANCH   7  15
ATOM     14  C   UNL     1      -2.937  11.157  16.373  0.00  0.00    +0.000 C 
ATOM     15  N   UNL     1      -3.135  11.926  17.582  0.00  0.00    +0.000 N 
ATOM     16  H   UNL     1      -4.084  11.942  17.947  0.00  0.00    +0.000 HD
ENDBRANCH   7  15
ENDBRANCH   1   9
BRANCH   4  17
ATOM     17  C   UNL     1       3.543   6.402  18.747  0.00  0.00    +0.000 C 
ATOM     18  O   UNL     1       3.827   5.745  19.749  0.00  0.00    +0.000 OA
ATOM     19  N   UNL     1       4.100   6.140  17.515  0.00  0.00    +0.000 N 
ATOM     20  H   UNL     1       3.635   6.486  16.690  0.00  0.00    +0.000 HD
BRANCH  19  21
ATOM     21  C   UNL     1       5.067   5.049  17.284  0.00  0.00    +0.000 C 
ATOM     22  C   UNL     1       5.399   4.960  15.787  0.00  0.00    +0.000 C 
ATOM     23  C   UNL     1       6.729   4.218  15.726  0.00  0.00    +0.000 C 
ATOM     24  C   UNL     1       7.444   4.532  17.033  0.00  0.00    +0.000 C 
ATOM     25  C   UNL     1       6.454   5.308  17.892  0.00  0.00    +0.000 C 
BRANCH  21  26
ATOM     26  C   UNL     1       4.431   3.720  17.792  0.00  0.00    +0.000 C 
ATOM     27  N   UNL     1       5.016   3.157  18.888  0.00  0.00    +0.000 N 
ATOM     28  O   UNL     1       3.442   3.192  17.287  0.00  0.00    +0.000 OA
ATOM     29  H   UNL     1       5.782   3.620  19.372  0.00  0.00    +0.000 HD
ATOM     30  H   UNL     1       4.618   2.311  19.276  0.00  0.00    +0.000 HD
ENDBRANCH  21  26
ENDBRANCH  19  21
ENDBRANCH   4  17
TORSDOF 5
ENDMDL
MODEL 4
REMARK VINA RESULT:      -8.4      0.582      1.102
REMARK  Name = 
REMARK  6 active torsions:
REMARK  status: ('A' for Active; 'I' for Inactive)
REMARK    1  A    between atoms: C_1  and  N_2
REMARK    2  A    between atoms: N_2  and  C_3
REMARK    3  A    between atoms: C_5  and  C_6
REMARK    4  A    between atoms: C_9  and  C_10
REMARK    5  A    between atoms: N_12  and  C_13
REMARK    6  A    between atoms: C_13  and  C_14
REMARK                            x       y       z     vdW  Elec       q    Type
REMARK                         _______ _______ _______ _____ _____    ______ ____
ROOT
ATOM      1  C   UNL     1       0.862   9.518  19.606  0.00  0.00    +0.000 A 
ATOM      2  C   UNL     1       1.276   8.485  20.463  0.00  0.00    +0.000 A 
ATOM      3  C   UNL     1       2.087   7.441  20.005  0.00  0.00    +0.000 A 
ATOM      4  C   UNL     1       2.514   7.389  18.671  0.00  0.00    +0.000 A 
ATOM      5  C   UNL     1       2.130   8.416  17.807  0.00  0.00    +0.000 A 
ATOM      6  C   UNL     1       1.309   9.458  18.271  0.00  0.00    +0.000 A 
ENDROOT
BRANCH   1   9
ATOM      7  C   UNL     1      -1.832  11.992  19.770  0.00  0.00    +0.000 A 
ATOM      8  N   UNL     1      -1.014  11.028  19.300  0.00  0.00    +0.000 NA
ATOM      9  C   UNL     1       0.008  10.624  20.088  0.00  0.00    +0.000 A 
ATOM     10  N   UNL     1       0.284  11.141  21.302  0.00  0.00    +0.000 NA
ATOM     11  C   UNL     1      -0.555  12.100  21.740  0.00  0.00    +0.000 A 
ATOM     12  C   UNL     1      -1.628  12.556  21.016  0.00  0.00    +0.000 A 
ATOM     13  F   UNL     1      -2.425  13.504  21.530  0.00  0.00    +0.000 F 
BRANCH   7  15
ATOM     14  C   UNL     1      -3.169  11.459  17.785  0.00  0.00    +0.000 C 
ATOM     15  N   UNL     1      -2.895  12.299  18.929  0.00  0.00    +0.000 N 
ATOM     16  H   UNL     1      -3.699  12.548  19.500  0.00  0.00    +0.000 HD
ENDBRANCH   7  15
ENDBRANCH   1   9
BRANCH   4  17
ATOM     17  C   UNL     1       3.359   6.226  18.262  0.00  0.00    +0.000 C 
ATOM     18  O   UNL     1       2.890   5.091  18.343  0.00  0.00    +0.000 OA
ATOM     19  N   UNL     1       4.630   6.465  17.787  0.00  0.00    +0.000 N 
ATOM     20  H   UNL     1       4.860   7.390  17.462  0.00  0.00    +0.000 HD
BRANCH  19  21
ATOM     21  C   UNL     1       5.530   5.390  17.323  0.00  0.00    +0.000 C 
ATOM     22  C   UNL     1       4.778   4.473  16.345  0.00  0.00    +0.000 C 
ATOM     23  C   UNL     1       5.873   3.770  15.551  0.00  0.00    +0.000 C 
ATOM     24  C   UNL     1       7.057   4.726  15.531  0.00  0.00    +0.000 C 
ATOM     25  C   UNL     1       6.690   5.888  16.447  0.00  0.00    +0.000 C 
BRANCH  21  26
ATOM     26  C   UNL     1       6.020   4.593  18.568  0.00  0.00    +0.000 C 
ATOM     27  N   UNL     1       5.323   3.459  18.865  0.00  0.00    +0.000 N 
ATOM     28  O   UNL     1       6.992   4.910  19.251  0.00  0.00    +0.000 OA
ATOM     29  H   UNL     1       4.568   3.132  18.265  0.00  0.00    +0.000 HD
ATOM     30  H   UNL     1       5.624   2.888  19.644  0.00  0.00    +0.000 HD
ENDBRANCH  21  26
ENDBRANCH  19  21
ENDBRANCH   4  17
TORSDOF 5
ENDMDL
MODEL 5
REMARK VINA RESULT:      -8.2      0.990      1.976
REMARK  Name = 
REMARK  6 active torsions:
REMARK  status: ('A' for Active; 'I' for Inactive)
REMARK    1  A    between atoms: C_1  and  N_2
REMARK    2  A    between atoms: N_2  and  C_3
REMARK    3  A    between atoms: C_5  and  C_6
REMARK    4  A    between atoms: C_9  and  C_10
REMARK    5  A    between atoms: N_12  and  C_13
REMARK    6  A    between atoms: C_13  and  C_14
REMARK                            x       y       z     vdW  Elec       q    Type
REMARK                         _______ _______ _______ _____ _____    ______ ____
ROOT
ATOM      1  C   UNL     1       0.776   9.688  19.431  0.00  0.00    +0.000 A 
ATOM      2  C   UNL     1       1.151   8.719  20.376  0.00  0.00    +0.000 A 
ATOM      3  C   UNL     1       1.992   7.654  20.032  0.00  0.00    +0.000 A 
ATOM      4  C   UNL     1       2.488   7.518  18.728  0.00  0.00    +0.000 A 
ATOM      5  C   UNL     1       2.145   8.482  17.779  0.00  0.00    +0.000 A 
ATOM      6  C   UNL     1       1.293   9.544  18.128  0.00  0.00    +0.000 A 
ENDROOT
BRANCH   1   9
ATOM      7  C   UNL     1      -1.162  12.063  21.435  0.00  0.00    +0.000 A 
ATOM      8  N   UNL     1      -0.409  10.995  21.099  0.00  0.00    +0.000 NA
ATOM      9  C   UNL     1      -0.110  10.816  19.793  0.00  0.00    +0.000 A 
ATOM     10  N   UNL     1      -0.538  11.616  18.796  0.00  0.00    +0.000 NA
ATOM     11  C   UNL     1      -1.286  12.673  19.168  0.00  0.00    +0.000 A 
ATOM     12  C   UNL     1      -1.621  12.943  20.472  0.00  0.00    +0.000 A 
ATOM     13  F   UNL     1      -2.358  14.025  20.760  0.00  0.00    +0.000 F 
BRANCH   7  15
ATOM     14  C   UNL     1      -2.695  12.060  23.349  0.00  0.00    +0.000 C 
ATOM     15  N   UNL     1      -1.365  12.212  22.801  0.00  0.00    +0.000 N 
ATOM     16  H   UNL     1      -0.624  11.722  23.295  0.00  0.00    +0.000 HD
ENDBRANCH   7  15
ENDBRANCH   1   9
BRANCH   4  17
ATOM     17  C   UNL     1       3.361   6.340  18.443  0.00  0.00    +0.000 C 
ATOM     18  O   UNL     1       2.978   5.219  18.777  0.00  0.00    +0.000 OA
ATOM     19  N   UNL     1       4.560   6.543  17.795  0.00  0.00    +0.000 N 
ATOM     20  H   UNL     1       4.695   7.401  17.285  0.00  0.00    +0.000 HD
BRANCH  19  21
ATOM     21  C   UNL     1       5.475   5.443  17.433  0.00  0.00    +0.000 C 
ATOM     22  C   UNL     1       4.783   4.500  16.436  0.00  0.00    +0.000 C 
ATOM     23  C   UNL     1       5.921   3.757  15.747  0.00  0.00    +0.000 C 
ATOM     24  C   UNL     1       7.117   4.699  15.779  0.00  0.00    +0.000 C 
ATOM     25  C   UNL     1       6.702   5.896  16.626  0.00  0.00    +0.000 C 
BRANCH  21  26
ATOM     26  C   UNL     1       5.865   4.684  18.736  0.00  0.00    +0.000 C 
ATOM     27  N   UNL     1       5.343   3.432  18.879  0.00  0.00    +0.000 N 
ATOM     28  O   UNL     1       6.620   5.134  19.597  0.00  0.00    +0.000 OA
ATOM     29  H   UNL     1       4.785   3.007  18.142  0.00  0.00    +0.000 HD
ATOM     30  H   UNL     1       5.594   2.886  19.693  0.00  0.00    +0.000 HD
ENDBRANCH  21  26
ENDBRANCH  19  21
ENDBRANCH   4  17
TORSDOF 5
ENDMDL
MODEL 6
REMARK VINA RESULT:      -8.2      1.189      1.743
REMARK  Name = 
REMARK  6 active torsions:
REMARK  status: ('A' for Active; 'I' for Inactive)
REMARK    1  A    between atoms: C_1  and  N_2
REMARK    2  A    between atoms: N_2  and  C_3
REMARK    3  A    between atoms: C_5  and  C_6
REMARK    4  A    between atoms: C_9  and  C_10
REMARK    5  A    between atoms: N_12  and  C_13
REMARK    6  A    between atoms: C_13  and  C_14
REMARK                            x       y       z     vdW  Elec       q    Type
REMARK                         _______ _______ _______ _____ _____    ______ ____
ROOT
ATOM      1  C   UNL     1       0.865   9.838  19.414  0.00  0.00    +0.000 A 
ATOM      2  C   UNL     1       1.170   8.820  20.333  0.00  0.00    +0.000 A 
ATOM      3  C   UNL     1       1.969   7.729  19.972  0.00  0.00    +0.000 A 
ATOM      4  C   UNL     1       2.492   7.614  18.677  0.00  0.00    +0.000 A 
ATOM      5  C   UNL     1       2.219   8.625  17.754  0.00  0.00    +0.000 A 
ATOM      6  C   UNL     1       1.409   9.713  18.119  0.00  0.00    +0.000 A 
ENDROOT
BRANCH   1   9
ATOM      7  C   UNL     1      -0.719  13.138  19.341  0.00  0.00    +0.000 A 
ATOM      8  N   UNL     1       0.097  12.109  19.033  0.00  0.00    +0.000 NA
ATOM      9  C   UNL     1       0.025  10.994  19.793  0.00  0.00    +0.000 A 
ATOM     10  N   UNL     1      -0.788  10.850  20.859  0.00  0.00    +0.000 NA
ATOM     11  C   UNL     1      -1.590  11.896  21.136  0.00  0.00    +0.000 A 
ATOM     12  C   UNL     1      -1.597  13.058  20.405  0.00  0.00    +0.000 A 
ATOM     13  F   UNL     1      -2.437  14.049  20.738  0.00  0.00    +0.000 F 
BRANCH   7  15
ATOM     14  C   UNL     1       0.135  15.384  18.849  0.00  0.00    +0.000 C 
ATOM     15  N   UNL     1      -0.631  14.217  18.469  0.00  0.00    +0.000 N 
ATOM     16  H   UNL     1      -0.465  13.864  17.531  0.00  0.00    +0.000 HD
ENDBRANCH   7  15
ENDBRANCH   1   9
BRANCH   4  17
ATOM     17  C   UNL     1       3.316   6.405  18.372  0.00  0.00    +0.000 C 
ATOM     18  O   UNL     1       2.834   5.290  18.567  0.00  0.00    +0.000 OA
ATOM     19  N   UNL     1       4.584   6.578  17.861  0.00  0.00    +0.000 N 
ATOM     20  H   UNL     1       4.821   7.465  17.445  0.00  0.00    +0.000 HD
BRANCH  19  21
ATOM     21  C   UNL     1       5.463   5.451  17.490  0.00  0.00    +0.000 C 
ATOM     22  C   UNL     1       4.732   4.528  16.504  0.00  0.00    +0.000 C 
ATOM     23  C   UNL     1       5.840   3.751  15.803  0.00  0.00    +0.000 C 
ATOM     24  C   UNL     1       7.063   4.657  15.820  0.00  0.00    +0.000 C 
ATOM     25  C   UNL     1       6.693   5.867  16.669  0.00  0.00    +0.000 C 
BRANCH  21  26
ATOM     26  C   UNL     1       5.845   4.684  18.791  0.00  0.00    +0.000 C 
ATOM     27  N   UNL     1       5.295   3.444  18.938  0.00  0.00    +0.000 N 
ATOM     28  O   UNL     1       6.617   5.116  19.645  0.00  0.00    +0.000 OA
ATOM     29  H   UNL     1       4.721   3.032  18.205  0.00  0.00    +0.000 HD
ATOM     30  H   UNL     1       5.539   2.892  19.750  0.00  0.00    +0.000 HD
ENDBRANCH  21  26
ENDBRANCH  19  21
ENDBRANCH   4  17
TORSDOF 5
ENDMDL
MODEL 7
REMARK VINA RESULT:      -8.0      1.256      2.272
REMARK  Name = 
REMARK  6 active torsions:
REMARK  status: ('A' for Active; 'I' for Inactive)
REMARK    1  A    between atoms: C_1  and  N_2
REMARK    2  A    between atoms: N_2  and  C_3
REMARK    3  A    between atoms: C_5  and  C_6
REMARK    4  A    between atoms: C_9  and  C_10
REMARK    5  A    between atoms: N_12  and  C_13
REMARK    6  A    between atoms: C_13  and  C_14
REMARK                            x       y       z     vdW  Elec       q    Type
REMARK                         _______ _______ _______ _____ _____    ______ ____
ROOT
ATOM      1  C   UNL     1       0.606   9.500  19.417  0.00  0.00    +0.000 A 
ATOM      2  C   UNL     1       0.982   8.593  20.422  0.00  0.00    +0.000 A 
ATOM      3  C   UNL     1       1.938   7.599  20.185  0.00  0.00    +0.000 A 
ATOM      4  C   UNL     1       2.554   7.473  18.933  0.00  0.00    +0.000 A 
ATOM      5  C   UNL     1       2.211   8.377  17.926  0.00  0.00    +0.000 A 
ATOM      6  C   UNL     1       1.244   9.368  18.167  0.00  0.00    +0.000 A 
ENDROOT
BRANCH   1   9
ATOM      7  C   UNL     1      -1.464  11.967  21.159  0.00  0.00    +0.000 A 
ATOM      8  N   UNL     1      -0.593  10.961  20.941  0.00  0.00    +0.000 NA
ATOM      9  C   UNL     1      -0.401  10.554  19.666  0.00  0.00    +0.000 A 
ATOM     10  N   UNL     1      -1.043  11.066  18.597  0.00  0.00    +0.000 NA
ATOM     11  C   UNL     1      -1.903  12.071  18.852  0.00  0.00    +0.000 A 
ATOM     12  C   UNL     1      -2.145  12.561  20.111  0.00  0.00    +0.000 A 
ATOM     13  F   UNL     1      -3.007  13.574  20.278  0.00  0.00    +0.000 F 
BRANCH   7  15
ATOM     14  C   UNL     1      -2.763  12.117  23.233  0.00  0.00    +0.000 C 
ATOM     15  N   UNL     1      -1.551  12.371  22.485  0.00  0.00    +0.000 N 
ATOM     16  H   UNL     1      -0.682  12.132  22.955  0.00  0.00    +0.000 HD
ENDBRANCH   7  15
ENDBRANCH   1   9
BRANCH   4  17
ATOM     17  C   UNL     1       3.547   6.370  18.761  0.00  0.00    +0.000 C 
ATOM     18  O   UNL     1       3.886   5.714  19.746  0.00  0.00    +0.000 OA
ATOM     19  N   UNL     1       4.036   6.107  17.500  0.00  0.00    +0.000 N 
ATOM     20  H   UNL     1       3.526   6.451  16.702  0.00  0.00    +0.000 HD
BRANCH  19  21
ATOM     21  C   UNL     1       4.989   5.016  17.218  0.00  0.00    +0.000 C 
ATOM     22  C   UNL     1       5.263   4.945  15.708  0.00  0.00    +0.000 C 
ATOM     23  C   UNL     1       6.588   4.201  15.586  0.00  0.00    +0.000 C 
ATOM     24  C   UNL     1       7.354   4.496  16.868  0.00  0.00    +0.000 C 
ATOM     25  C   UNL     1       6.400   5.264  17.775  0.00  0.00    +0.000 C 
BRANCH  21  26
ATOM     26  C   UNL     1       4.370   3.682  17.733  0.00  0.00    +0.000 C 
ATOM     27  N   UNL     1       4.984   3.114  18.810  0.00  0.00    +0.000 N 
ATOM     28  O   UNL     1       3.369   3.155  17.250  0.00  0.00    +0.000 OA
ATOM     29  H   UNL     1       5.761   3.575  19.278  0.00  0.00    +0.000 HD
ATOM     30  H   UNL     1       4.598   2.265  19.203  0.00  0.00    +0.000 HD
ENDBRANCH  21  26
ENDBRANCH  19  21
ENDBRANCH   4  17
TORSDOF 5
ENDMDL
MODEL 8
REMARK VINA RESULT:      -8.0      1.910      2.416
REMARK  Name = 
REMARK  6 active torsions:
REMARK  status: ('A' for Active; 'I' for Inactive)
REMARK    1  A    between atoms: C_1  and  N_2
REMARK    2  A    between atoms: N_2  and  C_3
REMARK    3  A    between atoms: C_5  and  C_6
REMARK    4  A    between atoms: C_9  and  C_10
REMARK    5  A    between atoms: N_12  and  C_13
REMARK    6  A    between atoms: C_13  and  C_14
REMARK                            x       y       z     vdW  Elec       q    Type
REMARK                         _______ _______ _______ _____ _____    ______ ____
ROOT
ATOM      1  C   UNL     1       0.936   9.030  20.347  0.00  0.00    +0.000 A 
ATOM      2  C   UNL     1       1.426   7.804  20.828  0.00  0.00    +0.000 A 
ATOM      3  C   UNL     1       2.219   6.974  20.028  0.00  0.00    +0.000 A 
ATOM      4  C   UNL     1       2.550   7.337  18.715  0.00  0.00    +0.000 A 
ATOM      5  C   UNL     1       2.091   8.560  18.224  0.00  0.00    +0.000 A 
ATOM      6  C   UNL     1       1.288   9.386  19.029  0.00  0.00    +0.000 A 
ENDROOT
BRANCH   1   9
ATOM      7  C   UNL     1      -1.286  11.756  21.365  0.00  0.00    +0.000 A 
ATOM      8  N   UNL     1      -0.472  10.990  20.610  0.00  0.00    +0.000 NA
ATOM      9  C   UNL     1       0.101   9.912  21.191  0.00  0.00    +0.000 A 
ATOM     10  N   UNL     1      -0.062   9.565  22.483  0.00  0.00    +0.000 NA
ATOM     11  C   UNL     1      -0.884  10.351  23.205  0.00  0.00    +0.000 A 
ATOM     12  C   UNL     1      -1.523  11.452  22.693  0.00  0.00    +0.000 A 
ATOM     13  F   UNL     1      -2.337  12.175  23.476  0.00  0.00    +0.000 F 
BRANCH   7  15
ATOM     14  C   UNL     1      -1.082  13.908  20.207  0.00  0.00    +0.000 C 
ATOM     15  N   UNL     1      -1.888  12.802  20.676  0.00  0.00    +0.000 N 
ATOM     16  H   UNL     1      -2.542  12.413  20.002  0.00  0.00    +0.000 HD
ENDBRANCH   7  15
ENDBRANCH   1   9
BRANCH   4  17
ATOM     17  C   UNL     1       3.382   6.379  17.925  0.00  0.00    +0.000 C 
ATOM     18  O   UNL     1       2.885   5.312  17.566  0.00  0.00    +0.000 OA
ATOM     19  N   UNL     1       4.675   6.732  17.604  0.00  0.00    +0.000 N 
ATOM     20  H   UNL     1       4.937   7.704  17.651  0.00  0.00    +0.000 HD
BRANCH  19  21
ATOM     21  C   UNL     1       5.565   5.876  16.796  0.00  0.00    +0.000 C 
ATOM     22  C   UNL     1       5.261   4.397  17.083  0.00  0.00    +0.000 C 
ATOM     23  C   UNL     1       5.812   3.645  15.877  0.00  0.00    +0.000 C 
ATOM     24  C   UNL     1       5.736   4.616  14.707  0.00  0.00    +0.000 C 
ATOM     25  C   UNL     1       5.301   5.956  15.284  0.00  0.00    +0.000 C 
BRANCH  21  26
ATOM     26  C   UNL     1       7.039   6.222  17.163  0.00  0.00    +0.000 C 
ATOM     27  N   UNL     1       7.547   5.589  18.260  0.00  0.00    +0.000 N 
ATOM     28  O   UNL     1       7.750   6.987  16.514  0.00  0.00    +0.000 OA
ATOM     29  H   UNL     1       7.005   4.889  18.763  0.00  0.00    +0.000 HD
ATOM     30  H   UNL     1       8.510   5.755  18.519  0.00  0.00    +0.000 HD
ENDBRANCH  21  26
ENDBRANCH  19  21
ENDBRANCH   4  17
TORSDOF 5
ENDMDL
MODEL 9
REMARK VINA RESULT:      -8.0      1.230      2.084
REMARK  Name = 
REMARK  6 active torsions:
REMARK  status: ('A' for Active; 'I' for Inactive)
REMARK    1  A    between atoms: C_1  and  N_2
REMARK    2  A    between atoms: N_2  and  C_3
REMARK    3  A    between atoms: C_5  and  C_6
REMARK    4  A    between atoms: C_9  and  C_10
REMARK    5  A    between atoms: N_12  and  C_13
REMARK    6  A    between atoms: C_13  and  C_14
REMARK                            x       y       z     vdW  Elec       q    Type
REMARK                         _______ _______ _______ _____ _____    ______ ____
ROOT
ATOM      1  C   UNL     1       0.726   9.524  19.500  0.00  0.00    +0.000 A 
ATOM      2  C   UNL     1       1.376   9.297  18.275  0.00  0.00    +0.000 A 
ATOM      3  C   UNL     1       2.270   8.232  18.112  0.00  0.00    +0.000 A 
ATOM      4  C   UNL     1       2.550   7.356  19.169  0.00  0.00    +0.000 A 
ATOM      5  C   UNL     1       1.900   7.551  20.389  0.00  0.00    +0.000 A 
ATOM      6  C   UNL     1       1.009   8.626  20.549  0.00  0.00    +0.000 A 
ENDROOT
BRANCH   1   9
ATOM      7  C   UNL     1      -1.504  11.956  21.086  0.00  0.00    +0.000 A 
ATOM      8  N   UNL     1      -0.691  10.893  20.917  0.00  0.00    +0.000 NA
ATOM      9  C   UNL     1      -0.222  10.645  19.674  0.00  0.00    +0.000 A 
ATOM     10  N   UNL     1      -0.534  11.372  18.582  0.00  0.00    +0.000 NA
ATOM     11  C   UNL     1      -1.345  12.427  18.788  0.00  0.00    +0.000 A 
ATOM     12  C   UNL     1      -1.852  12.765  20.019  0.00  0.00    +0.000 A 
ATOM     13  F   UNL     1      -2.643  13.840  20.142  0.00  0.00    +0.000 F 
BRANCH   7  15
ATOM     14  C   UNL     1      -1.266  13.250  23.155  0.00  0.00    +0.000 C 
ATOM     15  N   UNL     1      -1.885  12.181  22.403  0.00  0.00    +0.000 N 
ATOM     16  H   UNL     1      -2.898  12.127  22.461  0.00  0.00    +0.000 HD
ENDBRANCH   7  15
ENDBRANCH   1   9
BRANCH   4  17
ATOM     17  C   UNL     1       3.534   6.261  18.914  0.00  0.00    +0.000 C 
ATOM     18  O   UNL     1       3.869   5.530  19.846  0.00  0.00    +0.000 OA
ATOM     19  N   UNL     1       4.019   6.089  17.636  0.00  0.00    +0.000 N 
ATOM     20  H   UNL     1       3.510   6.495  16.867  0.00  0.00    +0.000 HD
BRANCH  19  21
ATOM     21  C   UNL     1       4.963   5.014  17.271  0.00  0.00    +0.000 C 
ATOM     22  C   UNL     1       5.190   5.018  15.752  0.00  0.00    +0.000 C 
ATOM     23  C   UNL     1       6.510   4.284  15.552  0.00  0.00    +0.000 C 
ATOM     24  C   UNL     1       7.316   4.517  16.823  0.00  0.00    +0.000 C 
ATOM     25  C   UNL     1       6.390   5.238  17.796  0.00  0.00    +0.000 C 
BRANCH  21  26
ATOM     26  C   UNL     1       4.361   3.656  17.739  0.00  0.00    +0.000 C 
ATOM     27  N   UNL     1       5.001   3.042  18.775  0.00  0.00    +0.000 N 
ATOM     28  O   UNL     1       3.351   3.147  17.256  0.00  0.00    +0.000 OA
ATOM     29  H   UNL     1       5.787   3.486  19.246  0.00  0.00    +0.000 HD
ATOM     30  H   UNL     1       4.627   2.175  19.137  0.00  0.00    +0.000 HD
ENDBRANCH  21  26
ENDBRANCH  19  21
ENDBRANCH   4  17
TORSDOF 5
ENDMDL
