MODEL 1
REMARK VINA RESULT:      -7.7      0.000      0.000
REMARK  Name = 
REMARK  8 active torsions:
REMARK  status: ('A' for Active; 'I' for Inactive)
REMARK    1  A    between atoms: C_1  and  C_2
REMARK    2  A    between atoms: N_9  and  C_10
REMARK    3  A    between atoms: C_10  and  C_11
REMARK    4  A    between atoms: C_11  and  C_12
REMARK    5  A    between atoms: C_12  and  N_13
REMARK    6  A    between atoms: N_13  and  C_14
REMARK    7  A    between atoms: N_13  and  C_15
REMARK    8  A    between atoms: C_16  and  C_18
REMARK                            x       y       z     vdW  Elec       q    Type
REMARK                         _______ _______ _______ _____ _____    ______ ____
ROOT
ATOM      1  C   UNL     1       2.022   3.555  21.711  0.00  0.00    +0.000 C 
ATOM      2  C   UNL     1       2.634   3.677  20.344  0.00  0.00    +0.000 A 
ATOM      3  C   UNL     1       3.206   2.554  19.708  0.00  0.00    +0.000 A 
ATOM      4  C   UNL     1       3.773   2.668  18.424  0.00  0.00    +0.000 A 
ATOM      5  C   UNL     1       3.774   3.902  17.753  0.00  0.00    +0.000 A 
ATOM      6  C   UNL     1       3.203   4.998  18.392  0.00  0.00    +0.000 A 
ATOM      7  S   UNL     1       3.042   6.578  17.847  0.00  0.00    +0.000 S 
ATOM      8  C   UNL     1       2.263   7.110  19.272  0.00  0.00    +0.000 A 
ATOM      9  N   UNL     1       1.783   8.462  19.559  0.00  0.00    +0.000 N 
ATOM     10  C   UNL     1       1.611   9.383  18.513  0.00  0.00    +0.000 C 
ATOM     11  O   UNL     1       1.828   9.013  17.366  0.00  0.00    +0.000 OA
ATOM     12  N   UNL     1       2.144   6.066  20.135  0.00  0.00    +0.000 NA
ATOM     13  C   UNL     1       2.650   4.904  19.655  0.00  0.00    +0.000 A 
ENDROOT
BRANCH  10  14
ATOM     14  C   UNL     1       1.016  10.797  18.613  0.00  0.00    +0.000 A 
ATOM     15  C   UNL     1       1.919  11.865  18.866  0.00  0.00    +0.000 A 
ATOM     16  C   UNL     1       1.476  13.197  18.911  0.00  0.00    +0.000 A 
ATOM     17  C   UNL     1       2.347  14.278  19.146  0.00  0.00    +0.000 A 
ATOM     18  C   UNL     1       1.849  15.590  19.140  0.00  0.00    +0.000 A 
ATOM     19  C   UNL     1       0.495  15.828  18.891  0.00  0.00    +0.000 A 
ATOM     20  C   UNL     1      -0.374  14.758  18.674  0.00  0.00    +0.000 A 
ATOM     21  C   UNL     1       0.113  13.449  18.697  0.00  0.00    +0.000 A 
ATOM     22  O   UNL     1      -0.725  12.448  18.529  0.00  0.00    +0.000 OA
ATOM     23  C   UNL     1      -0.359  11.179  18.507  0.00  0.00    +0.000 A 
ATOM     24  O   UNL     1      -1.247  10.362  18.460  0.00  0.00    +0.000 OA
ENDBRANCH  10  14
BRANCH   9  25
ATOM     25  C   UNL     1       1.370   8.838  20.926  0.00  0.00    +0.000 C 
BRANCH  25  26
ATOM     26  C   UNL     1      -0.125   8.942  21.279  0.00  0.00    +0.000 C 
BRANCH  26  27
ATOM     27  C   UNL     1      -0.357   9.839  22.512  0.00  0.00    +0.000 C 
BRANCH  27  28
ATOM     28  N   UNL     1      -1.116  11.076  22.208  0.00  0.00    +0.000 NA
ATOM     29  C   UNL     1      -2.059  11.435  23.285  0.00  0.00    +0.000 C 
ATOM     30  C   UNL     1      -0.175  12.189  22.000  0.00  0.00    +0.000 C 
ENDBRANCH  27  28
ENDBRANCH  26  27
ENDBRANCH  25  26
ENDBRANCH   9  25
TORSDOF 5
ENDMDL
MODEL 2
REMARK VINA RESULT:      -7.0      3.231      8.468
REMARK  Name = 
REMARK  8 active torsions:
REMARK  status: ('A' for Active; 'I' for Inactive)
REMARK    1  A    between atoms: C_1  and  C_2
REMARK    2  A    between atoms: N_9  and  C_10
REMARK    3  A    between atoms: C_10  and  C_11
REMARK    4  A    between atoms: C_11  and  C_12
REMARK    5  A    between atoms: C_12  and  N_13
REMARK    6  A    between atoms: N_13  and  C_14
REMARK    7  A    between atoms: N_13  and  C_15
REMARK    8  A    between atoms: C_16  and  C_18
REMARK                            x       y       z     vdW  Elec       q    Type
REMARK                         _______ _______ _______ _____ _____    ______ ____
ROOT
ATOM      1  C   UNL     1      -5.566  13.517  20.171  0.00  0.00    +0.000 C 
ATOM      2  C   UNL     1      -4.700  13.717  21.383  0.00  0.00    +0.000 A 
ATOM      3  C   UNL     1      -5.171  14.456  22.489  0.00  0.00    +0.000 A 
ATOM      4  C   UNL     1      -4.362  14.638  23.627  0.00  0.00    +0.000 A 
ATOM      5  C   UNL     1      -3.074  14.081  23.681  0.00  0.00    +0.000 A 
ATOM      6  C   UNL     1      -2.626  13.352  22.585  0.00  0.00    +0.000 A 
ATOM      7  S   UNL     1      -1.161  12.565  22.360  0.00  0.00    +0.000 S 
ATOM      8  C   UNL     1      -1.566  12.012  20.795  0.00  0.00    +0.000 A 
ATOM      9  N   UNL     1      -0.735  11.201  19.906  0.00  0.00    +0.000 N 
ATOM     10  C   UNL     1       0.367  10.500  20.421  0.00  0.00    +0.000 C 
ATOM     11  O   UNL     1       0.582  10.550  21.625  0.00  0.00    +0.000 OA
ATOM     12  N   UNL     1      -2.816  12.444  20.477  0.00  0.00    +0.000 NA
ATOM     13  C   UNL     1      -3.405  13.172  21.456  0.00  0.00    +0.000 A 
ENDROOT
BRANCH  10  14
ATOM     14  C   UNL     1       1.277   9.520  19.662  0.00  0.00    +0.000 A 
ATOM     15  C   UNL     1       1.428   8.218  20.212  0.00  0.00    +0.000 A 
ATOM     16  C   UNL     1       2.188   7.235  19.556  0.00  0.00    +0.000 A 
ATOM     17  C   UNL     1       2.347   5.933  20.066  0.00  0.00    +0.000 A 
ATOM     18  C   UNL     1       3.086   4.985  19.343  0.00  0.00    +0.000 A 
ATOM     19  C   UNL     1       3.657   5.325  18.113  0.00  0.00    +0.000 A 
ATOM     20  C   UNL     1       3.515   6.619  17.613  0.00  0.00    +0.000 A 
ATOM     21  C   UNL     1       2.795   7.572  18.336  0.00  0.00    +0.000 A 
ATOM     22  O   UNL     1       2.703   8.800  17.870  0.00  0.00    +0.000 OA
ATOM     23  C   UNL     1       2.023   9.763  18.466  0.00  0.00    +0.000 A 
ATOM     24  O   UNL     1       2.120  10.868  17.987  0.00  0.00    +0.000 OA
ENDBRANCH  10  14
BRANCH   9  25
ATOM     25  C   UNL     1      -1.105  11.022  18.488  0.00  0.00    +0.000 C 
BRANCH  25  26
ATOM     26  C   UNL     1      -1.847   9.749  18.040  0.00  0.00    +0.000 C 
BRANCH  26  27
ATOM     27  C   UNL     1      -3.311  10.050  17.657  0.00  0.00    +0.000 C 
BRANCH  27  28
ATOM     28  N   UNL     1      -3.452  11.171  16.697  0.00  0.00    +0.000 NA
ATOM     29  C   UNL     1      -3.294  10.735  15.297  0.00  0.00    +0.000 C 
ATOM     30  C   UNL     1      -4.776  11.793  16.863  0.00  0.00    +0.000 C 
ENDBRANCH  27  28
ENDBRANCH  26  27
ENDBRANCH  25  26
ENDBRANCH   9  25
TORSDOF 5
ENDMDL
MODEL 3
REMARK VINA RESULT:      -7.0      3.155      8.485
REMARK  Name = 
REMARK  8 active torsions:
REMARK  status: ('A' for Active; 'I' for Inactive)
REMARK    1  A    between atoms: C_1  and  C_2
REMARK    2  A    between atoms: N_9  and  C_10
REMARK    3  A    between atoms: C_10  and  C_11
REMARK    4  A    between atoms: C_11  and  C_12
REMARK    5  A    between atoms: C_12  and  N_13
REMARK    6  A    between atoms: N_13  and  C_14
REMARK    7  A    between atoms: N_13  and  C_15
REMARK    8  A    between atoms: C_16  and  C_18
REMARK                            x       y       z     vdW  Elec       q    Type
REMARK                         _______ _______ _______ _____ _____    ______ ____
ROOT
ATOM      1  C   UNL     1      -5.434  13.031  21.348  0.00  0.00    +0.000 C 
ATOM      2  C   UNL     1      -4.271  13.583  22.125  0.00  0.00    +0.000 A 
ATOM      3  C   UNL     1      -4.462  14.613  23.071  0.00  0.00    +0.000 A 
ATOM      4  C   UNL     1      -3.373  15.124  23.803  0.00  0.00    +0.000 A 
ATOM      5  C   UNL     1      -2.080  14.612  23.608  0.00  0.00    +0.000 A 
ATOM      6  C   UNL     1      -1.910  13.595  22.675  0.00  0.00    +0.000 A 
ATOM      7  S   UNL     1      -0.509  12.781  22.235  0.00  0.00    +0.000 S 
ATOM      8  C   UNL     1      -1.305  11.792  21.093  0.00  0.00    +0.000 A 
ATOM      9  N   UNL     1      -0.701  10.758  20.252  0.00  0.00    +0.000 N 
ATOM     10  C   UNL     1       0.565  10.243  20.573  0.00  0.00    +0.000 C 
ATOM     11  O   UNL     1       1.121  10.645  21.587  0.00  0.00    +0.000 OA
ATOM     12  N   UNL     1      -2.628  12.106  21.071  0.00  0.00    +0.000 NA
ATOM     13  C   UNL     1      -2.967  13.088  21.941  0.00  0.00    +0.000 A 
ENDROOT
BRANCH  10  14
ATOM     14  C   UNL     1       1.298   9.086  19.874  0.00  0.00    +0.000 A 
ATOM     15  C   UNL     1       1.415   7.864  20.592  0.00  0.00    +0.000 A 
ATOM     16  C   UNL     1       2.012   6.734  20.010  0.00  0.00    +0.000 A 
ATOM     17  C   UNL     1       2.131   5.506  20.689  0.00  0.00    +0.000 A 
ATOM     18  C   UNL     1       2.702   4.402  20.038  0.00  0.00    +0.000 A 
ATOM     19  C   UNL     1       3.144   4.513  18.717  0.00  0.00    +0.000 A 
ATOM     20  C   UNL     1       3.042   5.732  18.048  0.00  0.00    +0.000 A 
ATOM     21  C   UNL     1       2.491   6.840  18.696  0.00  0.00    +0.000 A 
ATOM     22  O   UNL     1       2.437   7.994  18.064  0.00  0.00    +0.000 OA
ATOM     23  C   UNL     1       1.910   9.090  18.581  0.00  0.00    +0.000 A 
ATOM     24  O   UNL     1       2.032  10.103  17.935  0.00  0.00    +0.000 OA
ENDBRANCH  10  14
BRANCH   9  25
ATOM     25  C   UNL     1      -1.456  10.168  19.128  0.00  0.00    +0.000 C 
BRANCH  25  26
ATOM     26  C   UNL     1      -1.343  10.781  17.719  0.00  0.00    +0.000 C 
BRANCH  26  27
ATOM     27  C   UNL     1      -2.618  11.560  17.336  0.00  0.00    +0.000 C 
BRANCH  27  28
ATOM     28  N   UNL     1      -3.744  10.686  16.924  0.00  0.00    +0.000 NA
ATOM     29  C   UNL     1      -5.005  11.036  17.605  0.00  0.00    +0.000 C 
ATOM     30  C   UNL     1      -3.936  10.790  15.468  0.00  0.00    +0.000 C 
ENDBRANCH  27  28
ENDBRANCH  26  27
ENDBRANCH  25  26
ENDBRANCH   9  25
TORSDOF 5
ENDMDL
MODEL 4
REMARK VINA RESULT:      -6.9      3.563      5.669
REMARK  Name = 
REMARK  8 active torsions:
REMARK  status: ('A' for Active; 'I' for Inactive)
REMARK    1  A    between atoms: C_1  and  C_2
REMARK    2  A    between atoms: N_9  and  C_10
REMARK    3  A    between atoms: C_10  and  C_11
REMARK    4  A    between atoms: C_11  and  C_12
REMARK    5  A    between atoms: C_12  and  N_13
REMARK    6  A    between atoms: N_13  and  C_14
REMARK    7  A    between atoms: N_13  and  C_15
REMARK    8  A    between atoms: C_16  and  C_18
REMARK                            x       y       z     vdW  Elec       q    Type
REMARK                         _______ _______ _______ _____ _____    ______ ____
ROOT
ATOM      1  C   UNL     1       2.247   9.213  17.494  0.00  0.00    +0.000 C 
ATOM      2  C   UNL     1       2.014   8.318  18.679  0.00  0.00    +0.000 A 
ATOM      3  C   UNL     1       2.626   7.049  18.753  0.00  0.00    +0.000 A 
ATOM      4  C   UNL     1       2.413   6.213  19.866  0.00  0.00    +0.000 A 
ATOM      5  C   UNL     1       1.592   6.634  20.925  0.00  0.00    +0.000 A 
ATOM      6  C   UNL     1       0.999   7.889  20.838  0.00  0.00    +0.000 A 
ATOM      7  S   UNL     1      -0.008   8.666  21.935  0.00  0.00    +0.000 S 
ATOM      8  C   UNL     1      -0.180  10.061  20.963  0.00  0.00    +0.000 A 
ATOM      9  N   UNL     1      -0.962  11.257  21.274  0.00  0.00    +0.000 N 
ATOM     10  C   UNL     1      -1.371  11.505  22.594  0.00  0.00    +0.000 C 
ATOM     11  O   UNL     1      -1.022  10.726  23.472  0.00  0.00    +0.000 OA
ATOM     12  N   UNL     1       0.537   9.902  19.819  0.00  0.00    +0.000 NA
ATOM     13  C   UNL     1       1.191   8.717  19.748  0.00  0.00    +0.000 A 
ENDROOT
BRANCH  10  14
ATOM     14  C   UNL     1      -2.096  12.756  23.119  0.00  0.00    +0.000 A 
ATOM     15  C   UNL     1      -1.296  13.760  23.730  0.00  0.00    +0.000 A 
ATOM     16  C   UNL     1      -1.861  14.964  24.181  0.00  0.00    +0.000 A 
ATOM     17  C   UNL     1      -1.096  15.984  24.778  0.00  0.00    +0.000 A 
ATOM     18  C   UNL     1      -1.713  17.181  25.172  0.00  0.00    +0.000 A 
ATOM     19  C   UNL     1      -3.083  17.368  24.966  0.00  0.00    +0.000 A 
ATOM     20  C   UNL     1      -3.847  16.353  24.390  0.00  0.00    +0.000 A 
ATOM     21  C   UNL     1      -3.241  15.153  24.012  0.00  0.00    +0.000 A 
ATOM     22  O   UNL     1      -3.982  14.190  23.505  0.00  0.00    +0.000 OA
ATOM     23  C   UNL     1      -3.500  13.031  23.092  0.00  0.00    +0.000 A 
ATOM     24  O   UNL     1      -4.308  12.199  22.758  0.00  0.00    +0.000 OA
ENDBRANCH  10  14
BRANCH   9  25
ATOM     25  C   UNL     1      -1.233  12.269  20.233  0.00  0.00    +0.000 C 
BRANCH  25  26
ATOM     26  C   UNL     1      -2.432  12.093  19.283  0.00  0.00    +0.000 C 
BRANCH  26  27
ATOM     27  C   UNL     1      -1.977  11.927  17.818  0.00  0.00    +0.000 C 
BRANCH  27  28
ATOM     28  N   UNL     1      -2.803  10.967  17.047  0.00  0.00    +0.000 NA
ATOM     29  C   UNL     1      -2.905   9.654  17.712  0.00  0.00    +0.000 C 
ATOM     30  C   UNL     1      -4.155  11.522  16.864  0.00  0.00    +0.000 C 
ENDBRANCH  27  28
ENDBRANCH  26  27
ENDBRANCH  25  26
ENDBRANCH   9  25
TORSDOF 5
ENDMDL
MODEL 5
REMARK VINA RESULT:      -6.9      2.510      4.253
REMARK  Name = 
REMARK  8 active torsions:
REMARK  status: ('A' for Active; 'I' for Inactive)
REMARK    1  A    between atoms: C_1  and  C_2
REMARK    2  A    between atoms: N_9  and  C_10
REMARK    3  A    between atoms: C_10  and  C_11
REMARK    4  A    between atoms: C_11  and  C_12
REMARK    5  A    between atoms: C_12  and  N_13
REMARK    6  A    between atoms: N_13  and  C_14
REMARK    7  A    between atoms: N_13  and  C_15
REMARK    8  A    between atoms: C_16  and  C_18
REMARK                            x       y       z     vdW  Elec       q    Type
REMARK                         _______ _______ _______ _____ _____    ______ ____
ROOT
ATOM      1  C   UNL     1       4.278   6.521  16.401  0.00  0.00    +0.000 C 
ATOM      2  C   UNL     1       3.955   5.738  17.644  0.00  0.00    +0.000 A 
ATOM      3  C   UNL     1       4.446   4.427  17.816  0.00  0.00    +0.000 A 
ATOM      4  C   UNL     1       4.148   3.697  18.983  0.00  0.00    +0.000 A 
ATOM      5  C   UNL     1       3.362   4.267  19.998  0.00  0.00    +0.000 A 
ATOM      6  C   UNL     1       2.889   5.562  19.814  0.00  0.00    +0.000 A 
ATOM      7  S   UNL     1       1.950   6.505  20.838  0.00  0.00    +0.000 S 
ATOM      8  C   UNL     1       1.915   7.836  19.768  0.00  0.00    +0.000 A 
ATOM      9  N   UNL     1       1.246   9.119  19.982  0.00  0.00    +0.000 N 
ATOM     10  C   UNL     1       0.852   9.498  21.276  0.00  0.00    +0.000 C 
ATOM     11  O   UNL     1       1.121   8.755  22.211  0.00  0.00    +0.000 OA
ATOM     12  N   UNL     1       2.622   7.530  18.648  0.00  0.00    +0.000 NA
ATOM     13  C   UNL     1       3.165   6.288  18.670  0.00  0.00    +0.000 A 
ENDROOT
BRANCH  10  14
ATOM     14  C   UNL     1       0.243  10.845  21.700  0.00  0.00    +0.000 A 
ATOM     15  C   UNL     1      -1.043  10.813  22.304  0.00  0.00    +0.000 A 
ATOM     16  C   UNL     1      -1.651  11.986  22.781  0.00  0.00    +0.000 A 
ATOM     17  C   UNL     1      -2.918  11.988  23.395  0.00  0.00    +0.000 A 
ATOM     18  C   UNL     1      -3.454  13.187  23.887  0.00  0.00    +0.000 A 
ATOM     19  C   UNL     1      -2.732  14.379  23.779  0.00  0.00    +0.000 A 
ATOM     20  C   UNL     1      -1.483  14.383  23.156  0.00  0.00    +0.000 A 
ATOM     21  C   UNL     1      -0.952  13.196  22.649  0.00  0.00    +0.000 A 
ATOM     22  O   UNL     1       0.209  13.223  22.030  0.00  0.00    +0.000 OA
ATOM     23  C   UNL     1       0.806  12.150  21.541  0.00  0.00    +0.000 A 
ATOM     24  O   UNL     1       1.811  12.338  20.898  0.00  0.00    +0.000 OA
ENDBRANCH  10  14
BRANCH   9  25
ATOM     25  C   UNL     1       1.077  10.073  18.868  0.00  0.00    +0.000 C 
BRANCH  25  26
ATOM     26  C   UNL     1      -0.236  10.094  18.064  0.00  0.00    +0.000 C 
BRANCH  26  27
ATOM     27  C   UNL     1      -1.071  11.354  18.371  0.00  0.00    +0.000 C 
BRANCH  27  28
ATOM     28  N   UNL     1      -2.264  11.499  17.502  0.00  0.00    +0.000 NA
ATOM     29  C   UNL     1      -2.383  10.400  16.524  0.00  0.00    +0.000 C 
ATOM     30  C   UNL     1      -3.476  11.536  18.338  0.00  0.00    +0.000 C 
ENDBRANCH  27  28
ENDBRANCH  26  27
ENDBRANCH  25  26
ENDBRANCH   9  25
TORSDOF 5
ENDMDL
MODEL 6
REMARK VINA RESULT:      -6.9      3.533      6.089
REMARK  Name = 
REMARK  8 active torsions:
REMARK  status: ('A' for Active; 'I' for Inactive)
REMARK    1  A    between atoms: C_1  and  C_2
REMARK    2  A    between atoms: N_9  and  C_10
REMARK    3  A    between atoms: C_10  and  C_11
REMARK    4  A    between atoms: C_11  and  C_12
REMARK    5  A    between atoms: C_12  and  N_13
REMARK    6  A    between atoms: N_13  and  C_14
REMARK    7  A    between atoms: N_13  and  C_15
REMARK    8  A    between atoms: C_16  and  C_18
REMARK                            x       y       z     vdW  Elec       q    Type
REMARK                         _______ _______ _______ _____ _____    ______ ____
ROOT
ATOM      1  C   UNL     1       2.184   9.199  17.481  0.00  0.00    +0.000 C 
ATOM      2  C   UNL     1       1.953   8.372  18.716  0.00  0.00    +0.000 A 
ATOM      3  C   UNL     1       2.537   7.093  18.845  0.00  0.00    +0.000 A 
ATOM      4  C   UNL     1       2.326   6.322  20.004  0.00  0.00    +0.000 A 
ATOM      5  C   UNL     1       1.534   6.817  21.053  0.00  0.00    +0.000 A 
ATOM      6  C   UNL     1       0.970   8.080  20.912  0.00  0.00    +0.000 A 
ATOM      7  S   UNL     1       0.001   8.935  21.984  0.00  0.00    +0.000 S 
ATOM      8  C   UNL     1      -0.157  10.282  20.944  0.00  0.00    +0.000 A 
ATOM      9  N   UNL     1      -0.905  11.512  21.206  0.00  0.00    +0.000 N 
ATOM     10  C   UNL     1      -1.284  11.837  22.518  0.00  0.00    +0.000 C 
ATOM     11  O   UNL     1      -0.936  11.096  23.429  0.00  0.00    +0.000 OA
ATOM     12  N   UNL     1       0.534  10.047  19.797  0.00  0.00    +0.000 NA
ATOM     13  C   UNL     1       1.160   8.846  19.777  0.00  0.00    +0.000 A 
ENDROOT
BRANCH  10  14
ATOM     14  C   UNL     1      -1.969  13.130  22.990  0.00  0.00    +0.000 A 
ATOM     15  C   UNL     1      -3.390  13.160  22.958  0.00  0.00    +0.000 A 
ATOM     16  C   UNL     1      -4.105  14.274  23.429  0.00  0.00    +0.000 A 
ATOM     17  C   UNL     1      -5.511  14.330  23.423  0.00  0.00    +0.000 A 
ATOM     18  C   UNL     1      -6.167  15.456  23.944  0.00  0.00    +0.000 A 
ATOM     19  C   UNL     1      -5.431  16.517  24.478  0.00  0.00    +0.000 A 
ATOM     20  C   UNL     1      -4.037  16.471  24.470  0.00  0.00    +0.000 A 
ATOM     21  C   UNL     1      -3.378  15.361  23.937  0.00  0.00    +0.000 A 
ATOM     22  O   UNL     1      -2.062  15.350  23.901  0.00  0.00    +0.000 OA
ATOM     23  C   UNL     1      -1.348  14.337  23.442  0.00  0.00    +0.000 A 
ATOM     24  O   UNL     1      -0.155  14.510  23.363  0.00  0.00    +0.000 OA
ENDBRANCH  10  14
BRANCH   9  25
ATOM     25  C   UNL     1      -1.173  12.474  20.118  0.00  0.00    +0.000 C 
BRANCH  25  26
ATOM     26  C   UNL     1      -2.368  12.254  19.172  0.00  0.00    +0.000 C 
BRANCH  26  27
ATOM     27  C   UNL     1      -1.904  11.963  17.730  0.00  0.00    +0.000 C 
BRANCH  27  28
ATOM     28  N   UNL     1      -2.618  10.827  17.098  0.00  0.00    +0.000 NA
ATOM     29  C   UNL     1      -2.887  11.060  15.665  0.00  0.00    +0.000 C 
ATOM     30  C   UNL     1      -1.816   9.602  17.246  0.00  0.00    +0.000 C 
ENDBRANCH  27  28
ENDBRANCH  26  27
ENDBRANCH  25  26
ENDBRANCH   9  25
TORSDOF 5
ENDMDL
MODEL 7
REMARK VINA RESULT:      -6.8      3.034      5.271
REMARK  Name = 
REMARK  8 active torsions:
REMARK  status: ('A' for Active; 'I' for Inactive)
REMARK    1  A    between atoms: C_1  and  C_2
REMARK    2  A    between atoms: N_9  and  C_10
REMARK    3  A    between atoms: C_10  and  C_11
REMARK    4  A    between atoms: C_11  and  C_12
REMARK    5  A    between atoms: C_12  and  N_13
REMARK    6  A    between atoms: N_13  and  C_14
REMARK    7  A    between atoms: N_13  and  C_15
REMARK    8  A    between atoms: C_16  and  C_18
REMARK                            x       y       z     vdW  Elec       q    Type
REMARK                         _______ _______ _______ _____ _____    ______ ____
ROOT
ATOM      1  C   UNL     1       3.113   8.169  17.377  0.00  0.00    +0.000 C 
ATOM      2  C   UNL     1       2.727   7.361  18.584  0.00  0.00    +0.000 A 
ATOM      3  C   UNL     1       3.232   6.056  18.768  0.00  0.00    +0.000 A 
ATOM      4  C   UNL     1       2.874   5.302  19.902  0.00  0.00    +0.000 A 
ATOM      5  C   UNL     1       2.013   5.840  20.872  0.00  0.00    +0.000 A 
ATOM      6  C   UNL     1       1.528   7.129  20.677  0.00  0.00    +0.000 A 
ATOM      7  S   UNL     1       0.506   8.036  21.653  0.00  0.00    +0.000 S 
ATOM      8  C   UNL     1       0.514   9.384  20.603  0.00  0.00    +0.000 A 
ATOM      9  N   UNL     1      -0.193  10.651  20.793  0.00  0.00    +0.000 N 
ATOM     10  C   UNL     1      -0.677  11.001  22.064  0.00  0.00    +0.000 C 
ATOM     11  O   UNL     1      -0.454  10.248  23.003  0.00  0.00    +0.000 OA
ATOM     12  N   UNL     1       1.297   9.110  19.527  0.00  0.00    +0.000 NA
ATOM     13  C   UNL     1       1.862   7.878  19.565  0.00  0.00    +0.000 A 
ENDROOT
BRANCH  10  14
ATOM     14  C   UNL     1      -1.339  12.329  22.469  0.00  0.00    +0.000 A 
ATOM     15  C   UNL     1      -2.753  12.331  22.616  0.00  0.00    +0.000 A 
ATOM     16  C   UNL     1      -3.437  13.480  23.045  0.00  0.00    +0.000 A 
ATOM     17  C   UNL     1      -4.834  13.511  23.213  0.00  0.00    +0.000 A 
ATOM     18  C   UNL     1      -5.455  14.679  23.682  0.00  0.00    +0.000 A 
ATOM     19  C   UNL     1      -4.691  15.807  23.992  0.00  0.00    +0.000 A 
ATOM     20  C   UNL     1      -3.309  15.785  23.810  0.00  0.00    +0.000 A 
ATOM     21  C   UNL     1      -2.687  14.631  23.327  0.00  0.00    +0.000 A 
ATOM     22  O   UNL     1      -1.386  14.638  23.124  0.00  0.00    +0.000 OA
ATOM     23  C   UNL     1      -0.704  13.590  22.696  0.00  0.00    +0.000 A 
ATOM     24  O   UNL     1       0.463  13.773  22.445  0.00  0.00    +0.000 OA
ENDBRANCH  10  14
BRANCH   9  25
ATOM     25  C   UNL     1      -0.309  11.620  19.685  0.00  0.00    +0.000 C 
BRANCH  25  26
ATOM     26  C   UNL     1      -1.615  11.710  18.874  0.00  0.00    +0.000 C 
BRANCH  26  27
ATOM     27  C   UNL     1      -1.920  10.388  18.139  0.00  0.00    +0.000 C 
BRANCH  27  28
ATOM     28  N   UNL     1      -3.133  10.451  17.288  0.00  0.00    +0.000 NA
ATOM     29  C   UNL     1      -4.149  11.376  17.827  0.00  0.00    +0.000 C 
ATOM     30  C   UNL     1      -2.757  10.883  15.932  0.00  0.00    +0.000 C 
ENDBRANCH  27  28
ENDBRANCH  26  27
ENDBRANCH  25  26
ENDBRANCH   9  25
TORSDOF 5
ENDMDL
MODEL 8
REMARK VINA RESULT:      -6.6      2.613      4.605
REMARK  Name = 
REMARK  8 active torsions:
REMARK  status: ('A' for Active; 'I' for Inactive)
REMARK    1  A    between atoms: C_1  and  C_2
REMARK    2  A    between atoms: N_9  and  C_10
REMARK    3  A    between atoms: C_10  and  C_11
REMARK    4  A    between atoms: C_11  and  C_12
REMARK    5  A    between atoms: C_12  and  N_13
REMARK    6  A    between atoms: N_13  and  C_14
REMARK    7  A    between atoms: N_13  and  C_15
REMARK    8  A    between atoms: C_16  and  C_18
REMARK                            x       y       z     vdW  Elec       q    Type
REMARK                         _______ _______ _______ _____ _____    ______ ____
ROOT
ATOM      1  C   UNL     1       3.742   2.794  17.822  0.00  0.00    +0.000 C 
ATOM      2  C   UNL     1       4.360   3.921  17.043  0.00  0.00    +0.000 A 
ATOM      3  C   UNL     1       5.263   3.659  15.991  0.00  0.00    +0.000 A 
ATOM      4  C   UNL     1       5.837   4.716  15.258  0.00  0.00    +0.000 A 
ATOM      5  C   UNL     1       5.513   6.049  15.559  0.00  0.00    +0.000 A 
ATOM      6  C   UNL     1       4.618   6.290  16.596  0.00  0.00    +0.000 A 
ATOM      7  S   UNL     1       4.033   7.754  17.174  0.00  0.00    +0.000 S 
ATOM      8  C   UNL     1       3.063   7.022  18.376  0.00  0.00    +0.000 A 
ATOM      9  N   UNL     1       2.198   7.700  19.341  0.00  0.00    +0.000 N 
ATOM     10  C   UNL     1       1.819   9.035  19.127  0.00  0.00    +0.000 C 
ATOM     11  O   UNL     1       2.191   9.592  18.102  0.00  0.00    +0.000 OA
ATOM     12  N   UNL     1       3.209   5.672  18.309  0.00  0.00    +0.000 NA
ATOM     13  C   UNL     1       4.053   5.264  17.331  0.00  0.00    +0.000 A 
ENDROOT
BRANCH  10  14
ATOM     14  C   UNL     1       0.835   9.864  19.970  0.00  0.00    +0.000 A 
ATOM     15  C   UNL     1      -0.210  10.532  19.275  0.00  0.00    +0.000 A 
ATOM     16  C   UNL     1      -1.193  11.260  19.966  0.00  0.00    +0.000 A 
ATOM     17  C   UNL     1      -2.247  11.922  19.310  0.00  0.00    +0.000 A 
ATOM     18  C   UNL     1      -3.221  12.600  20.060  0.00  0.00    +0.000 A 
ATOM     19  C   UNL     1      -3.152  12.612  21.456  0.00  0.00    +0.000 A 
ATOM     20  C   UNL     1      -2.099  11.971  22.109  0.00  0.00    +0.000 A 
ATOM     21  C   UNL     1      -1.118  11.310  21.367  0.00  0.00    +0.000 A 
ATOM     22  O   UNL     1      -0.109  10.743  21.995  0.00  0.00    +0.000 OA
ATOM     23  C   UNL     1       0.852  10.071  21.385  0.00  0.00    +0.000 A 
ATOM     24  O   UNL     1       1.774   9.704  22.074  0.00  0.00    +0.000 OA
ENDBRANCH  10  14
BRANCH   9  25
ATOM     25  C   UNL     1       1.627   6.962  20.485  0.00  0.00    +0.000 C 
BRANCH  25  26
ATOM     26  C   UNL     1       2.073   5.516  20.770  0.00  0.00    +0.000 C 
BRANCH  26  27
ATOM     27  C   UNL     1       0.978   4.498  20.391  0.00  0.00    +0.000 C 
BRANCH  27  28
ATOM     28  N   UNL     1       1.462   3.097  20.349  0.00  0.00    +0.000 NA
ATOM     29  C   UNL     1       1.451   2.459  21.680  0.00  0.00    +0.000 C 
ATOM     30  C   UNL     1       0.618   2.315  19.431  0.00  0.00    +0.000 C 
ENDBRANCH  27  28
ENDBRANCH  26  27
ENDBRANCH  25  26
ENDBRANCH   9  25
TORSDOF 5
ENDMDL
MODEL 9
REMARK VINA RESULT:      -6.6      2.552      4.326
REMARK  Name = 
REMARK  8 active torsions:
REMARK  status: ('A' for Active; 'I' for Inactive)
REMARK    1  A    between atoms: C_1  and  C_2
REMARK    2  A    between atoms: N_9  and  C_10
REMARK    3  A    between atoms: C_10  and  C_11
REMARK    4  A    between atoms: C_11  and  C_12
REMARK    5  A    between atoms: C_12  and  N_13
REMARK    6  A    between atoms: N_13  and  C_14
REMARK    7  A    between atoms: N_13  and  C_15
REMARK    8  A    between atoms: C_16  and  C_18
REMARK                            x       y       z     vdW  Elec       q    Type
REMARK                         _______ _______ _______ _____ _____    ______ ____
ROOT
ATOM      1  C   UNL     1       3.868   2.666  17.422  0.00  0.00    +0.000 C 
ATOM      2  C   UNL     1       4.675   3.802  16.857  0.00  0.00    +0.000 A 
ATOM      3  C   UNL     1       5.808   3.550  16.055  0.00  0.00    +0.000 A 
ATOM      4  C   UNL     1       6.559   4.615  15.521  0.00  0.00    +0.000 A 
ATOM      5  C   UNL     1       6.187   5.946  15.773  0.00  0.00    +0.000 A 
ATOM      6  C   UNL     1       5.066   6.176  16.562  0.00  0.00    +0.000 A 
ATOM      7  S   UNL     1       4.374   7.635  17.022  0.00  0.00    +0.000 S 
ATOM      8  C   UNL     1       3.126   6.891  17.921  0.00  0.00    +0.000 A 
ATOM      9  N   UNL     1       2.056   7.560  18.662  0.00  0.00    +0.000 N 
ATOM     10  C   UNL     1       1.760   8.907  18.403  0.00  0.00    +0.000 C 
ATOM     11  O   UNL     1       2.382   9.484  17.520  0.00  0.00    +0.000 OA
ATOM     12  N   UNL     1       3.266   5.540  17.851  0.00  0.00    +0.000 NA
ATOM     13  C   UNL     1       4.323   5.142  17.101  0.00  0.00    +0.000 A 
ENDROOT
BRANCH  10  14
ATOM     14  C   UNL     1       0.608   9.732  18.999  0.00  0.00    +0.000 A 
ATOM     15  C   UNL     1       0.707  10.088  20.372  0.00  0.00    +0.000 A 
ATOM     16  C   UNL     1      -0.265  10.893  20.987  0.00  0.00    +0.000 A 
ATOM     17  C   UNL     1      -0.190  11.274  22.340  0.00  0.00    +0.000 A 
ATOM     18  C   UNL     1      -1.173  12.113  22.886  0.00  0.00    +0.000 A 
ATOM     19  C   UNL     1      -2.221  12.581  22.089  0.00  0.00    +0.000 A 
ATOM     20  C   UNL     1      -2.308  12.193  20.752  0.00  0.00    +0.000 A 
ATOM     21  C   UNL     1      -1.342  11.343  20.208  0.00  0.00    +0.000 A 
ATOM     22  O   UNL     1      -1.459  10.954  18.956  0.00  0.00    +0.000 OA
ATOM     23  C   UNL     1      -0.584  10.176  18.343  0.00  0.00    +0.000 A 
ATOM     24  O   UNL     1      -0.877   9.806  17.232  0.00  0.00    +0.000 OA
ENDBRANCH  10  14
BRANCH   9  25
ATOM     25  C   UNL     1       1.209   6.803  19.605  0.00  0.00    +0.000 C 
BRANCH  25  26
ATOM     26  C   UNL     1       1.806   6.271  20.921  0.00  0.00    +0.000 C 
BRANCH  26  27
ATOM     27  C   UNL     1       2.293   4.814  20.777  0.00  0.00    +0.000 C 
BRANCH  27  28
ATOM     28  N   UNL     1       1.195   3.818  20.822  0.00  0.00    +0.000 NA
ATOM     29  C   UNL     1       0.899   3.248  19.494  0.00  0.00    +0.000 C 
ATOM     30  C   UNL     1       1.561   2.730  21.744  0.00  0.00    +0.000 C 
ENDBRANCH  27  28
ENDBRANCH  26  27
ENDBRANCH  25  26
ENDBRANCH   9  25
TORSDOF 5
ENDMDL
