MODEL 1
REMARK VINA RESULT:      -7.6      0.000      0.000
REMARK  Name = 
REMARK  2 active torsions:
REMARK  status: ('A' for Active; 'I' for Inactive)
REMARK    1  A    between atoms: C_1  and  C_2
REMARK    2  A    between atoms: C_4  and  N_5
REMARK                            x       y       z     vdW  Elec       q    Type
REMARK                         _______ _______ _______ _____ _____    ______ ____
ROOT
ATOM      1  C   UNL     1       7.722   5.633  18.624  0.00  0.00    +0.000 C 
ATOM      2  C   UNL     1       6.562   4.931  17.976  0.00  0.00    +0.000 A 
ATOM      3  C   UNL     1       5.547   4.401  18.776  0.00  0.00    +0.000 A 
ATOM      4  C   UNL     1       4.472   3.699  18.216  0.00  0.00    +0.000 A 
ATOM      5  N   UNL     1       4.454   3.452  16.891  0.00  0.00    +0.000 NA
ATOM      6  C   UNL     1       5.416   3.962  16.101  0.00  0.00    +0.000 A 
ATOM      7  C   UNL     1       5.379   3.693  14.745  0.00  0.00    +0.000 A 
ATOM      8  C   UNL     1       6.324   4.206  13.853  0.00  0.00    +0.000 A 
ATOM      9  C   UNL     1       7.320   5.055  14.320  0.00  0.00    +0.000 A 
ATOM     10  C   UNL     1       7.391   5.329  15.682  0.00  0.00    +0.000 A 
ATOM     11  C   UNL     1       6.475   4.759  16.588  0.00  0.00    +0.000 A 
ENDROOT
BRANCH   4  12
ATOM     12  N   UNL     1       3.441   3.210  19.026  0.00  0.00    +0.000 N 
ATOM     13  C   UNL     1       2.438   2.355  18.399  0.00  0.00    +0.000 C 
ATOM     14  C   UNL     1       1.059   2.987  18.559  0.00  0.00    +0.000 C 
ATOM     15  C   UNL     1       0.465   2.851  19.958  0.00  0.00    +0.000 C 
ATOM     16  C   UNL     1       1.329   3.424  21.081  0.00  0.00    +0.000 C 
ATOM     17  C   UNL     1       2.595   2.603  21.319  0.00  0.00    +0.000 C 
ATOM     18  C   UNL     1       3.785   3.006  20.437  0.00  0.00    +0.000 C 
ENDBRANCH   4  12
TORSDOF 1
ENDMDL
MODEL 2
REMARK VINA RESULT:      -7.5      0.870      1.528
REMARK  Name = 
REMARK  2 active torsions:
REMARK  status: ('A' for Active; 'I' for Inactive)
REMARK    1  A    between atoms: C_1  and  C_2
REMARK    2  A    between atoms: C_4  and  N_5
REMARK                            x       y       z     vdW  Elec       q    Type
REMARK                         _______ _______ _______ _____ _____    ______ ____
ROOT
ATOM      1  C   UNL     1       7.610   5.637  18.514  0.00  0.00    +0.000 C 
ATOM      2  C   UNL     1       6.414   5.097  17.784  0.00  0.00    +0.000 A 
ATOM      3  C   UNL     1       5.264   4.764  18.505  0.00  0.00    +0.000 A 
ATOM      4  C   UNL     1       4.143   4.214  17.870  0.00  0.00    +0.000 A 
ATOM      5  N   UNL     1       4.197   3.918  16.556  0.00  0.00    +0.000 NA
ATOM      6  C   UNL     1       5.291   4.240  15.842  0.00  0.00    +0.000 A 
ATOM      7  C   UNL     1       5.326   3.924  14.496  0.00  0.00    +0.000 A 
ATOM      8  C   UNL     1       6.413   4.247  13.679  0.00  0.00    +0.000 A 
ATOM      9  C   UNL     1       7.487   4.951  14.209  0.00  0.00    +0.000 A 
ATOM     10  C   UNL     1       7.485   5.267  15.564  0.00  0.00    +0.000 A 
ATOM     11  C   UNL     1       6.418   4.884  16.400  0.00  0.00    +0.000 A 
ENDROOT
BRANCH   4  12
ATOM     12  N   UNL     1       2.982   3.924  18.597  0.00  0.00    +0.000 N 
ATOM     13  C   UNL     1       2.407   4.996  19.404  0.00  0.00    +0.000 C 
ATOM     14  C   UNL     1       2.361   4.562  20.867  0.00  0.00    +0.000 C 
ATOM     15  C   UNL     1       1.251   3.566  21.190  0.00  0.00    +0.000 C 
ATOM     16  C   UNL     1       1.279   2.281  20.365  0.00  0.00    +0.000 C 
ATOM     17  C   UNL     1       0.915   2.520  18.901  0.00  0.00    +0.000 C 
ATOM     18  C   UNL     1       2.102   2.910  18.009  0.00  0.00    +0.000 C 
ENDBRANCH   4  12
TORSDOF 1
ENDMDL
MODEL 3
REMARK VINA RESULT:      -7.0      4.228      5.070
REMARK  Name = 
REMARK  2 active torsions:
REMARK  status: ('A' for Active; 'I' for Inactive)
REMARK    1  A    between atoms: C_1  and  C_2
REMARK    2  A    between atoms: C_4  and  N_5
REMARK                            x       y       z     vdW  Elec       q    Type
REMARK                         _______ _______ _______ _____ _____    ______ ____
ROOT
ATOM      1  C   UNL     1       2.028   3.320  17.964  0.00  0.00    +0.000 C 
ATOM      2  C   UNL     1       2.677   4.672  17.871  0.00  0.00    +0.000 A 
ATOM      3  C   UNL     1       2.026   5.784  18.413  0.00  0.00    +0.000 A 
ATOM      4  C   UNL     1       2.574   7.069  18.307  0.00  0.00    +0.000 A 
ATOM      5  N   UNL     1       3.704   7.257  17.597  0.00  0.00    +0.000 NA
ATOM      6  C   UNL     1       4.352   6.199  17.076  0.00  0.00    +0.000 A 
ATOM      7  C   UNL     1       5.508   6.416  16.348  0.00  0.00    +0.000 A 
ATOM      8  C   UNL     1       6.253   5.371  15.797  0.00  0.00    +0.000 A 
ATOM      9  C   UNL     1       5.859   4.056  16.014  0.00  0.00    +0.000 A 
ATOM     10  C   UNL     1       4.691   3.810  16.728  0.00  0.00    +0.000 A 
ATOM     11  C   UNL     1       3.906   4.867  17.228  0.00  0.00    +0.000 A 
ENDROOT
BRANCH   4  12
ATOM     12  N   UNL     1       1.932   8.167  18.891  0.00  0.00    +0.000 N 
ATOM     13  C   UNL     1       1.957   8.266  20.347  0.00  0.00    +0.000 C 
ATOM     14  C   UNL     1       0.527   8.279  20.880  0.00  0.00    +0.000 C 
ATOM     15  C   UNL     1      -0.202   9.606  20.687  0.00  0.00    +0.000 C 
ATOM     16  C   UNL     1      -0.282  10.091  19.241  0.00  0.00    +0.000 C 
ATOM     17  C   UNL     1       1.078  10.527  18.696  0.00  0.00    +0.000 C 
ATOM     18  C   UNL     1       1.907   9.391  18.083  0.00  0.00    +0.000 C 
ENDBRANCH   4  12
TORSDOF 1
ENDMDL
MODEL 4
REMARK VINA RESULT:      -6.9      4.221      5.510
REMARK  Name = 
REMARK  2 active torsions:
REMARK  status: ('A' for Active; 'I' for Inactive)
REMARK    1  A    between atoms: C_1  and  C_2
REMARK    2  A    between atoms: C_4  and  N_5
REMARK                            x       y       z     vdW  Elec       q    Type
REMARK                         _______ _______ _______ _____ _____    ______ ____
ROOT
ATOM      1  C   UNL     1       5.165   5.820  16.383  0.00  0.00    +0.000 C 
ATOM      2  C   UNL     1       4.032   5.749  17.368  0.00  0.00    +0.000 A 
ATOM      3  C   UNL     1       3.457   6.933  17.837  0.00  0.00    +0.000 A 
ATOM      4  C   UNL     1       2.430   6.914  18.790  0.00  0.00    +0.000 A 
ATOM      5  N   UNL     1       2.045   5.742  19.333  0.00  0.00    +0.000 NA
ATOM      6  C   UNL     1       2.579   4.590  18.889  0.00  0.00    +0.000 A 
ATOM      7  C   UNL     1       2.171   3.400  19.462  0.00  0.00    +0.000 A 
ATOM      8  C   UNL     1       2.657   2.160  19.041  0.00  0.00    +0.000 A 
ATOM      9  C   UNL     1       3.549   2.096  17.977  0.00  0.00    +0.000 A 
ATOM     10  C   UNL     1       3.989   3.279  17.393  0.00  0.00    +0.000 A 
ATOM     11  C   UNL     1       3.548   4.532  17.862  0.00  0.00    +0.000 A 
ENDROOT
BRANCH   4  12
ATOM     12  N   UNL     1       1.834   8.105  19.219  0.00  0.00    +0.000 N 
ATOM     13  C   UNL     1       1.797   8.362  20.656  0.00  0.00    +0.000 C 
ATOM     14  C   UNL     1       0.348   8.517  21.107  0.00  0.00    +0.000 C 
ATOM     15  C   UNL     1      -0.284   9.856  20.736  0.00  0.00    +0.000 C 
ATOM     16  C   UNL     1      -0.265  10.184  19.244  0.00  0.00    +0.000 C 
ATOM     17  C   UNL     1       1.144  10.477  18.729  0.00  0.00    +0.000 C 
ATOM     18  C   UNL     1       1.926   9.233  18.286  0.00  0.00    +0.000 C 
ENDBRANCH   4  12
TORSDOF 1
ENDMDL
MODEL 5
REMARK VINA RESULT:      -6.9      4.883      6.286
REMARK  Name = 
REMARK  2 active torsions:
REMARK  status: ('A' for Active; 'I' for Inactive)
REMARK    1  A    between atoms: C_1  and  C_2
REMARK    2  A    between atoms: C_4  and  N_5
REMARK                            x       y       z     vdW  Elec       q    Type
REMARK                         _______ _______ _______ _____ _____    ______ ____
ROOT
ATOM      1  C   UNL     1       1.389   3.945  20.913  0.00  0.00    +0.000 C 
ATOM      2  C   UNL     1       1.829   5.253  20.320  0.00  0.00    +0.000 A 
ATOM      3  C   UNL     1       1.301   6.446  20.822  0.00  0.00    +0.000 A 
ATOM      4  C   UNL     1       1.649   7.684  20.268  0.00  0.00    +0.000 A 
ATOM      5  N   UNL     1       2.437   7.729  19.176  0.00  0.00    +0.000 NA
ATOM      6  C   UNL     1       2.965   6.595  18.683  0.00  0.00    +0.000 A 
ATOM      7  C   UNL     1       3.769   6.664  17.560  0.00  0.00    +0.000 A 
ATOM      8  C   UNL     1       4.375   5.537  17.001  0.00  0.00    +0.000 A 
ATOM      9  C   UNL     1       4.212   4.297  17.607  0.00  0.00    +0.000 A 
ATOM     10  C   UNL     1       3.395   4.195  18.728  0.00  0.00    +0.000 A 
ATOM     11  C   UNL     1       2.733   5.323  19.252  0.00  0.00    +0.000 A 
ENDROOT
BRANCH   4  12
ATOM     12  N   UNL     1       1.145   8.873  20.809  0.00  0.00    +0.000 N 
ATOM     13  C   UNL     1       1.367   9.115  22.231  0.00  0.00    +0.000 C 
ATOM     14  C   UNL     1       0.022   9.270  22.936  0.00  0.00    +0.000 C 
ATOM     15  C   UNL     1      -0.659  10.614  22.696  0.00  0.00    +0.000 C 
ATOM     16  C   UNL     1      -0.906  10.958  21.228  0.00  0.00    +0.000 C 
ATOM     17  C   UNL     1       0.389  11.251  20.473  0.00  0.00    +0.000 C 
ATOM     18  C   UNL     1       1.073  10.010  19.884  0.00  0.00    +0.000 C 
ENDBRANCH   4  12
TORSDOF 1
ENDMDL
MODEL 6
REMARK VINA RESULT:      -6.8      3.974      5.635
REMARK  Name = 
REMARK  2 active torsions:
REMARK  status: ('A' for Active; 'I' for Inactive)
REMARK    1  A    between atoms: C_1  and  C_2
REMARK    2  A    between atoms: C_4  and  N_5
REMARK                            x       y       z     vdW  Elec       q    Type
REMARK                         _______ _______ _______ _____ _____    ______ ____
ROOT
ATOM      1  C   UNL     1       1.882   3.303  21.849  0.00  0.00    +0.000 C 
ATOM      2  C   UNL     1       2.194   4.097  20.612  0.00  0.00    +0.000 A 
ATOM      3  C   UNL     1       1.874   5.457  20.573  0.00  0.00    +0.000 A 
ATOM      4  C   UNL     1       2.106   6.224  19.423  0.00  0.00    +0.000 A 
ATOM      5  N   UNL     1       2.563   5.629  18.304  0.00  0.00    +0.000 NA
ATOM      6  C   UNL     1       2.886   4.323  18.324  0.00  0.00    +0.000 A 
ATOM      7  C   UNL     1       3.351   3.732  17.163  0.00  0.00    +0.000 A 
ATOM      8  C   UNL     1       3.732   2.389  17.107  0.00  0.00    +0.000 A 
ATOM      9  C   UNL     1       3.693   1.614  18.259  0.00  0.00    +0.000 A 
ATOM     10  C   UNL     1       3.214   2.178  19.437  0.00  0.00    +0.000 A 
ATOM     11  C   UNL     1       2.769   3.515  19.476  0.00  0.00    +0.000 A 
ENDROOT
BRANCH   4  12
ATOM     12  N   UNL     1       1.820   7.594  19.412  0.00  0.00    +0.000 N 
ATOM     13  C   UNL     1       1.756   8.281  20.698  0.00  0.00    +0.000 C 
ATOM     14  C   UNL     1       0.373   8.901  20.875  0.00  0.00    +0.000 C 
ATOM     15  C   UNL     1       0.147  10.170  20.057  0.00  0.00    +0.000 C 
ATOM     16  C   UNL     1       0.353  10.010  18.552  0.00  0.00    +0.000 C 
ATOM     17  C   UNL     1       1.820   9.793  18.184  0.00  0.00    +0.000 C 
ATOM     18  C   UNL     1       2.271   8.326  18.223  0.00  0.00    +0.000 C 
ENDBRANCH   4  12
TORSDOF 1
ENDMDL
MODEL 7
REMARK VINA RESULT:      -6.8      4.487      6.138
REMARK  Name = 
REMARK  2 active torsions:
REMARK  status: ('A' for Active; 'I' for Inactive)
REMARK    1  A    between atoms: C_1  and  C_2
REMARK    2  A    between atoms: C_4  and  N_5
REMARK                            x       y       z     vdW  Elec       q    Type
REMARK                         _______ _______ _______ _____ _____    ______ ____
ROOT
ATOM      1  C   UNL     1       4.735   5.470  17.108  0.00  0.00    +0.000 C 
ATOM      2  C   UNL     1       3.727   5.662  18.206  0.00  0.00    +0.000 A 
ATOM      3  C   UNL     1       3.123   6.911  18.371  0.00  0.00    +0.000 A 
ATOM      4  C   UNL     1       2.213   7.146  19.410  0.00  0.00    +0.000 A 
ATOM      5  N   UNL     1       1.977   6.182  20.322  0.00  0.00    +0.000 NA
ATOM      6  C   UNL     1       2.540   4.970  20.176  0.00  0.00    +0.000 A 
ATOM      7  C   UNL     1       2.287   3.996  21.125  0.00  0.00    +0.000 A 
ATOM      8  C   UNL     1       2.812   2.705  21.033  0.00  0.00    +0.000 A 
ATOM      9  C   UNL     1       3.583   2.353  19.932  0.00  0.00    +0.000 A 
ATOM     10  C   UNL     1       3.868   3.317  18.971  0.00  0.00    +0.000 A 
ATOM     11  C   UNL     1       3.391   4.636  19.098  0.00  0.00    +0.000 A 
ENDROOT
BRANCH   4  12
ATOM     12  N   UNL     1       1.583   8.390  19.538  0.00  0.00    +0.000 N 
ATOM     13  C   UNL     1       1.400   8.918  20.886  0.00  0.00    +0.000 C 
ATOM     14  C   UNL     1      -0.087   9.137  21.149  0.00  0.00    +0.000 C 
ATOM     15  C   UNL     1      -0.669  10.370  20.463  0.00  0.00    +0.000 C 
ATOM     16  C   UNL     1      -0.495  10.404  18.946  0.00  0.00    +0.000 C 
ATOM     17  C   UNL     1       0.961  10.612  18.531  0.00  0.00    +0.000 C 
ATOM     18  C   UNL     1       1.777   9.317  18.418  0.00  0.00    +0.000 C 
ENDBRANCH   4  12
TORSDOF 1
ENDMDL
MODEL 8
REMARK VINA RESULT:      -6.7      4.740      6.868
REMARK  Name = 
REMARK  2 active torsions:
REMARK  status: ('A' for Active; 'I' for Inactive)
REMARK    1  A    between atoms: C_1  and  C_2
REMARK    2  A    between atoms: C_4  and  N_5
REMARK                            x       y       z     vdW  Elec       q    Type
REMARK                         _______ _______ _______ _____ _____    ______ ____
ROOT
ATOM      1  C   UNL     1       1.941   9.758  17.803  0.00  0.00    +0.000 C 
ATOM      2  C   UNL     1       1.746   8.880  19.006  0.00  0.00    +0.000 A 
ATOM      3  C   UNL     1       2.228   7.568  18.983  0.00  0.00    +0.000 A 
ATOM      4  C   UNL     1       2.027   6.701  20.065  0.00  0.00    +0.000 A 
ATOM      5  N   UNL     1       1.282   7.104  21.113  0.00  0.00    +0.000 NA
ATOM      6  C   UNL     1       0.818   8.365  21.161  0.00  0.00    +0.000 A 
ATOM      7  C   UNL     1       0.053   8.756  22.245  0.00  0.00    +0.000 A 
ATOM      8  C   UNL     1      -0.445  10.054  22.382  0.00  0.00    +0.000 A 
ATOM      9  C   UNL     1      -0.134  11.014  21.427  0.00  0.00    +0.000 A 
ATOM     10  C   UNL     1       0.619  10.645  20.318  0.00  0.00    +0.000 A 
ATOM     11  C   UNL     1       1.066   9.319  20.149  0.00  0.00    +0.000 A 
ENDROOT
BRANCH   4  12
ATOM     12  N   UNL     1       2.551   5.404  20.045  0.00  0.00    +0.000 N 
ATOM     13  C   UNL     1       3.863   5.216  19.433  0.00  0.00    +0.000 C 
ATOM     14  C   UNL     1       3.747   4.229  18.275  0.00  0.00    +0.000 C 
ATOM     15  C   UNL     1       3.612   2.771  18.706  0.00  0.00    +0.000 C 
ATOM     16  C   UNL     1       2.433   2.481  19.633  0.00  0.00    +0.000 C 
ATOM     17  C   UNL     1       2.622   3.085  21.023  0.00  0.00    +0.000 C 
ATOM     18  C   UNL     1       2.139   4.536  21.153  0.00  0.00    +0.000 C 
ENDBRANCH   4  12
TORSDOF 1
ENDMDL
MODEL 9
REMARK VINA RESULT:      -6.7      5.020      6.726
REMARK  Name = 
REMARK  2 active torsions:
REMARK  status: ('A' for Active; 'I' for Inactive)
REMARK    1  A    between atoms: C_1  and  C_2
REMARK    2  A    between atoms: C_4  and  N_5
REMARK                            x       y       z     vdW  Elec       q    Type
REMARK                         _______ _______ _______ _____ _____    ______ ____
ROOT
ATOM      1  C   UNL     1       3.717   6.826  17.274  0.00  0.00    +0.000 C 
ATOM      2  C   UNL     1       2.841   6.710  18.490  0.00  0.00    +0.000 A 
ATOM      3  C   UNL     1       2.373   7.872  19.110  0.00  0.00    +0.000 A 
ATOM      4  C   UNL     1       1.592   7.810  20.272  0.00  0.00    +0.000 A 
ATOM      5  N   UNL     1       1.357   6.618  20.856  0.00  0.00    +0.000 NA
ATOM      6  C   UNL     1       1.790   5.488  20.270  0.00  0.00    +0.000 A 
ATOM      7  C   UNL     1       1.541   4.276  20.888  0.00  0.00    +0.000 A 
ATOM      8  C   UNL     1       1.933   3.056  20.333  0.00  0.00    +0.000 A 
ATOM      9  C   UNL     1       2.559   3.035  19.092  0.00  0.00    +0.000 A 
ATOM     10  C   UNL     1       2.838   4.240  18.455  0.00  0.00    +0.000 A 
ATOM     11  C   UNL     1       2.499   5.472  19.048  0.00  0.00    +0.000 A 
ENDROOT
BRANCH   4  12
ATOM     12  N   UNL     1       1.095   8.979  20.859  0.00  0.00    +0.000 N 
ATOM     13  C   UNL     1       1.329   9.170  22.287  0.00  0.00    +0.000 C 
ATOM     14  C   UNL     1      -0.009   9.301  23.008  0.00  0.00    +0.000 C 
ATOM     15  C   UNL     1      -0.691  10.654  22.823  0.00  0.00    +0.000 C 
ATOM     16  C   UNL     1      -0.949  11.050  21.370  0.00  0.00    +0.000 C 
ATOM     17  C   UNL     1       0.340  11.369  20.615  0.00  0.00    +0.000 C 
ATOM     18  C   UNL     1       1.017  10.148  19.976  0.00  0.00    +0.000 C 
ENDBRANCH   4  12
TORSDOF 1
ENDMDL
