MODEL 1
REMARK VINA RESULT:      -7.3      0.000      0.000
REMARK  Name = 
REMARK  5 active torsions:
REMARK  status: ('A' for Active; 'I' for Inactive)
REMARK    1  A    between atoms: C_2  and  C_14
REMARK    2  A    between atoms: N_3  and  N_4
REMARK    3  A    between atoms: C_5  and  C_6
REMARK    4  A    between atoms: C_10  and  O_11
REMARK    5  A    between atoms: C_12  and  O_13
REMARK                            x       y       z     vdW  Elec       q    Type
REMARK                         _______ _______ _______ _____ _____    ______ ____
ROOT
ATOM      1  N   UNL     1       3.207   7.091  17.929  0.00  0.00    +0.000 NA
ATOM      2  C   UNL     1       4.259   6.473  18.367  0.00  0.00    +0.000 C 
ENDROOT
BRANCH   2   3
ATOM      3  C   UNL     1       5.226   5.835  17.448  0.00  0.00    +0.000 A 
ATOM      4  C   UNL     1       5.009   5.834  16.063  0.00  0.00    +0.000 A 
ATOM      5  C   UNL     1       5.925   5.211  15.206  0.00  0.00    +0.000 A 
ATOM      6  C   UNL     1       7.058   4.579  15.723  0.00  0.00    +0.000 A 
ATOM      7  C   UNL     1       7.263   4.579  17.099  0.00  0.00    +0.000 A 
ATOM      8  C   UNL     1       6.359   5.207  17.959  0.00  0.00    +0.000 A 
BRANCH   7   9
ATOM      9  O   UNL     1       8.345   3.959  17.664  0.00  0.00    +0.000 OA
ATOM     10  H   UNL     1       9.143   4.244  17.187  0.00  0.00    +0.000 HD
ENDBRANCH   7   9
BRANCH   8  11
ATOM     11  O   UNL     1       6.610   5.172  19.305  0.00  0.00    +0.000 OA
ATOM     12  H   UNL     1       6.638   6.113  19.575  0.00  0.00    +0.000 HD
ENDBRANCH   8  11
ENDBRANCH   2   3
BRANCH   1  15
ATOM     13  O   UNL     1       1.949   9.543  17.647  0.00  0.00    +0.000 OA
ATOM     14  C   UNL     1       1.802   8.861  18.660  0.00  0.00    +0.000 C 
ATOM     15  N   UNL     1       2.381   7.621  18.881  0.00  0.00    +0.000 N 
ATOM     16  H   UNL     1       2.127   7.053  19.682  0.00  0.00    +0.000 HD
BRANCH  14  17
ATOM     17  C   UNL     1       0.924   9.388  19.742  0.00  0.00    +0.000 A 
ATOM     18  C   UNL     1       0.147  10.527  19.476  0.00  0.00    +0.000 A 
ATOM     19  C   UNL     1      -0.622  11.112  20.485  0.00  0.00    +0.000 A 
ATOM     20  C   UNL     1      -0.608  10.565  21.766  0.00  0.00    +0.000 A 
ATOM     21 CL   UNL     1      -1.517  11.308  23.024  0.00  0.00    +0.000 Cl
ATOM     22  C   UNL     1       0.156   9.430  22.042  0.00  0.00    +0.000 A 
ATOM     23  C   UNL     1       0.923   8.838  21.031  0.00  0.00    +0.000 A 
ENDBRANCH  14  17
ENDBRANCH   1  15
TORSDOF 5
ENDMDL
MODEL 2
REMARK VINA RESULT:      -7.2      5.041      5.720
REMARK  Name = 
REMARK  5 active torsions:
REMARK  status: ('A' for Active; 'I' for Inactive)
REMARK    1  A    between atoms: C_2  and  C_14
REMARK    2  A    between atoms: N_3  and  N_4
REMARK    3  A    between atoms: C_5  and  C_6
REMARK    4  A    between atoms: C_10  and  O_11
REMARK    5  A    between atoms: C_12  and  O_13
REMARK                            x       y       z     vdW  Elec       q    Type
REMARK                         _______ _______ _______ _____ _____    ______ ____
ROOT
ATOM      1  N   UNL     1       4.799   4.863  16.256  0.00  0.00    +0.000 NA
ATOM      2  C   UNL     1       5.530   3.944  15.707  0.00  0.00    +0.000 C 
ENDROOT
BRANCH   2   3
ATOM      3  C   UNL     1       6.176   4.145  14.392  0.00  0.00    +0.000 A 
ATOM      4  C   UNL     1       5.751   3.427  13.265  0.00  0.00    +0.000 A 
ATOM      5  C   UNL     1       6.382   3.615  12.030  0.00  0.00    +0.000 A 
ATOM      6  C   UNL     1       7.446   4.512  11.910  0.00  0.00    +0.000 A 
ATOM      7  C   UNL     1       7.867   5.216  13.034  0.00  0.00    +0.000 A 
ATOM      8  C   UNL     1       7.235   5.041  14.267  0.00  0.00    +0.000 A 
BRANCH   7   9
ATOM      9  O   UNL     1       8.916   6.093  12.982  0.00  0.00    +0.000 OA
ATOM     10  H   UNL     1       9.365   5.980  12.126  0.00  0.00    +0.000 HD
ENDBRANCH   7   9
BRANCH   8  11
ATOM     11  O   UNL     1       7.693   5.758  15.341  0.00  0.00    +0.000 OA
ATOM     12  H   UNL     1       7.911   6.640  14.973  0.00  0.00    +0.000 HD
ENDBRANCH   8  11
ENDBRANCH   2   3
BRANCH   1  15
ATOM     13  O   UNL     1       2.466   3.391  16.506  0.00  0.00    +0.000 OA
ATOM     14  C   UNL     1       3.065   3.814  17.494  0.00  0.00    +0.000 C 
ATOM     15  N   UNL     1       4.241   4.547  17.463  0.00  0.00    +0.000 N 
ATOM     16  H   UNL     1       4.751   4.765  18.312  0.00  0.00    +0.000 HD
BRANCH  14  17
ATOM     17  C   UNL     1       2.502   3.515  18.839  0.00  0.00    +0.000 A 
ATOM     18  C   UNL     1       3.348   2.951  19.807  0.00  0.00    +0.000 A 
ATOM     19  C   UNL     1       2.845   2.568  21.053  0.00  0.00    +0.000 A 
ATOM     20  C   UNL     1       1.490   2.739  21.331  0.00  0.00    +0.000 A 
ATOM     21 CL   UNL     1       0.856   2.227  22.846  0.00  0.00    +0.000 Cl
ATOM     22  C   UNL     1       0.639   3.303  20.379  0.00  0.00    +0.000 A 
ATOM     23  C   UNL     1       1.143   3.693  19.131  0.00  0.00    +0.000 A 
ENDBRANCH  14  17
ENDBRANCH   1  15
TORSDOF 5
ENDMDL
MODEL 3
REMARK VINA RESULT:      -7.2      2.721      3.459
REMARK  Name = 
REMARK  5 active torsions:
REMARK  status: ('A' for Active; 'I' for Inactive)
REMARK    1  A    between atoms: C_2  and  C_14
REMARK    2  A    between atoms: N_3  and  N_4
REMARK    3  A    between atoms: C_5  and  C_6
REMARK    4  A    between atoms: C_10  and  O_11
REMARK    5  A    between atoms: C_12  and  O_13
REMARK                            x       y       z     vdW  Elec       q    Type
REMARK                         _______ _______ _______ _____ _____    ______ ____
ROOT
ATOM      1  N   UNL     1       2.000   6.820  20.390  0.00  0.00    +0.000 NA
ATOM      2  C   UNL     1       1.597   5.621  20.673  0.00  0.00    +0.000 C 
ENDROOT
BRANCH   2   3
ATOM      3  C   UNL     1       2.157   4.431  19.996  0.00  0.00    +0.000 A 
ATOM      4  C   UNL     1       1.338   3.345  19.659  0.00  0.00    +0.000 A 
ATOM      5  C   UNL     1       1.884   2.217  19.033  0.00  0.00    +0.000 A 
ATOM      6  C   UNL     1       3.250   2.162  18.745  0.00  0.00    +0.000 A 
ATOM      7  C   UNL     1       4.057   3.242  19.088  0.00  0.00    +0.000 A 
ATOM      8  C   UNL     1       3.517   4.373  19.704  0.00  0.00    +0.000 A 
BRANCH   7   9
ATOM      9  O   UNL     1       5.405   3.236  18.850  0.00  0.00    +0.000 OA
ATOM     10  H   UNL     1       5.840   2.754  19.575  0.00  0.00    +0.000 HD
ENDBRANCH   7   9
BRANCH   8  11
ATOM     11  O   UNL     1       4.360   5.405  20.023  0.00  0.00    +0.000 OA
ATOM     12  H   UNL     1       3.780   6.079  20.434  0.00  0.00    +0.000 HD
ENDBRANCH   8  11
ENDBRANCH   2   3
BRANCH   1  15
ATOM     13  O   UNL     1       1.217   9.191  19.191  0.00  0.00    +0.000 OA
ATOM     14  C   UNL     1       1.041   8.993  20.392  0.00  0.00    +0.000 C 
ATOM     15  N   UNL     1       1.389   7.836  21.072  0.00  0.00    +0.000 N 
ATOM     16  H   UNL     1       1.111   7.684  22.035  0.00  0.00    +0.000 HD
BRANCH  14  17
ATOM     17  C   UNL     1       0.392  10.067  21.194  0.00  0.00    +0.000 A 
ATOM     18  C   UNL     1      -0.292   9.704  22.366  0.00  0.00    +0.000 A 
ATOM     19  C   UNL     1      -0.993  10.661  23.102  0.00  0.00    +0.000 A 
ATOM     20  C   UNL     1      -1.022  11.983  22.663  0.00  0.00    +0.000 A 
ATOM     21 CL   UNL     1      -1.922  13.158  23.542  0.00  0.00    +0.000 Cl
ATOM     22  C   UNL     1      -0.343  12.357  21.503  0.00  0.00    +0.000 A 
ATOM     23  C   UNL     1       0.367  11.401  20.766  0.00  0.00    +0.000 A 
ENDBRANCH  14  17
ENDBRANCH   1  15
TORSDOF 5
ENDMDL
MODEL 4
REMARK VINA RESULT:      -7.2      5.949      7.938
REMARK  Name = 
REMARK  5 active torsions:
REMARK  status: ('A' for Active; 'I' for Inactive)
REMARK    1  A    between atoms: C_2  and  C_14
REMARK    2  A    between atoms: N_3  and  N_4
REMARK    3  A    between atoms: C_5  and  C_6
REMARK    4  A    between atoms: C_10  and  O_11
REMARK    5  A    between atoms: C_12  and  O_13
REMARK                            x       y       z     vdW  Elec       q    Type
REMARK                         _______ _______ _______ _____ _____    ______ ____
ROOT
ATOM      1  N   UNL     1       8.336   8.888  17.355  0.00  0.00    +0.000 NA
ATOM      2  C   UNL     1       8.060   9.925  18.081  0.00  0.00    +0.000 C 
ENDROOT
BRANCH   2   3
ATOM      3  C   UNL     1       9.044  11.007  18.300  0.00  0.00    +0.000 A 
ATOM      4  C   UNL     1      10.177  10.797  19.098  0.00  0.00    +0.000 A 
ATOM      5  C   UNL     1      11.092  11.836  19.310  0.00  0.00    +0.000 A 
ATOM      6  C   UNL     1      10.881  13.092  18.736  0.00  0.00    +0.000 A 
ATOM      7  C   UNL     1       9.751  13.293  17.950  0.00  0.00    +0.000 A 
ATOM      8  C   UNL     1       8.839  12.259  17.726  0.00  0.00    +0.000 A 
BRANCH   7   9
ATOM      9  O   UNL     1       9.481  14.507  17.377  0.00  0.00    +0.000 OA
ATOM     10  H   UNL     1      10.193  14.712  16.747  0.00  0.00    +0.000 HD
ENDBRANCH   7   9
BRANCH   8  11
ATOM     11  O   UNL     1       7.742  12.516  16.946  0.00  0.00    +0.000 OA
ATOM     12  H   UNL     1       7.066  12.846  17.574  0.00  0.00    +0.000 HD
ENDBRANCH   8  11
ENDBRANCH   2   3
BRANCH   1  15
ATOM     13  O   UNL     1       8.253   6.593  18.905  0.00  0.00    +0.000 OA
ATOM     14  C   UNL     1       7.392   6.824  18.057  0.00  0.00    +0.000 C 
ATOM     15  N   UNL     1       7.348   7.948  17.247  0.00  0.00    +0.000 N 
ATOM     16  H   UNL     1       6.550   8.141  16.652  0.00  0.00    +0.000 HD
BRANCH  14  17
ATOM     17  C   UNL     1       6.294   5.833  17.881  0.00  0.00    +0.000 A 
ATOM     18  C   UNL     1       5.802   5.605  16.586  0.00  0.00    +0.000 A 
ATOM     19  C   UNL     1       4.714   4.754  16.381  0.00  0.00    +0.000 A 
ATOM     20  C   UNL     1       4.107   4.137  17.473  0.00  0.00    +0.000 A 
ATOM     21 CL   UNL     1       2.737   3.124  17.231  0.00  0.00    +0.000 Cl
ATOM     22  C   UNL     1       4.589   4.352  18.764  0.00  0.00    +0.000 A 
ATOM     23  C   UNL     1       5.685   5.200  18.972  0.00  0.00    +0.000 A 
ENDBRANCH  14  17
ENDBRANCH   1  15
TORSDOF 5
ENDMDL
MODEL 5
REMARK VINA RESULT:      -7.2      5.965      7.985
REMARK  Name = 
REMARK  5 active torsions:
REMARK  status: ('A' for Active; 'I' for Inactive)
REMARK    1  A    between atoms: C_2  and  C_14
REMARK    2  A    between atoms: N_3  and  N_4
REMARK    3  A    between atoms: C_5  and  C_6
REMARK    4  A    between atoms: C_10  and  O_11
REMARK    5  A    between atoms: C_12  and  O_13
REMARK                            x       y       z     vdW  Elec       q    Type
REMARK                         _______ _______ _______ _____ _____    ______ ____
ROOT
ATOM      1  N   UNL     1       8.313   8.735  17.697  0.00  0.00    +0.000 NA
ATOM      2  C   UNL     1       7.995   9.960  17.972  0.00  0.00    +0.000 C 
ENDROOT
BRANCH   2   3
ATOM      3  C   UNL     1       9.022  10.991  18.235  0.00  0.00    +0.000 A 
ATOM      4  C   UNL     1      10.139  10.706  19.033  0.00  0.00    +0.000 A 
ATOM      5  C   UNL     1      11.096  11.697  19.287  0.00  0.00    +0.000 A 
ATOM      6  C   UNL     1      10.943  12.979  18.755  0.00  0.00    +0.000 A 
ATOM      7  C   UNL     1       9.829  13.256  17.969  0.00  0.00    +0.000 A 
ATOM      8  C   UNL     1       8.876  12.270  17.703  0.00  0.00    +0.000 A 
BRANCH   7   9
ATOM      9  O   UNL     1       9.615  14.499  17.437  0.00  0.00    +0.000 OA
ATOM     10  H   UNL     1       9.731  14.442  16.472  0.00  0.00    +0.000 HD
ENDBRANCH   7   9
BRANCH   8  11
ATOM     11  O   UNL     1       7.797  12.600  16.926  0.00  0.00    +0.000 OA
ATOM     12  H   UNL     1       7.548  11.763  16.482  0.00  0.00    +0.000 HD
ENDBRANCH   8  11
ENDBRANCH   2   3
BRANCH   1  15
ATOM     13  O   UNL     1       8.113   6.275  18.956  0.00  0.00    +0.000 OA
ATOM     14  C   UNL     1       7.257   6.658  18.159  0.00  0.00    +0.000 C 
ATOM     15  N   UNL     1       7.270   7.874  17.494  0.00  0.00    +0.000 N 
ATOM     16  H   UNL     1       6.477   8.184  16.943  0.00  0.00    +0.000 HD
BRANCH  14  17
ATOM     17  C   UNL     1       6.101   5.760  17.885  0.00  0.00    +0.000 A 
ATOM     18  C   UNL     1       5.337   5.305  18.971  0.00  0.00    +0.000 A 
ATOM     19  C   UNL     1       4.299   4.390  18.774  0.00  0.00    +0.000 A 
ATOM     20  C   UNL     1       4.030   3.920  17.490  0.00  0.00    +0.000 A 
ATOM     21 CL   UNL     1       2.784   2.759  17.248  0.00  0.00    +0.000 Cl
ATOM     22  C   UNL     1       4.780   4.369  16.402  0.00  0.00    +0.000 A 
ATOM     23  C   UNL     1       5.817   5.291  16.596  0.00  0.00    +0.000 A 
ENDBRANCH  14  17
ENDBRANCH   1  15
TORSDOF 5
ENDMDL
MODEL 6
REMARK VINA RESULT:      -7.1      3.776      8.334
REMARK  Name = 
REMARK  5 active torsions:
REMARK  status: ('A' for Active; 'I' for Inactive)
REMARK    1  A    between atoms: C_2  and  C_14
REMARK    2  A    between atoms: N_3  and  N_4
REMARK    3  A    between atoms: C_5  and  C_6
REMARK    4  A    between atoms: C_10  and  O_11
REMARK    5  A    between atoms: C_12  and  O_13
REMARK                            x       y       z     vdW  Elec       q    Type
REMARK                         _______ _______ _______ _____ _____    ______ ____
ROOT
ATOM      1  N   UNL     1       1.903   7.712  19.343  0.00  0.00    +0.000 NA
ATOM      2  C   UNL     1       1.595   8.965  19.226  0.00  0.00    +0.000 C 
ENDROOT
BRANCH   2   3
ATOM      3  C   UNL     1       0.757   9.659  20.229  0.00  0.00    +0.000 A 
ATOM      4  C   UNL     1      -0.174  10.632  19.839  0.00  0.00    +0.000 A 
ATOM      5  C   UNL     1      -0.949  11.292  20.800  0.00  0.00    +0.000 A 
ATOM      6  C   UNL     1      -0.796  10.993  22.157  0.00  0.00    +0.000 A 
ATOM      7  C   UNL     1       0.134  10.031  22.536  0.00  0.00    +0.000 A 
ATOM      8  C   UNL     1       0.903   9.362  21.582  0.00  0.00    +0.000 A 
BRANCH   7   9
ATOM      9  O   UNL     1       0.341   9.711  23.851  0.00  0.00    +0.000 OA
ATOM     10  H   UNL     1       0.030  10.453  24.398  0.00  0.00    +0.000 HD
ENDBRANCH   7   9
BRANCH   8  11
ATOM     11  O   UNL     1       1.806   8.426  22.013  0.00  0.00    +0.000 OA
ATOM     12  H   UNL     1       1.288   7.598  22.085  0.00  0.00    +0.000 HD
ENDBRANCH   8  11
ENDBRANCH   2   3
BRANCH   1  15
ATOM     13  O   UNL     1       3.610   5.561  19.709  0.00  0.00    +0.000 OA
ATOM     14  C   UNL     1       3.501   6.113  18.615  0.00  0.00    +0.000 C 
ATOM     15  N   UNL     1       2.666   7.184  18.339  0.00  0.00    +0.000 N 
ATOM     16  H   UNL     1       2.530   7.519  17.391  0.00  0.00    +0.000 HD
BRANCH  14  17
ATOM     17  C   UNL     1       4.315   5.594  17.481  0.00  0.00    +0.000 A 
ATOM     18  C   UNL     1       4.750   6.500  16.501  0.00  0.00    +0.000 A 
ATOM     19  C   UNL     1       5.438   6.048  15.373  0.00  0.00    +0.000 A 
ATOM     20  C   UNL     1       5.684   4.686  15.216  0.00  0.00    +0.000 A 
ATOM     21 CL   UNL     1       6.490   4.118  13.806  0.00  0.00    +0.000 Cl
ATOM     22  C   UNL     1       5.261   3.775  16.185  0.00  0.00    +0.000 A 
ATOM     23  C   UNL     1       4.577   4.226  17.322  0.00  0.00    +0.000 A 
ENDBRANCH  14  17
ENDBRANCH   1  15
TORSDOF 5
ENDMDL
MODEL 7
REMARK VINA RESULT:      -7.1      0.202      1.101
REMARK  Name = 
REMARK  5 active torsions:
REMARK  status: ('A' for Active; 'I' for Inactive)
REMARK    1  A    between atoms: C_2  and  C_14
REMARK    2  A    between atoms: N_3  and  N_4
REMARK    3  A    between atoms: C_5  and  C_6
REMARK    4  A    between atoms: C_10  and  O_11
REMARK    5  A    between atoms: C_12  and  O_13
REMARK                            x       y       z     vdW  Elec       q    Type
REMARK                         _______ _______ _______ _____ _____    ______ ____
ROOT
ATOM      1  N   UNL     1       3.088   6.747  18.069  0.00  0.00    +0.000 NA
ATOM      2  C   UNL     1       4.371   6.757  18.246  0.00  0.00    +0.000 C 
ENDROOT
BRANCH   2   3
ATOM      3  C   UNL     1       5.287   6.016  17.352  0.00  0.00    +0.000 A 
ATOM      4  C   UNL     1       5.053   5.961  15.970  0.00  0.00    +0.000 A 
ATOM      5  C   UNL     1       5.919   5.242  15.137  0.00  0.00    +0.000 A 
ATOM      6  C   UNL     1       7.019   4.568  15.674  0.00  0.00    +0.000 A 
ATOM      7  C   UNL     1       7.241   4.624  17.047  0.00  0.00    +0.000 A 
ATOM      8  C   UNL     1       6.386   5.346  17.882  0.00  0.00    +0.000 A 
BRANCH   7   9
ATOM      9  O   UNL     1       8.290   3.967  17.632  0.00  0.00    +0.000 OA
ATOM     10  H   UNL     1       8.022   3.045  17.789  0.00  0.00    +0.000 HD
ENDBRANCH   7   9
BRANCH   8  11
ATOM     11  O   UNL     1       6.652   5.363  19.226  0.00  0.00    +0.000 OA
ATOM     12  H   UNL     1       7.594   5.622  19.288  0.00  0.00    +0.000 HD
ENDBRANCH   8  11
ENDBRANCH   2   3
BRANCH   1  15
ATOM     13  O   UNL     1       1.991   9.231  17.521  0.00  0.00    +0.000 OA
ATOM     14  C   UNL     1       1.848   8.697  18.620  0.00  0.00    +0.000 C 
ATOM     15  N   UNL     1       2.350   7.455  18.977  0.00  0.00    +0.000 N 
ATOM     16  H   UNL     1       2.098   7.015  19.855  0.00  0.00    +0.000 HD
BRANCH  14  17
ATOM     17  C   UNL     1       1.065   9.422  19.659  0.00  0.00    +0.000 A 
ATOM     18  C   UNL     1       1.064   8.916  20.968  0.00  0.00    +0.000 A 
ATOM     19  C   UNL     1       0.272   9.508  21.956  0.00  0.00    +0.000 A 
ATOM     20  C   UNL     1      -0.528  10.602  21.634  0.00  0.00    +0.000 A 
ATOM     21 CL   UNL     1      -1.540  11.306  22.835  0.00  0.00    +0.000 Cl
ATOM     22  C   UNL     1      -0.532  11.117  20.336  0.00  0.00    +0.000 A 
ATOM     23  C   UNL     1       0.265  10.529  19.345  0.00  0.00    +0.000 A 
ENDBRANCH  14  17
ENDBRANCH   1  15
TORSDOF 5
ENDMDL
MODEL 8
REMARK VINA RESULT:      -7.0      4.672      5.742
REMARK  Name = 
REMARK  5 active torsions:
REMARK  status: ('A' for Active; 'I' for Inactive)
REMARK    1  A    between atoms: C_2  and  C_14
REMARK    2  A    between atoms: N_3  and  N_4
REMARK    3  A    between atoms: C_5  and  C_6
REMARK    4  A    between atoms: C_10  and  O_11
REMARK    5  A    between atoms: C_12  and  O_13
REMARK                            x       y       z     vdW  Elec       q    Type
REMARK                         _______ _______ _______ _____ _____    ______ ____
ROOT
ATOM      1  N   UNL     1       4.867   4.921  16.213  0.00  0.00    +0.000 NA
ATOM      2  C   UNL     1       5.184   3.960  15.404  0.00  0.00    +0.000 C 
ENDROOT
BRANCH   2   3
ATOM      3  C   UNL     1       6.022   4.193  14.208  0.00  0.00    +0.000 A 
ATOM      4  C   UNL     1       5.741   3.547  12.996  0.00  0.00    +0.000 A 
ATOM      5  C   UNL     1       6.553   3.763  11.876  0.00  0.00    +0.000 A 
ATOM      6  C   UNL     1       7.655   4.618  11.958  0.00  0.00    +0.000 A 
ATOM      7  C   UNL     1       7.931   5.251  13.166  0.00  0.00    +0.000 A 
ATOM      8  C   UNL     1       7.119   5.047  14.284  0.00  0.00    +0.000 A 
BRANCH   7   9
ATOM      9  O   UNL     1       9.008   6.084  13.312  0.00  0.00    +0.000 OA
ATOM     10  H   UNL     1       8.730   6.851  13.842  0.00  0.00    +0.000 HD
ENDBRANCH   7   9
BRANCH   8  11
ATOM     11  O   UNL     1       7.441   5.694  15.448  0.00  0.00    +0.000 OA
ATOM     12  H   UNL     1       7.342   6.645  15.237  0.00  0.00    +0.000 HD
ENDBRANCH   8  11
ENDBRANCH   2   3
BRANCH   1  15
ATOM     13  O   UNL     1       5.869   4.140  18.675  0.00  0.00    +0.000 OA
ATOM     14  C   UNL     1       4.658   4.190  18.463  0.00  0.00    +0.000 C 
ATOM     15  N   UNL     1       4.070   4.580  17.270  0.00  0.00    +0.000 N 
ATOM     16  H   UNL     1       3.068   4.717  17.193  0.00  0.00    +0.000 HD
BRANCH  14  17
ATOM     17  C   UNL     1       3.734   3.818  19.570  0.00  0.00    +0.000 A 
ATOM     18  C   UNL     1       3.999   2.645  20.295  0.00  0.00    +0.000 A 
ATOM     19  C   UNL     1       3.113   2.206  21.282  0.00  0.00    +0.000 A 
ATOM     20  C   UNL     1       1.953   2.933  21.539  0.00  0.00    +0.000 A 
ATOM     21 CL   UNL     1       0.835   2.373  22.721  0.00  0.00    +0.000 Cl
ATOM     22  C   UNL     1       1.680   4.103  20.828  0.00  0.00    +0.000 A 
ATOM     23  C   UNL     1       2.571   4.550  19.843  0.00  0.00    +0.000 A 
ENDBRANCH  14  17
ENDBRANCH   1  15
TORSDOF 5
ENDMDL
MODEL 9
REMARK VINA RESULT:      -7.0      4.647      5.474
REMARK  Name = 
REMARK  5 active torsions:
REMARK  status: ('A' for Active; 'I' for Inactive)
REMARK    1  A    between atoms: C_2  and  C_14
REMARK    2  A    between atoms: N_3  and  N_4
REMARK    3  A    between atoms: C_5  and  C_6
REMARK    4  A    between atoms: C_10  and  O_11
REMARK    5  A    between atoms: C_12  and  O_13
REMARK                            x       y       z     vdW  Elec       q    Type
REMARK                         _______ _______ _______ _____ _____    ______ ____
ROOT
ATOM      1  N   UNL     1       5.023   4.461  16.120  0.00  0.00    +0.000 NA
ATOM      2  C   UNL     1       5.452   3.596  15.256  0.00  0.00    +0.000 C 
ENDROOT
BRANCH   2   3
ATOM      3  C   UNL     1       6.211   4.006  14.055  0.00  0.00    +0.000 A 
ATOM      4  C   UNL     1       5.918   3.457  12.798  0.00  0.00    +0.000 A 
ATOM      5  C   UNL     1       6.655   3.842  11.671  0.00  0.00    +0.000 A 
ATOM      6  C   UNL     1       7.693   4.769  11.790  0.00  0.00    +0.000 A 
ATOM      7  C   UNL     1       7.981   5.305  13.041  0.00  0.00    +0.000 A 
ATOM      8  C   UNL     1       7.243   4.933  14.167  0.00  0.00    +0.000 A 
BRANCH   7   9
ATOM      9  O   UNL     1       8.999   6.202  13.222  0.00  0.00    +0.000 OA
ATOM     10  H   UNL     1       9.836   5.708  13.266  0.00  0.00    +0.000 HD
ENDBRANCH   7   9
BRANCH   8  11
ATOM     11  O   UNL     1       7.574   5.490  15.375  0.00  0.00    +0.000 OA
ATOM     12  H   UNL     1       8.554   5.494  15.384  0.00  0.00    +0.000 HD
ENDBRANCH   8  11
ENDBRANCH   2   3
BRANCH   1  15
ATOM     13  O   UNL     1       3.192   5.953  17.569  0.00  0.00    +0.000 OA
ATOM     14  C   UNL     1       3.429   4.779  17.852  0.00  0.00    +0.000 C 
ATOM     15  N   UNL     1       4.317   3.957  17.177  0.00  0.00    +0.000 N 
ATOM     16  H   UNL     1       4.380   2.965  17.381  0.00  0.00    +0.000 HD
BRANCH  14  17
ATOM     17  C   UNL     1       2.702   4.173  19.002  0.00  0.00    +0.000 A 
ATOM     18  C   UNL     1       2.828   4.775  20.264  0.00  0.00    +0.000 A 
ATOM     19  C   UNL     1       2.240   4.192  21.389  0.00  0.00    +0.000 A 
ATOM     20  C   UNL     1       1.533   2.999  21.257  0.00  0.00    +0.000 A 
ATOM     21 CL   UNL     1       0.845   2.252  22.647  0.00  0.00    +0.000 Cl
ATOM     22  C   UNL     1       1.396   2.393  20.007  0.00  0.00    +0.000 A 
ATOM     23  C   UNL     1       1.979   2.979  18.875  0.00  0.00    +0.000 A 
ENDBRANCH  14  17
ENDBRANCH   1  15
TORSDOF 5
ENDMDL
