MODEL 1
REMARK VINA RESULT:      -8.1      0.000      0.000
REMARK  Name = 
REMARK  7 active torsions:
REMARK  status: ('A' for Active; 'I' for Inactive)
REMARK    1  A    between atoms: C_1  and  O_2
REMARK    2  A    between atoms: O_2  and  C_3
REMARK    3  A    between atoms: C_6  and  C_7
REMARK    4  A    between atoms: C_7  and  N_8
REMARK    5  A    between atoms: C_9  and  C_11
REMARK    6  A    between atoms: C_11  and  N_12
REMARK    7  A    between atoms: C_14  and  C_15
REMARK                            x       y       z     vdW  Elec       q    Type
REMARK                         _______ _______ _______ _____ _____    ______ ____
ROOT
ATOM      1  N   UNL     1       3.103   3.825  18.794  0.00  0.00    +0.000 N 
ATOM      2  N   UNL     1       3.148   5.197  18.738  0.00  0.00    +0.000 NA
ATOM      3  C   UNL     1       2.375   5.866  19.532  0.00  0.00    +0.000 A 
ATOM      4  C   UNL     1       1.511   5.292  20.570  0.00  0.00    +0.000 A 
ATOM      5  C   UNL     1       1.379   3.966  20.522  0.00  0.00    +0.000 A 
ATOM      6  C   UNL     1       2.140   3.152  19.542  0.00  0.00    +0.000 A 
ATOM      7  O   UNL     1       1.872   1.955  19.438  0.00  0.00    +0.000 OA
ENDROOT
BRANCH   3   8
ATOM      8  C   UNL     1       2.147   7.277  19.195  0.00  0.00    +0.000 A 
ATOM      9  C   UNL     1       2.500   7.928  18.005  0.00  0.00    +0.000 A 
ATOM     10  C   UNL     1       2.169   9.284  17.870  0.00  0.00    +0.000 A 
ATOM     11  C   UNL     1       1.519   9.964  18.908  0.00  0.00    +0.000 A 
ATOM     12  C   UNL     1       1.263   9.314  20.108  0.00  0.00    +0.000 A 
ATOM     13  C   UNL     1       1.560   7.979  20.250  0.00  0.00    +0.000 A 
ATOM     14  O   UNL     1       0.713   9.921  21.196  0.00  0.00    +0.000 OA
ATOM     15  C   UNL     1      -0.248  10.859  20.738  0.00  0.00    +0.000 C 
ATOM     16  C   UNL     1       0.376  11.844  19.755  0.00  0.00    +0.000 C 
ATOM     17  O   UNL     1       1.127  11.254  18.680  0.00  0.00    +0.000 OA
ENDBRANCH   3   8
BRANCH   1  18
ATOM     18  C   UNL     1       3.727   3.105  17.682  0.00  0.00    +0.000 C 
BRANCH  18  20
ATOM     19  N   UNL     1       5.913   4.075  18.246  0.00  0.00    +0.000 N 
ATOM     20  C   UNL     1       5.099   3.611  17.231  0.00  0.00    +0.000 C 
ATOM     21  O   UNL     1       5.392   3.721  16.041  0.00  0.00    +0.000 OA
ATOM     22  H   UNL     1       5.725   3.662  19.158  0.00  0.00    +0.000 HD
BRANCH  19  23
ATOM     23  C   UNL     1       7.258   4.529  17.970  0.00  0.00    +0.000 C 
BRANCH  23  27
ATOM     24  C   UNL     1       7.836   8.831  17.903  0.00  0.00    +0.000 A 
ATOM     25  C   UNL     1       8.497   8.028  18.837  0.00  0.00    +0.000 A 
ATOM     26  C   UNL     1       8.296   6.648  18.862  0.00  0.00    +0.000 A 
ATOM     27  C   UNL     1       7.399   6.034  17.966  0.00  0.00    +0.000 A 
ATOM     28  C   UNL     1       6.751   6.845  17.027  0.00  0.00    +0.000 A 
ATOM     29  C   UNL     1       6.958   8.233  17.000  0.00  0.00    +0.000 A 
BRANCH  24  31
ATOM     30  C   UNL     1       9.428  10.514  18.378  0.00  0.00    +0.000 C 
ATOM     31  O   UNL     1       8.103  10.167  17.991  0.00  0.00    +0.000 OA
ENDBRANCH  24  31
ENDBRANCH  23  27
ENDBRANCH  19  23
ENDBRANCH  18  20
ENDBRANCH   1  18
TORSDOF 6
ENDMDL
MODEL 2
REMARK VINA RESULT:      -8.1      4.033      6.068
REMARK  Name = 
REMARK  7 active torsions:
REMARK  status: ('A' for Active; 'I' for Inactive)
REMARK    1  A    between atoms: C_1  and  O_2
REMARK    2  A    between atoms: O_2  and  C_3
REMARK    3  A    between atoms: C_6  and  C_7
REMARK    4  A    between atoms: C_7  and  N_8
REMARK    5  A    between atoms: C_9  and  C_11
REMARK    6  A    between atoms: C_11  and  N_12
REMARK    7  A    between atoms: C_14  and  C_15
REMARK                            x       y       z     vdW  Elec       q    Type
REMARK                         _______ _______ _______ _____ _____    ______ ____
ROOT
ATOM      1  N   UNL     1       6.883   5.907  16.534  0.00  0.00    +0.000 N 
ATOM      2  N   UNL     1       5.882   5.451  17.356  0.00  0.00    +0.000 NA
ATOM      3  C   UNL     1       5.330   4.314  17.074  0.00  0.00    +0.000 A 
ATOM      4  C   UNL     1       5.745   3.405  16.000  0.00  0.00    +0.000 A 
ATOM      5  C   UNL     1       6.621   3.918  15.137  0.00  0.00    +0.000 A 
ATOM      6  C   UNL     1       7.192   5.274  15.333  0.00  0.00    +0.000 A 
ATOM      7  O   UNL     1       7.879   5.758  14.434  0.00  0.00    +0.000 OA
ENDROOT
BRANCH   3   8
ATOM      8  C   UNL     1       4.033   4.037  17.705  0.00  0.00    +0.000 A 
ATOM      9  C   UNL     1       2.787   3.946  17.070  0.00  0.00    +0.000 A 
ATOM     10  C   UNL     1       1.665   3.647  17.854  0.00  0.00    +0.000 A 
ATOM     11  C   UNL     1       1.793   3.464  19.237  0.00  0.00    +0.000 A 
ATOM     12  C   UNL     1       3.025   3.649  19.849  0.00  0.00    +0.000 A 
ATOM     13  C   UNL     1       4.141   3.920  19.093  0.00  0.00    +0.000 A 
ATOM     14  O   UNL     1       3.222   3.574  21.195  0.00  0.00    +0.000 OA
ATOM     15  C   UNL     1       2.379   2.553  21.707  0.00  0.00    +0.000 C 
ATOM     16  C   UNL     1       0.924   2.804  21.328  0.00  0.00    +0.000 C 
ATOM     17  O   UNL     1       0.684   3.071  19.935  0.00  0.00    +0.000 OA
ENDBRANCH   3   8
BRANCH   1  18
ATOM     18  C   UNL     1       7.256   7.315  16.676  0.00  0.00    +0.000 C 
BRANCH  18  20
ATOM     19  N   UNL     1       8.404   9.011  18.036  0.00  0.00    +0.000 N 
ATOM     20  C   UNL     1       7.969   7.701  17.975  0.00  0.00    +0.000 C 
ATOM     21  O   UNL     1       8.251   6.866  18.834  0.00  0.00    +0.000 OA
ATOM     22  H   UNL     1       7.867   9.659  17.461  0.00  0.00    +0.000 HD
BRANCH  19  23
ATOM     23  C   UNL     1       9.040   9.527  19.227  0.00  0.00    +0.000 C 
BRANCH  23  27
ATOM     24  C   UNL     1      11.170  13.268  18.665  0.00  0.00    +0.000 A 
ATOM     25  C   UNL     1      11.050  12.688  19.932  0.00  0.00    +0.000 A 
ATOM     26  C   UNL     1      10.352  11.493  20.108  0.00  0.00    +0.000 A 
ATOM     27  C   UNL     1       9.726  10.857  19.018  0.00  0.00    +0.000 A 
ATOM     28  C   UNL     1       9.863  11.439  17.752  0.00  0.00    +0.000 A 
ATOM     29  C   UNL     1      10.569  12.639  17.576  0.00  0.00    +0.000 A 
BRANCH  24  31
ATOM     30  C   UNL     1      12.316  14.857  17.341  0.00  0.00    +0.000 C 
ATOM     31  O   UNL     1      11.861  14.445  18.626  0.00  0.00    +0.000 OA
ENDBRANCH  24  31
ENDBRANCH  23  27
ENDBRANCH  19  23
ENDBRANCH  18  20
ENDBRANCH   1  18
TORSDOF 6
ENDMDL
MODEL 3
REMARK VINA RESULT:      -8.0      3.971     10.076
REMARK  Name = 
REMARK  7 active torsions:
REMARK  status: ('A' for Active; 'I' for Inactive)
REMARK    1  A    between atoms: C_1  and  O_2
REMARK    2  A    between atoms: O_2  and  C_3
REMARK    3  A    between atoms: C_6  and  C_7
REMARK    4  A    between atoms: C_7  and  N_8
REMARK    5  A    between atoms: C_9  and  C_11
REMARK    6  A    between atoms: C_11  and  N_12
REMARK    7  A    between atoms: C_14  and  C_15
REMARK                            x       y       z     vdW  Elec       q    Type
REMARK                         _______ _______ _______ _____ _____    ______ ____
ROOT
ATOM      1  N   UNL     1       0.722   8.963  20.371  0.00  0.00    +0.000 N 
ATOM      2  N   UNL     1       1.628   7.985  20.041  0.00  0.00    +0.000 NA
ATOM      3  C   UNL     1       2.203   8.051  18.883  0.00  0.00    +0.000 A 
ATOM      4  C   UNL     1       2.052   9.142  17.913  0.00  0.00    +0.000 A 
ATOM      5  C   UNL     1       1.076  10.007  18.189  0.00  0.00    +0.000 A 
ATOM      6  C   UNL     1       0.288   9.906  19.442  0.00  0.00    +0.000 A 
ATOM      7  O   UNL     1      -0.694  10.634  19.579  0.00  0.00    +0.000 OA
ENDROOT
BRANCH   3   8
ATOM      8  C   UNL     1       2.846   6.823  18.396  0.00  0.00    +0.000 A 
ATOM      9  C   UNL     1       2.524   5.506  18.747  0.00  0.00    +0.000 A 
ATOM     10  C   UNL     1       3.247   4.465  18.146  0.00  0.00    +0.000 A 
ATOM     11  C   UNL     1       4.273   4.748  17.235  0.00  0.00    +0.000 A 
ATOM     12  C   UNL     1       4.626   6.064  16.975  0.00  0.00    +0.000 A 
ATOM     13  C   UNL     1       3.913   7.097  17.537  0.00  0.00    +0.000 A 
ATOM     14  O   UNL     1       5.663   6.427  16.169  0.00  0.00    +0.000 OA
ATOM     15  C   UNL     1       5.726   5.504  15.093  0.00  0.00    +0.000 C 
ATOM     16  C   UNL     1       5.839   4.072  15.606  0.00  0.00    +0.000 C 
ATOM     17  O   UNL     1       4.872   3.694  16.601  0.00  0.00    +0.000 OA
ENDBRANCH   3   8
BRANCH   1  18
ATOM     18  C   UNL     1      -0.143   8.693  21.521  0.00  0.00    +0.000 C 
BRANCH  18  20
ATOM     19  N   UNL     1      -1.247  10.737  22.325  0.00  0.00    +0.000 N 
ATOM     20  C   UNL     1      -0.252   9.808  22.565  0.00  0.00    +0.000 C 
ATOM     21  O   UNL     1       0.574   9.936  23.467  0.00  0.00    +0.000 OA
ATOM     22  H   UNL     1      -2.030  10.382  21.778  0.00  0.00    +0.000 HD
BRANCH  19  23
ATOM     23  C   UNL     1      -1.500  11.810  23.259  0.00  0.00    +0.000 C 
BRANCH  23  27
ATOM     24  C   UNL     1      -5.636  13.116  23.066  0.00  0.00    +0.000 A 
ATOM     25  C   UNL     1      -4.824  13.116  21.928  0.00  0.00    +0.000 A 
ATOM     26  C   UNL     1      -3.492  12.710  22.000  0.00  0.00    +0.000 A 
ATOM     27  C   UNL     1      -2.924  12.315  23.227  0.00  0.00    +0.000 A 
ATOM     28  C   UNL     1      -3.748  12.306  24.359  0.00  0.00    +0.000 A 
ATOM     29  C   UNL     1      -5.090  12.712  24.284  0.00  0.00    +0.000 A 
BRANCH  24  31
ATOM     30  C   UNL     1      -7.383  14.539  23.784  0.00  0.00    +0.000 C 
ATOM     31  O   UNL     1      -6.915  13.552  22.871  0.00  0.00    +0.000 OA
ENDBRANCH  24  31
ENDBRANCH  23  27
ENDBRANCH  19  23
ENDBRANCH  18  20
ENDBRANCH   1  18
TORSDOF 6
ENDMDL
MODEL 4
REMARK VINA RESULT:      -8.0      2.028      3.521
REMARK  Name = 
REMARK  7 active torsions:
REMARK  status: ('A' for Active; 'I' for Inactive)
REMARK    1  A    between atoms: C_1  and  O_2
REMARK    2  A    between atoms: O_2  and  C_3
REMARK    3  A    between atoms: C_6  and  C_7
REMARK    4  A    between atoms: C_7  and  N_8
REMARK    5  A    between atoms: C_9  and  C_11
REMARK    6  A    between atoms: C_11  and  N_12
REMARK    7  A    between atoms: C_14  and  C_15
REMARK                            x       y       z     vdW  Elec       q    Type
REMARK                         _______ _______ _______ _____ _____    ______ ____
ROOT
ATOM      1  N   UNL     1       5.584   5.320  18.306  0.00  0.00    +0.000 N 
ATOM      2  N   UNL     1       4.703   6.238  18.825  0.00  0.00    +0.000 NA
ATOM      3  C   UNL     1       3.453   6.132  18.507  0.00  0.00    +0.000 A 
ATOM      4  C   UNL     1       2.861   5.050  17.711  0.00  0.00    +0.000 A 
ATOM      5  C   UNL     1       3.740   4.249  17.110  0.00  0.00    +0.000 A 
ATOM      6  C   UNL     1       5.200   4.404  17.329  0.00  0.00    +0.000 A 
ATOM      7  O   UNL     1       5.972   3.740  16.639  0.00  0.00    +0.000 OA
ENDROOT
BRANCH   3   8
ATOM      8  C   UNL     1       2.612   7.314  18.735  0.00  0.00    +0.000 A 
ATOM      9  C   UNL     1       2.277   8.305  17.803  0.00  0.00    +0.000 A 
ATOM     10  C   UNL     1       1.436   9.347  18.217  0.00  0.00    +0.000 A 
ATOM     11  C   UNL     1       0.963   9.396  19.535  0.00  0.00    +0.000 A 
ATOM     12  C   UNL     1       1.384   8.449  20.458  0.00  0.00    +0.000 A 
ATOM     13  C   UNL     1       2.190   7.407  20.064  0.00  0.00    +0.000 A 
ATOM     14  O   UNL     1       1.041   8.470  21.776  0.00  0.00    +0.000 OA
ATOM     15  C   UNL     1      -0.296   8.937  21.876  0.00  0.00    +0.000 C 
ATOM     16  C   UNL     1      -0.453  10.292  21.195  0.00  0.00    +0.000 C 
ATOM     17  O   UNL     1       0.062  10.375  19.854  0.00  0.00    +0.000 OA
ENDBRANCH   3   8
BRANCH   1  18
ATOM     18  C   UNL     1       7.007   5.649  18.409  0.00  0.00    +0.000 C 
BRANCH  18  20
ATOM     19  N   UNL     1       7.804   7.964  18.197  0.00  0.00    +0.000 N 
ATOM     20  C   UNL     1       7.504   6.795  17.524  0.00  0.00    +0.000 C 
ATOM     21  O   UNL     1       7.500   6.716  16.296  0.00  0.00    +0.000 OA
ATOM     22  H   UNL     1       8.073   7.831  19.170  0.00  0.00    +0.000 HD
BRANCH  19  23
ATOM     23  C   UNL     1       8.339   9.108  17.493  0.00  0.00    +0.000 C 
BRANCH  23  27
ATOM     24  C   UNL     1       9.903  12.215  20.091  0.00  0.00    +0.000 A 
ATOM     25  C   UNL     1       9.768  12.424  18.715  0.00  0.00    +0.000 A 
ATOM     26  C   UNL     1       9.278  11.416  17.884  0.00  0.00    +0.000 A 
ATOM     27  C   UNL     1       8.935  10.154  18.407  0.00  0.00    +0.000 A 
ATOM     28  C   UNL     1       9.062   9.959  19.787  0.00  0.00    +0.000 A 
ATOM     29  C   UNL     1       9.552  10.975  20.623  0.00  0.00    +0.000 A 
BRANCH  24  31
ATOM     30  C   UNL     1      10.984  14.318  20.018  0.00  0.00    +0.000 C 
ATOM     31  O   UNL     1      10.410  13.270  20.793  0.00  0.00    +0.000 OA
ENDBRANCH  24  31
ENDBRANCH  23  27
ENDBRANCH  19  23
ENDBRANCH  18  20
ENDBRANCH   1  18
TORSDOF 6
ENDMDL
MODEL 5
REMARK VINA RESULT:      -8.0      2.156      3.568
REMARK  Name = 
REMARK  7 active torsions:
REMARK  status: ('A' for Active; 'I' for Inactive)
REMARK    1  A    between atoms: C_1  and  O_2
REMARK    2  A    between atoms: O_2  and  C_3
REMARK    3  A    between atoms: C_6  and  C_7
REMARK    4  A    between atoms: C_7  and  N_8
REMARK    5  A    between atoms: C_9  and  C_11
REMARK    6  A    between atoms: C_11  and  N_12
REMARK    7  A    between atoms: C_14  and  C_15
REMARK                            x       y       z     vdW  Elec       q    Type
REMARK                         _______ _______ _______ _____ _____    ______ ____
ROOT
ATOM      1  N   UNL     1       5.096   6.084  17.455  0.00  0.00    +0.000 N 
ATOM      2  N   UNL     1       4.340   7.007  18.135  0.00  0.00    +0.000 NA
ATOM      3  C   UNL     1       3.111   6.706  18.410  0.00  0.00    +0.000 A 
ATOM      4  C   UNL     1       2.467   5.414  18.147  0.00  0.00    +0.000 A 
ATOM      5  C   UNL     1       3.167   4.584  17.373  0.00  0.00    +0.000 A 
ATOM      6  C   UNL     1       4.535   4.930  16.913  0.00  0.00    +0.000 A 
ATOM      7  O   UNL     1       5.078   4.201  16.084  0.00  0.00    +0.000 OA
ENDROOT
BRANCH   3   8
ATOM      8  C   UNL     1       2.225   7.821  18.770  0.00  0.00    +0.000 A 
ATOM      9  C   UNL     1       1.702   8.795  17.910  0.00  0.00    +0.000 A 
ATOM     10  C   UNL     1       0.849   9.767  18.451  0.00  0.00    +0.000 A 
ATOM     11  C   UNL     1       0.549   9.766  19.820  0.00  0.00    +0.000 A 
ATOM     12  C   UNL     1       1.153   8.841  20.660  0.00  0.00    +0.000 A 
ATOM     13  C   UNL     1       1.974   7.866  20.143  0.00  0.00    +0.000 A 
ATOM     14  O   UNL     1       0.983   8.821  22.011  0.00  0.00    +0.000 OA
ATOM     15  C   UNL     1      -0.359   9.187  22.292  0.00  0.00    +0.000 C 
ATOM     16  C   UNL     1      -0.700  10.534  21.666  0.00  0.00    +0.000 C 
ATOM     17  O   UNL     1      -0.371  10.671  20.273  0.00  0.00    +0.000 OA
ENDBRANCH   3   8
BRANCH   1  18
ATOM     18  C   UNL     1       6.352   6.565  16.877  0.00  0.00    +0.000 C 
BRANCH  18  20
ATOM     19  N   UNL     1       7.824   8.347  17.715  0.00  0.00    +0.000 N 
ATOM     20  C   UNL     1       7.420   7.034  17.868  0.00  0.00    +0.000 C 
ATOM     21  O   UNL     1       7.970   6.256  18.647  0.00  0.00    +0.000 OA
ATOM     22  H   UNL     1       7.123   8.956  17.294  0.00  0.00    +0.000 HD
BRANCH  19  23
ATOM     23  C   UNL     1       8.784   8.938  18.620  0.00  0.00    +0.000 C 
BRANCH  23  27
ATOM     24  C   UNL     1       9.457  13.173  17.938  0.00  0.00    +0.000 A 
ATOM     25  C   UNL     1      10.345  12.414  18.707  0.00  0.00    +0.000 A 
ATOM     26  C   UNL     1      10.115  11.058  18.935  0.00  0.00    +0.000 A 
ATOM     27  C   UNL     1       8.967  10.425  18.418  0.00  0.00    +0.000 A 
ATOM     28  C   UNL     1       8.091  11.189  17.639  0.00  0.00    +0.000 A 
ATOM     29  C   UNL     1       8.325  12.554  17.408  0.00  0.00    +0.000 A 
BRANCH  24  31
ATOM     30  C   UNL     1      11.134  14.768  17.450  0.00  0.00    +0.000 C 
ATOM     31  O   UNL     1       9.782  14.492  17.803  0.00  0.00    +0.000 OA
ENDBRANCH  24  31
ENDBRANCH  23  27
ENDBRANCH  19  23
ENDBRANCH  18  20
ENDBRANCH   1  18
TORSDOF 6
ENDMDL
MODEL 6
REMARK VINA RESULT:      -7.9      2.697      7.820
REMARK  Name = 
REMARK  7 active torsions:
REMARK  status: ('A' for Active; 'I' for Inactive)
REMARK    1  A    between atoms: C_1  and  O_2
REMARK    2  A    between atoms: O_2  and  C_3
REMARK    3  A    between atoms: C_6  and  C_7
REMARK    4  A    between atoms: C_7  and  N_8
REMARK    5  A    between atoms: C_9  and  C_11
REMARK    6  A    between atoms: C_11  and  N_12
REMARK    7  A    between atoms: C_14  and  C_15
REMARK                            x       y       z     vdW  Elec       q    Type
REMARK                         _______ _______ _______ _____ _____    ______ ____
ROOT
ATOM      1  N   UNL     1       2.213   4.125  20.026  0.00  0.00    +0.000 N 
ATOM      2  N   UNL     1       3.024   4.358  18.943  0.00  0.00    +0.000 NA
ATOM      3  C   UNL     1       4.093   3.639  18.815  0.00  0.00    +0.000 A 
ATOM      4  C   UNL     1       4.477   2.515  19.677  0.00  0.00    +0.000 A 
ATOM      5  C   UNL     1       3.755   2.389  20.791  0.00  0.00    +0.000 A 
ATOM      6  C   UNL     1       2.594   3.274  21.060  0.00  0.00    +0.000 A 
ATOM      7  O   UNL     1       2.056   3.216  22.165  0.00  0.00    +0.000 OA
ENDROOT
BRANCH   3   8
ATOM      8  C   UNL     1       5.125   4.150  17.904  0.00  0.00    +0.000 A 
ATOM      9  C   UNL     1       6.330   4.772  18.256  0.00  0.00    +0.000 A 
ATOM     10  C   UNL     1       7.196   5.168  17.227  0.00  0.00    +0.000 A 
ATOM     11  C   UNL     1       6.849   4.959  15.887  0.00  0.00    +0.000 A 
ATOM     12  C   UNL     1       5.611   4.420  15.568  0.00  0.00    +0.000 A 
ATOM     13  C   UNL     1       4.758   4.005  16.563  0.00  0.00    +0.000 A 
ATOM     14  O   UNL     1       5.159   4.260  14.293  0.00  0.00    +0.000 OA
ATOM     15  C   UNL     1       6.263   3.899  13.477  0.00  0.00    +0.000 C 
ATOM     16  C   UNL     1       7.385   4.925  13.590  0.00  0.00    +0.000 C 
ATOM     17  O   UNL     1       7.778   5.268  14.931  0.00  0.00    +0.000 OA
ENDBRANCH   3   8
BRANCH   1  18
ATOM     18  C   UNL     1       1.209   5.149  20.324  0.00  0.00    +0.000 C 
BRANCH  18  20
ATOM     19  N   UNL     1       1.133   7.309  21.494  0.00  0.00    +0.000 N 
ATOM     20  C   UNL     1       1.727   6.581  20.481  0.00  0.00    +0.000 C 
ATOM     21  O   UNL     1       2.510   7.081  19.674  0.00  0.00    +0.000 OA
ATOM     22  H   UNL     1       0.767   6.743  22.259  0.00  0.00    +0.000 HD
BRANCH  19  23
ATOM     23  C   UNL     1       1.566   8.655  21.792  0.00  0.00    +0.000 C 
BRANCH  23  27
ATOM     24  C   UNL     1      -1.563  11.664  21.901  0.00  0.00    +0.000 A 
ATOM     25  C   UNL     1      -1.223  10.932  23.043  0.00  0.00    +0.000 A 
ATOM     26  C   UNL     1      -0.227   9.957  22.997  0.00  0.00    +0.000 A 
ATOM     27  C   UNL     1       0.442   9.665  21.792  0.00  0.00    +0.000 A 
ATOM     28  C   UNL     1       0.104  10.411  20.657  0.00  0.00    +0.000 A 
ATOM     29  C   UNL     1      -0.896  11.395  20.705  0.00  0.00    +0.000 A 
BRANCH  24  31
ATOM     30  C   UNL     1      -3.089  13.151  20.876  0.00  0.00    +0.000 C 
ATOM     31  O   UNL     1      -2.564  12.576  22.068  0.00  0.00    +0.000 OA
ENDBRANCH  24  31
ENDBRANCH  23  27
ENDBRANCH  19  23
ENDBRANCH  18  20
ENDBRANCH   1  18
TORSDOF 6
ENDMDL
MODEL 7
REMARK VINA RESULT:      -7.8      0.902      1.554
REMARK  Name = 
REMARK  7 active torsions:
REMARK  status: ('A' for Active; 'I' for Inactive)
REMARK    1  A    between atoms: C_1  and  O_2
REMARK    2  A    between atoms: O_2  and  C_3
REMARK    3  A    between atoms: C_6  and  C_7
REMARK    4  A    between atoms: C_7  and  N_8
REMARK    5  A    between atoms: C_9  and  C_11
REMARK    6  A    between atoms: C_11  and  N_12
REMARK    7  A    between atoms: C_14  and  C_15
REMARK                            x       y       z     vdW  Elec       q    Type
REMARK                         _______ _______ _______ _____ _____    ______ ____
ROOT
ATOM      1  N   UNL     1       3.052   3.916  18.567  0.00  0.00    +0.000 N 
ATOM      2  N   UNL     1       2.907   5.256  18.826  0.00  0.00    +0.000 NA
ATOM      3  C   UNL     1       2.358   5.607  19.944  0.00  0.00    +0.000 A 
ATOM      4  C   UNL     1       1.959   4.697  21.024  0.00  0.00    +0.000 A 
ATOM      5  C   UNL     1       1.983   3.403  20.706  0.00  0.00    +0.000 A 
ATOM      6  C   UNL     1       2.478   2.944  19.384  0.00  0.00    +0.000 A 
ATOM      7  O   UNL     1       2.341   1.758  19.084  0.00  0.00    +0.000 OA
ENDROOT
BRANCH   3   8
ATOM      8  C   UNL     1       1.860   6.986  20.030  0.00  0.00    +0.000 A 
ATOM      9  C   UNL     1       1.155   7.565  21.094  0.00  0.00    +0.000 A 
ATOM     10  C   UNL     1       0.788   8.914  20.988  0.00  0.00    +0.000 A 
ATOM     11  C   UNL     1       1.106   9.649  19.839  0.00  0.00    +0.000 A 
ATOM     12  C   UNL     1       1.726   9.023  18.766  0.00  0.00    +0.000 A 
ATOM     13  C   UNL     1       2.114   7.707  18.861  0.00  0.00    +0.000 A 
ATOM     14  O   UNL     1       1.995   9.639  17.582  0.00  0.00    +0.000 OA
ATOM     15  C   UNL     1       2.355  10.984  17.857  0.00  0.00    +0.000 C 
ATOM     16  C   UNL     1       1.269  11.687  18.664  0.00  0.00    +0.000 C 
ATOM     17  O   UNL     1       0.816  10.986  19.835  0.00  0.00    +0.000 OA
ENDBRANCH   3   8
BRANCH   1  18
ATOM     18  C   UNL     1       3.364   3.545  17.186  0.00  0.00    +0.000 C 
BRANCH  18  20
ATOM     19  N   UNL     1       5.649   4.312  17.665  0.00  0.00    +0.000 N 
ATOM     20  C   UNL     1       4.763   3.912  16.684  0.00  0.00    +0.000 C 
ATOM     21  O   UNL     1       5.026   3.976  15.484  0.00  0.00    +0.000 OA
ATOM     22  H   UNL     1       5.451   3.932  18.590  0.00  0.00    +0.000 HD
BRANCH  19  23
ATOM     23  C   UNL     1       7.021   4.631  17.340  0.00  0.00    +0.000 C 
BRANCH  23  27
ATOM     24  C   UNL     1       8.375   8.584  18.520  0.00  0.00    +0.000 A 
ATOM     25  C   UNL     1       8.576   7.475  19.347  0.00  0.00    +0.000 A 
ATOM     26  C   UNL     1       8.125   6.210  18.969  0.00  0.00    +0.000 A 
ATOM     27  C   UNL     1       7.432   6.025  17.757  0.00  0.00    +0.000 A 
ATOM     28  C   UNL     1       7.246   7.139  16.929  0.00  0.00    +0.000 A 
ATOM     29  C   UNL     1       7.704   8.411  17.310  0.00  0.00    +0.000 A 
BRANCH  24  31
ATOM     30  C   UNL     1       9.419  10.654  18.052  0.00  0.00    +0.000 C 
ATOM     31  O   UNL     1       8.846   9.769  19.008  0.00  0.00    +0.000 OA
ENDBRANCH  24  31
ENDBRANCH  23  27
ENDBRANCH  19  23
ENDBRANCH  18  20
ENDBRANCH   1  18
TORSDOF 6
ENDMDL
MODEL 8
REMARK VINA RESULT:      -7.8      2.671      4.367
REMARK  Name = 
REMARK  7 active torsions:
REMARK  status: ('A' for Active; 'I' for Inactive)
REMARK    1  A    between atoms: C_1  and  O_2
REMARK    2  A    between atoms: O_2  and  C_3
REMARK    3  A    between atoms: C_6  and  C_7
REMARK    4  A    between atoms: C_7  and  N_8
REMARK    5  A    between atoms: C_9  and  C_11
REMARK    6  A    between atoms: C_11  and  N_12
REMARK    7  A    between atoms: C_14  and  C_15
REMARK                            x       y       z     vdW  Elec       q    Type
REMARK                         _______ _______ _______ _____ _____    ______ ____
ROOT
ATOM      1  N   UNL     1       4.651   4.682  18.914  0.00  0.00    +0.000 N 
ATOM      2  N   UNL     1       4.006   5.847  19.249  0.00  0.00    +0.000 NA
ATOM      3  C   UNL     1       2.786   6.008  18.846  0.00  0.00    +0.000 A 
ATOM      4  C   UNL     1       1.981   5.008  18.136  0.00  0.00    +0.000 A 
ATOM      5  C   UNL     1       2.659   3.944  17.705  0.00  0.00    +0.000 A 
ATOM      6  C   UNL     1       4.098   3.766  18.022  0.00  0.00    +0.000 A 
ATOM      7  O   UNL     1       4.710   2.848  17.478  0.00  0.00    +0.000 OA
ENDROOT
BRANCH   3   8
ATOM      8  C   UNL     1       2.261   7.379  18.867  0.00  0.00    +0.000 A 
ATOM      9  C   UNL     1       2.240   8.292  17.804  0.00  0.00    +0.000 A 
ATOM     10  C   UNL     1       1.668   9.552  18.025  0.00  0.00    +0.000 A 
ATOM     11  C   UNL     1       1.151   9.887  19.283  0.00  0.00    +0.000 A 
ATOM     12  C   UNL     1       1.267   8.994  20.339  0.00  0.00    +0.000 A 
ATOM     13  C   UNL     1       1.804   7.745  20.135  0.00  0.00    +0.000 A 
ATOM     14  O   UNL     1       0.869   9.270  21.612  0.00  0.00    +0.000 OA
ATOM     15  C   UNL     1      -0.310  10.058  21.543  0.00  0.00    +0.000 C 
ATOM     16  C   UNL     1      -0.082  11.310  20.703  0.00  0.00    +0.000 C 
ATOM     17  O   UNL     1       0.511  11.089  19.411  0.00  0.00    +0.000 OA
ENDBRANCH   3   8
BRANCH   1  18
ATOM     18  C   UNL     1       6.104   4.664  19.092  0.00  0.00    +0.000 C 
BRANCH  18  20
ATOM     19  N   UNL     1       6.334   5.560  16.815  0.00  0.00    +0.000 N 
ATOM     20  C   UNL     1       6.945   4.843  17.826  0.00  0.00    +0.000 C 
ATOM     21  O   UNL     1       8.025   4.271  17.677  0.00  0.00    +0.000 OA
ATOM     22  H   UNL     1       5.631   6.223  17.137  0.00  0.00    +0.000 HD
BRANCH  19  23
ATOM     23  C   UNL     1       7.036   5.854  15.586  0.00  0.00    +0.000 C 
BRANCH  23  27
ATOM     24  C   UNL     1       5.904   3.271  12.284  0.00  0.00    +0.000 A 
ATOM     25  C   UNL     1       7.138   3.928  12.298  0.00  0.00    +0.000 A 
ATOM     26  C   UNL     1       7.489   4.768  13.354  0.00  0.00    +0.000 A 
ATOM     27  C   UNL     1       6.597   4.997  14.420  0.00  0.00    +0.000 A 
ATOM     28  C   UNL     1       5.369   4.325  14.404  0.00  0.00    +0.000 A 
ATOM     29  C   UNL     1       5.018   3.477  13.342  0.00  0.00    +0.000 A 
BRANCH  24  31
ATOM     30  C   UNL     1       6.454   1.307  11.087  0.00  0.00    +0.000 C 
ATOM     31  O   UNL     1       5.670   2.492  11.189  0.00  0.00    +0.000 OA
ENDBRANCH  24  31
ENDBRANCH  23  27
ENDBRANCH  19  23
ENDBRANCH  18  20
ENDBRANCH   1  18
TORSDOF 6
ENDMDL
MODEL 9
REMARK VINA RESULT:      -7.7      2.034      3.676
REMARK  Name = 
REMARK  7 active torsions:
REMARK  status: ('A' for Active; 'I' for Inactive)
REMARK    1  A    between atoms: C_1  and  O_2
REMARK    2  A    between atoms: O_2  and  C_3
REMARK    3  A    between atoms: C_6  and  C_7
REMARK    4  A    between atoms: C_7  and  N_8
REMARK    5  A    between atoms: C_9  and  C_11
REMARK    6  A    between atoms: C_11  and  N_12
REMARK    7  A    between atoms: C_14  and  C_15
REMARK                            x       y       z     vdW  Elec       q    Type
REMARK                         _______ _______ _______ _____ _____    ______ ____
ROOT
ATOM      1  N   UNL     1       5.773   5.183  18.449  0.00  0.00    +0.000 N 
ATOM      2  N   UNL     1       4.874   5.921  19.180  0.00  0.00    +0.000 NA
ATOM      3  C   UNL     1       3.612   5.682  19.017  0.00  0.00    +0.000 A 
ATOM      4  C   UNL     1       3.044   4.614  18.186  0.00  0.00    +0.000 A 
ATOM      5  C   UNL     1       3.916   3.999  17.387  0.00  0.00    +0.000 A 
ATOM      6  C   UNL     1       5.363   4.324  17.431  0.00  0.00    +0.000 A 
ATOM      7  O   UNL     1       6.101   3.839  16.575  0.00  0.00    +0.000 OA
ENDROOT
BRANCH   3   8
ATOM      8  C   UNL     1       2.680   6.715  19.487  0.00  0.00    +0.000 A 
ATOM      9  C   UNL     1       1.949   6.711  20.682  0.00  0.00    +0.000 A 
ATOM     10  C   UNL     1       1.127   7.813  20.958  0.00  0.00    +0.000 A 
ATOM     11  C   UNL     1       1.033   8.875  20.049  0.00  0.00    +0.000 A 
ATOM     12  C   UNL     1       1.701   8.807  18.834  0.00  0.00    +0.000 A 
ATOM     13  C   UNL     1       2.529   7.746  18.556  0.00  0.00    +0.000 A 
ATOM     14  O   UNL     1       1.599   9.753  17.860  0.00  0.00    +0.000 OA
ATOM     15  C   UNL     1       1.500  11.023  18.487  0.00  0.00    +0.000 C 
ATOM     16  C   UNL     1       0.340  11.055  19.476  0.00  0.00    +0.000 C 
ATOM     17  O   UNL     1       0.299   9.969  20.418  0.00  0.00    +0.000 OA
ENDBRANCH   3   8
BRANCH   1  18
ATOM     18  C   UNL     1       7.147   5.685  18.403  0.00  0.00    +0.000 C 
BRANCH  18  20
ATOM     19  N   UNL     1       7.970   7.992  18.196  0.00  0.00    +0.000 N 
ATOM     20  C   UNL     1       7.387   6.926  17.538  0.00  0.00    +0.000 C 
ATOM     21  O   UNL     1       6.965   7.006  16.385  0.00  0.00    +0.000 OA
ATOM     22  H   UNL     1       8.544   7.730  18.996  0.00  0.00    +0.000 HD
BRANCH  19  23
ATOM     23  C   UNL     1       8.307   9.206  17.487  0.00  0.00    +0.000 C 
BRANCH  23  27
ATOM     24  C   UNL     1       9.934  12.292  20.071  0.00  0.00    +0.000 A 
ATOM     25  C   UNL     1       9.752  10.985  20.532  0.00  0.00    +0.000 A 
ATOM     26  C   UNL     1       9.214  10.002  19.702  0.00  0.00    +0.000 A 
ATOM     27  C   UNL     1       8.817  10.309  18.386  0.00  0.00    +0.000 A 
ATOM     28  C   UNL     1       9.015  11.617  17.928  0.00  0.00    +0.000 A 
ATOM     29  C   UNL     1       9.559  12.605  18.765  0.00  0.00    +0.000 A 
BRANCH  24  31
ATOM     30  C   UNL     1       9.668  14.325  21.249  0.00  0.00    +0.000 C 
ATOM     31  O   UNL     1      10.451  13.166  20.983  0.00  0.00    +0.000 OA
ENDBRANCH  24  31
ENDBRANCH  23  27
ENDBRANCH  19  23
ENDBRANCH  18  20
ENDBRANCH   1  18
TORSDOF 6
ENDMDL
