MODEL 1
REMARK VINA RESULT:      -8.2      0.000      0.000
REMARK  Name = 
REMARK  1 active torsions:
REMARK  status: ('A' for Active; 'I' for Inactive)
REMARK    1  A    between atoms: C_5  and  C_7
REMARK                            x       y       z     vdW  Elec       q    Type
REMARK                         _______ _______ _______ _____ _____    ______ ____
ROOT
ATOM      1  C   UNL     1       2.921   6.799  18.753  0.00  0.00    +0.000 A 
ATOM      2  C   UNL     1       2.344   7.899  18.141  0.00  0.00    +0.000 A 
ATOM      3  C   UNL     1       1.545   8.572  19.092  0.00  0.00    +0.000 A 
ATOM      4  C   UNL     1       0.613   9.621  19.012  0.00  0.00    +0.000 A 
ATOM      5  F   UNL     1       0.324  10.177  17.827  0.00  0.00    +0.000 F 
ATOM      6  C   UNL     1      -0.051  10.058  20.153  0.00  0.00    +0.000 A 
ATOM      7  C   UNL     1       0.238   9.469  21.380  0.00  0.00    +0.000 A 
ATOM      8 BR   UNL     1      -0.677  10.075  22.924  0.00  0.00    +0.000 Br
ATOM      9  C   UNL     1       1.175   8.431  21.504  0.00  0.00    +0.000 A 
ATOM     10  C   UNL     1       1.798   7.985  20.330  0.00  0.00    +0.000 A 
ATOM     11  N   UNL     1       2.705   6.972  20.110  0.00  0.00    +0.000 N 
ATOM     12  H   UNL     1       3.094   6.366  20.821  0.00  0.00    +0.000 HD
ENDROOT
BRANCH   1  17
ATOM     13  O   UNL     1       0.165   2.403  19.087  0.00  0.00    +0.000 OA
ATOM     14  C   UNL     1       1.233   2.741  18.580  0.00  0.00    +0.000 C 
ATOM     15  C   UNL     1       1.589   4.212  18.326  0.00  0.00    +0.000 C 
ATOM     16  N   UNL     1       2.975   4.499  17.927  0.00  0.00    +0.000 N 
ATOM     17  C   UNL     1       3.667   5.677  18.213  0.00  0.00    +0.000 C 
ATOM     18  O   UNL     1       4.879   5.765  18.042  0.00  0.00    +0.000 OA
ATOM     19  C   UNL     1       3.610   3.470  17.110  0.00  0.00    +0.000 C 
ATOM     20  C   UNL     1       3.469   2.095  17.763  0.00  0.00    +0.000 C 
ATOM     21  N   UNL     1       2.098   1.790  18.111  0.00  0.00    +0.000 N 
ATOM     22  H   UNL     1       1.838   0.841  18.356  0.00  0.00    +0.000 HD
ENDBRANCH   1  17
TORSDOF 1
ENDMDL
MODEL 2
REMARK VINA RESULT:      -8.0      2.002      3.452
REMARK  Name = 
REMARK  1 active torsions:
REMARK  status: ('A' for Active; 'I' for Inactive)
REMARK    1  A    between atoms: C_5  and  C_7
REMARK                            x       y       z     vdW  Elec       q    Type
REMARK                         _______ _______ _______ _____ _____    ______ ____
ROOT
ATOM      1  C   UNL     1       2.869   6.539  18.498  0.00  0.00    +0.000 A 
ATOM      2  C   UNL     1       2.501   7.781  18.010  0.00  0.00    +0.000 A 
ATOM      3  C   UNL     1       1.774   8.459  19.015  0.00  0.00    +0.000 A 
ATOM      4  C   UNL     1       1.024   9.647  19.039  0.00  0.00    +0.000 A 
ATOM      5  F   UNL     1       0.880  10.376  17.924  0.00  0.00    +0.000 F 
ATOM      6  C   UNL     1       0.384  10.049  20.207  0.00  0.00    +0.000 A 
ATOM      7  C   UNL     1       0.521   9.282  21.360  0.00  0.00    +0.000 A 
ATOM      8 BR   UNL     1      -0.358   9.843  22.942  0.00  0.00    +0.000 Br
ATOM      9  C   UNL     1       1.277   8.099  21.381  0.00  0.00    +0.000 A 
ATOM     10  C   UNL     1       1.875   7.698  20.177  0.00  0.00    +0.000 A 
ATOM     11  N   UNL     1       2.621   6.585  19.859  0.00  0.00    +0.000 N 
ATOM     12  H   UNL     1       2.877   5.845  20.501  0.00  0.00    +0.000 HD
ENDROOT
BRANCH   1  17
ATOM     13  O   UNL     1       7.733   7.536  16.958  0.00  0.00    +0.000 OA
ATOM     14  C   UNL     1       7.002   6.548  16.996  0.00  0.00    +0.000 C 
ATOM     15  C   UNL     1       5.742   6.496  17.868  0.00  0.00    +0.000 C 
ATOM     16  N   UNL     1       4.837   5.356  17.658  0.00  0.00    +0.000 N 
ATOM     17  C   UNL     1       3.453   5.382  17.845  0.00  0.00    +0.000 C 
ATOM     18  O   UNL     1       2.737   4.468  17.447  0.00  0.00    +0.000 OA
ATOM     19  C   UNL     1       5.492   4.104  17.293  0.00  0.00    +0.000 C 
ATOM     20  C   UNL     1       6.443   4.312  16.115  0.00  0.00    +0.000 C 
ATOM     21  N   UNL     1       7.368   5.402  16.342  0.00  0.00    +0.000 N 
ATOM     22  H   UNL     1       8.176   5.513  15.739  0.00  0.00    +0.000 HD
ENDBRANCH   1  17
TORSDOF 1
ENDMDL
MODEL 3
REMARK VINA RESULT:      -7.7      1.746      2.107
REMARK  Name = 
REMARK  1 active torsions:
REMARK  status: ('A' for Active; 'I' for Inactive)
REMARK    1  A    between atoms: C_5  and  C_7
REMARK                            x       y       z     vdW  Elec       q    Type
REMARK                         _______ _______ _______ _____ _____    ______ ____
ROOT
ATOM      1  C   UNL     1       2.794   6.547  19.354  0.00  0.00    +0.000 A 
ATOM      2  C   UNL     1       2.020   6.866  20.458  0.00  0.00    +0.000 A 
ATOM      3  C   UNL     1       1.507   8.171  20.283  0.00  0.00    +0.000 A 
ATOM      4  C   UNL     1       0.821   9.067  21.119  0.00  0.00    +0.000 A 
ATOM      5  F   UNL     1       0.547   8.730  22.387  0.00  0.00    +0.000 F 
ATOM      6  C   UNL     1       0.464  10.328  20.655  0.00  0.00    +0.000 A 
ATOM      7  C   UNL     1       0.764  10.683  19.343  0.00  0.00    +0.000 A 
ATOM      8 BR   UNL     1       0.272  12.405  18.726  0.00  0.00    +0.000 Br
ATOM      9  C   UNL     1       1.433   9.810  18.470  0.00  0.00    +0.000 A 
ATOM     10  C   UNL     1       1.816   8.561  18.981  0.00  0.00    +0.000 A 
ATOM     11  N   UNL     1       2.516   7.521  18.411  0.00  0.00    +0.000 N 
ATOM     12  H   UNL     1       2.870   7.501  17.463  0.00  0.00    +0.000 HD
ENDROOT
BRANCH   1  17
ATOM     13  O   UNL     1       0.123   2.160  18.545  0.00  0.00    +0.000 OA
ATOM     14  C   UNL     1       1.301   2.505  18.472  0.00  0.00    +0.000 C 
ATOM     15  C   UNL     1       1.720   3.979  18.403  0.00  0.00    +0.000 C 
ATOM     16  N   UNL     1       3.154   4.268  18.545  0.00  0.00    +0.000 N 
ATOM     17  C   UNL     1       3.689   5.435  19.095  0.00  0.00    +0.000 C 
ATOM     18  O   UNL     1       4.881   5.520  19.381  0.00  0.00    +0.000 OA
ATOM     19  C   UNL     1       4.048   3.256  17.991  0.00  0.00    +0.000 C 
ATOM     20  C   UNL     1       3.684   1.867  18.512  0.00  0.00    +0.000 C 
ATOM     21  N   UNL     1       2.281   1.560  18.326  0.00  0.00    +0.000 N 
ATOM     22  H   UNL     1       1.953   0.607  18.436  0.00  0.00    +0.000 HD
ENDBRANCH   1  17
TORSDOF 1
ENDMDL
MODEL 4
REMARK VINA RESULT:      -7.2      1.516      1.516
REMARK  Name = 
REMARK  1 active torsions:
REMARK  status: ('A' for Active; 'I' for Inactive)
REMARK    1  A    between atoms: C_5  and  C_7
REMARK                            x       y       z     vdW  Elec       q    Type
REMARK                         _______ _______ _______ _____ _____    ______ ____
ROOT
ATOM      1  C   UNL     1       2.542   7.149  19.019  0.00  0.00    +0.000 A 
ATOM      2  C   UNL     1       1.997   8.243  18.368  0.00  0.00    +0.000 A 
ATOM      3  C   UNL     1       1.207   8.965  19.291  0.00  0.00    +0.000 A 
ATOM      4  C   UNL     1       0.302  10.032  19.170  0.00  0.00    +0.000 A 
ATOM      5  F   UNL     1       0.035  10.557  17.966  0.00  0.00    +0.000 F 
ATOM      6  C   UNL     1      -0.360  10.521  20.291  0.00  0.00    +0.000 A 
ATOM      7  C   UNL     1      -0.095   9.964  21.539  0.00  0.00    +0.000 A 
ATOM      8 BR   UNL     1      -1.006  10.640  23.055  0.00  0.00    +0.000 Br
ATOM      9  C   UNL     1       0.816   8.908  21.703  0.00  0.00    +0.000 A 
ATOM     10  C   UNL     1       1.437   8.411  20.548  0.00  0.00    +0.000 A 
ATOM     11  N   UNL     1       2.320   7.370  20.367  0.00  0.00    +0.000 N 
ATOM     12  H   UNL     1       2.690   6.778  21.101  0.00  0.00    +0.000 HD
ENDROOT
BRANCH   1  17
ATOM     13  O   UNL     1       2.031   3.105  22.246  0.00  0.00    +0.000 OA
ATOM     14  C   UNL     1       2.520   3.293  21.134  0.00  0.00    +0.000 C 
ATOM     15  C   UNL     1       2.168   4.519  20.282  0.00  0.00    +0.000 C 
ATOM     16  N   UNL     1       2.981   4.745  19.078  0.00  0.00    +0.000 N 
ATOM     17  C   UNL     1       3.265   5.993  18.521  0.00  0.00    +0.000 C 
ATOM     18  O   UNL     1       4.120   6.126  17.650  0.00  0.00    +0.000 OA
ATOM     19  C   UNL     1       3.448   3.534  18.409  0.00  0.00    +0.000 C 
ATOM     20  C   UNL     1       4.133   2.596  19.402  0.00  0.00    +0.000 C 
ATOM     21  N   UNL     1       3.313   2.332  20.565  0.00  0.00    +0.000 N 
ATOM     22  H   UNL     1       3.555   1.574  21.194  0.00  0.00    +0.000 HD
ENDBRANCH   1  17
TORSDOF 1
ENDMDL
MODEL 5
REMARK VINA RESULT:      -7.1      2.668      4.077
REMARK  Name = 
REMARK  1 active torsions:
REMARK  status: ('A' for Active; 'I' for Inactive)
REMARK    1  A    between atoms: C_5  and  C_7
REMARK                            x       y       z     vdW  Elec       q    Type
REMARK                         _______ _______ _______ _____ _____    ______ ____
ROOT
ATOM      1  C   UNL     1       2.802   6.362  18.387  0.00  0.00    +0.000 A 
ATOM      2  C   UNL     1       2.283   6.575  19.654  0.00  0.00    +0.000 A 
ATOM      3  C   UNL     1       1.820   7.907  19.729  0.00  0.00    +0.000 A 
ATOM      4  C   UNL     1       1.366   8.722  20.781  0.00  0.00    +0.000 A 
ATOM      5  F   UNL     1       1.333   8.248  22.034  0.00  0.00    +0.000 F 
ATOM      6  C   UNL     1       0.993  10.039  20.538  0.00  0.00    +0.000 A 
ATOM      7  C   UNL     1       1.043  10.535  19.238  0.00  0.00    +0.000 A 
ATOM      8 BR   UNL     1       0.533  12.332  18.924  0.00  0.00    +0.000 Br
ATOM      9  C   UNL     1       1.474   9.748  18.158  0.00  0.00    +0.000 A 
ATOM     10  C   UNL     1       1.882   8.437  18.442  0.00  0.00    +0.000 A 
ATOM     11  N   UNL     1       2.396   7.448  17.632  0.00  0.00    +0.000 N 
ATOM     12  H   UNL     1       2.550   7.527  16.634  0.00  0.00    +0.000 HD
ENDROOT
BRANCH   1  17
ATOM     13  O   UNL     1       7.599   7.889  17.090  0.00  0.00    +0.000 OA
ATOM     14  C   UNL     1       6.993   6.820  17.137  0.00  0.00    +0.000 C 
ATOM     15  C   UNL     1       5.693   6.650  17.933  0.00  0.00    +0.000 C 
ATOM     16  N   UNL     1       4.950   5.398  17.730  0.00  0.00    +0.000 N 
ATOM     17  C   UNL     1       3.565   5.259  17.832  0.00  0.00    +0.000 C 
ATOM     18  O   UNL     1       2.992   4.246  17.441  0.00  0.00    +0.000 OA
ATOM     19  C   UNL     1       5.775   4.222  17.471  0.00  0.00    +0.000 C 
ATOM     20  C   UNL     1       6.769   4.495  16.343  0.00  0.00    +0.000 C 
ATOM     21  N   UNL     1       7.538   5.701  16.567  0.00  0.00    +0.000 N 
ATOM     22  H   UNL     1       8.364   5.885  16.009  0.00  0.00    +0.000 HD
ENDBRANCH   1  17
TORSDOF 1
ENDMDL
MODEL 6
REMARK VINA RESULT:      -7.0      1.854      2.848
REMARK  Name = 
REMARK  1 active torsions:
REMARK  status: ('A' for Active; 'I' for Inactive)
REMARK    1  A    between atoms: C_5  and  C_7
REMARK                            x       y       z     vdW  Elec       q    Type
REMARK                         _______ _______ _______ _____ _____    ______ ____
ROOT
ATOM      1  C   UNL     1       2.429   6.703  19.604  0.00  0.00    +0.000 A 
ATOM      2  C   UNL     1       2.218   7.835  18.835  0.00  0.00    +0.000 A 
ATOM      3  C   UNL     1       1.435   8.744  19.582  0.00  0.00    +0.000 A 
ATOM      4  C   UNL     1       0.781   9.948  19.272  0.00  0.00    +0.000 A 
ATOM      5  F   UNL     1       0.825  10.437  18.025  0.00  0.00    +0.000 F 
ATOM      6  C   UNL     1       0.043  10.617  20.243  0.00  0.00    +0.000 A 
ATOM      7  C   UNL     1      -0.015  10.099  21.533  0.00  0.00    +0.000 A 
ATOM      8 BR   UNL     1      -1.025  11.021  22.844  0.00  0.00    +0.000 Br
ATOM      9  C   UNL     1       0.639   8.908  21.887  0.00  0.00    +0.000 A 
ATOM     10  C   UNL     1       1.340   8.236  20.876  0.00  0.00    +0.000 A 
ATOM     11  N   UNL     1       2.029   7.043  20.884  0.00  0.00    +0.000 N 
ATOM     12  H   UNL     1       2.150   6.440  21.689  0.00  0.00    +0.000 HD
ENDROOT
BRANCH   1  17
ATOM     13  O   UNL     1       5.271   6.963  15.258  0.00  0.00    +0.000 OA
ATOM     14  C   UNL     1       5.045   6.114  16.118  0.00  0.00    +0.000 C 
ATOM     15  C   UNL     1       4.461   6.473  17.490  0.00  0.00    +0.000 C 
ATOM     16  N   UNL     1       4.030   5.355  18.341  0.00  0.00    +0.000 N 
ATOM     17  C   UNL     1       2.994   5.407  19.275  0.00  0.00    +0.000 C 
ATOM     18  O   UNL     1       2.546   4.388  19.792  0.00  0.00    +0.000 OA
ATOM     19  C   UNL     1       4.822   4.136  18.211  0.00  0.00    +0.000 C 
ATOM     20  C   UNL     1       4.955   3.729  16.744  0.00  0.00    +0.000 C 
ATOM     21  N   UNL     1       5.429   4.816  15.913  0.00  0.00    +0.000 N 
ATOM     22  H   UNL     1       5.755   4.627  14.972  0.00  0.00    +0.000 HD
ENDBRANCH   1  17
TORSDOF 1
ENDMDL
MODEL 7
REMARK VINA RESULT:      -7.0      1.951      2.899
REMARK  Name = 
REMARK  1 active torsions:
REMARK  status: ('A' for Active; 'I' for Inactive)
REMARK    1  A    between atoms: C_5  and  C_7
REMARK                            x       y       z     vdW  Elec       q    Type
REMARK                         _______ _______ _______ _____ _____    ______ ____
ROOT
ATOM      1  C   UNL     1       1.786   6.472  20.137  0.00  0.00    +0.000 A 
ATOM      2  C   UNL     1       2.097   7.280  19.056  0.00  0.00    +0.000 A 
ATOM      3  C   UNL     1       1.675   8.597  19.346  0.00  0.00    +0.000 A 
ATOM      4  C   UNL     1       1.571   9.775  18.587  0.00  0.00    +0.000 A 
ATOM      5  F   UNL     1       1.901   9.771  17.288  0.00  0.00    +0.000 F 
ATOM      6  C   UNL     1       1.079  10.940  19.164  0.00  0.00    +0.000 A 
ATOM      7  C   UNL     1       0.721  10.939  20.509  0.00  0.00    +0.000 A 
ATOM      8 BR   UNL     1       0.051  12.535  21.279  0.00  0.00    +0.000 Br
ATOM      9  C   UNL     1       0.826   9.787  21.305  0.00  0.00    +0.000 A 
ATOM     10  C   UNL     1       1.286   8.617  20.684  0.00  0.00    +0.000 A 
ATOM     11  N   UNL     1       1.451   7.337  21.164  0.00  0.00    +0.000 N 
ATOM     12  H   UNL     1       1.263   7.036  22.112  0.00  0.00    +0.000 HD
ENDROOT
BRANCH   1  17
ATOM     13  O   UNL     1       6.322   4.528  18.501  0.00  0.00    +0.000 OA
ATOM     14  C   UNL     1       5.329   4.090  19.079  0.00  0.00    +0.000 C 
ATOM     15  C   UNL     1       4.311   5.008  19.766  0.00  0.00    +0.000 C 
ATOM     16  N   UNL     1       3.059   4.387  20.223  0.00  0.00    +0.000 N 
ATOM     17  C   UNL     1       1.823   5.030  20.304  0.00  0.00    +0.000 C 
ATOM     18  O   UNL     1       0.784   4.401  20.485  0.00  0.00    +0.000 OA
ATOM     19  C   UNL     1       3.185   3.007  20.683  0.00  0.00    +0.000 C 
ATOM     20  C   UNL     1       3.910   2.153  19.643  0.00  0.00    +0.000 C 
ATOM     21  N   UNL     1       5.167   2.739  19.230  0.00  0.00    +0.000 N 
ATOM     22  H   UNL     1       5.836   2.184  18.709  0.00  0.00    +0.000 HD
ENDBRANCH   1  17
TORSDOF 1
ENDMDL
MODEL 8
REMARK VINA RESULT:      -6.9      1.686      2.491
REMARK  Name = 
REMARK  1 active torsions:
REMARK  status: ('A' for Active; 'I' for Inactive)
REMARK    1  A    between atoms: C_5  and  C_7
REMARK                            x       y       z     vdW  Elec       q    Type
REMARK                         _______ _______ _______ _____ _____    ______ ____
ROOT
ATOM      1  C   UNL     1       2.128   6.100  20.150  0.00  0.00    +0.000 A 
ATOM      2  C   UNL     1       2.354   6.915  19.054  0.00  0.00    +0.000 A 
ATOM      3  C   UNL     1       1.832   8.198  19.335  0.00  0.00    +0.000 A 
ATOM      4  C   UNL     1       1.620   9.353  18.564  0.00  0.00    +0.000 A 
ATOM      5  F   UNL     1       1.929   9.357  17.259  0.00  0.00    +0.000 F 
ATOM      6  C   UNL     1       1.046  10.483  19.135  0.00  0.00    +0.000 A 
ATOM      7  C   UNL     1       0.711  10.471  20.485  0.00  0.00    +0.000 A 
ATOM      8 BR   UNL     1      -0.072  12.018  21.248  0.00  0.00    +0.000 Br
ATOM      9  C   UNL     1       0.923   9.343  21.294  0.00  0.00    +0.000 A 
ATOM     10  C   UNL     1       1.466   8.205  20.679  0.00  0.00    +0.000 A 
ATOM     11  N   UNL     1       1.741   6.949  21.172  0.00  0.00    +0.000 N 
ATOM     12  H   UNL     1       1.594   6.647  22.127  0.00  0.00    +0.000 HD
ENDROOT
BRANCH   1  17
ATOM     13  O   UNL     1       4.813   4.003  16.223  0.00  0.00    +0.000 OA
ATOM     14  C   UNL     1       4.373   3.611  17.302  0.00  0.00    +0.000 C 
ATOM     15  C   UNL     1       3.953   4.580  18.415  0.00  0.00    +0.000 C 
ATOM     16  N   UNL     1       3.237   4.002  19.562  0.00  0.00    +0.000 N 
ATOM     17  C   UNL     1       2.285   4.668  20.335  0.00  0.00    +0.000 C 
ATOM     18  O   UNL     1       1.573   4.066  21.134  0.00  0.00    +0.000 OA
ATOM     19  C   UNL     1       3.638   2.646  19.923  0.00  0.00    +0.000 C 
ATOM     20  C   UNL     1       3.611   1.728  18.702  0.00  0.00    +0.000 C 
ATOM     21  N   UNL     1       4.358   2.273  17.588  0.00  0.00    +0.000 N 
ATOM     22  H   UNL     1       4.592   1.681  16.799  0.00  0.00    +0.000 HD
ENDBRANCH   1  17
TORSDOF 1
ENDMDL
MODEL 9
REMARK VINA RESULT:      -6.8      1.729      3.011
REMARK  Name = 
REMARK  1 active torsions:
REMARK  status: ('A' for Active; 'I' for Inactive)
REMARK    1  A    between atoms: C_5  and  C_7
REMARK                            x       y       z     vdW  Elec       q    Type
REMARK                         _______ _______ _______ _____ _____    ______ ____
ROOT
ATOM      1  C   UNL     1       2.443   6.618  18.866  0.00  0.00    +0.000 A 
ATOM      2  C   UNL     1       2.352   7.909  18.372  0.00  0.00    +0.000 A 
ATOM      3  C   UNL     1       1.646   8.697  19.309  0.00  0.00    +0.000 A 
ATOM      4  C   UNL     1       1.113   9.997  19.281  0.00  0.00    +0.000 A 
ATOM      5  F   UNL     1       1.223  10.747  18.176  0.00  0.00    +0.000 F 
ATOM      6  C   UNL     1       0.427  10.498  20.382  0.00  0.00    +0.000 A 
ATOM      7  C   UNL     1       0.300   9.712  21.523  0.00  0.00    +0.000 A 
ATOM      8 BR   UNL     1      -0.640  10.408  23.014  0.00  0.00    +0.000 Br
ATOM      9  C   UNL     1       0.833   8.415  21.597  0.00  0.00    +0.000 A 
ATOM     10  C   UNL     1       1.483   7.923  20.456  0.00  0.00    +0.000 A 
ATOM     11  N   UNL     1       2.056   6.699  20.193  0.00  0.00    +0.000 N 
ATOM     12  H   UNL     1       2.108   5.922  20.840  0.00  0.00    +0.000 HD
ENDROOT
BRANCH   1  17
ATOM     13  O   UNL     1       7.632   6.299  18.879  0.00  0.00    +0.000 OA
ATOM     14  C   UNL     1       6.701   5.554  18.581  0.00  0.00    +0.000 C 
ATOM     15  C   UNL     1       5.264   5.809  19.056  0.00  0.00    +0.000 C 
ATOM     16  N   UNL     1       4.210   4.980  18.453  0.00  0.00    +0.000 N 
ATOM     17  C   UNL     1       2.888   5.381  18.251  0.00  0.00    +0.000 C 
ATOM     18  O   UNL     1       2.120   4.726  17.552  0.00  0.00    +0.000 OA
ATOM     19  C   UNL     1       4.609   3.616  18.119  0.00  0.00    +0.000 C 
ATOM     20  C   UNL     1       5.892   3.614  17.289  0.00  0.00    +0.000 C 
ATOM     21  N   UNL     1       6.948   4.389  17.907  0.00  0.00    +0.000 N 
ATOM     22  H   UNL     1       7.901   4.301  17.572  0.00  0.00    +0.000 HD
ENDBRANCH   1  17
TORSDOF 1
ENDMDL
