MODEL 1
REMARK VINA RESULT:      -7.5      0.000      0.000
REMARK  Name = 
REMARK  5 active torsions:
REMARK  status: ('A' for Active; 'I' for Inactive)
REMARK    1  A    between atoms: C_1  and  C_2
REMARK    2  A    between atoms: N_4  and  C_5
REMARK    3  A    between atoms: C_19  and  C_20
REMARK    4  A    between atoms: C_29  and  C_30
REMARK    5  A    between atoms: C_29  and  C_31
REMARK                            x       y       z     vdW  Elec       q    Type
REMARK                         _______ _______ _______ _____ _____    ______ ____
ROOT
ATOM      1  C   UNL     1      -2.646  15.797  20.821  0.00  0.00    +0.000 C 
ATOM      2  C   UNL     1      -1.423  15.012  20.520  0.00  0.00    +0.000 A 
ATOM      3  N   UNL     1      -0.253  15.643  20.305  0.00  0.00    +0.000 NA
ATOM      4  N   UNL     1       0.626  14.657  19.973  0.00  0.00    +0.000 N 
ATOM      5  C   UNL     1       0.024  13.417  20.048  0.00  0.00    +0.000 A 
ATOM      6  C   UNL     1      -1.284  13.603  20.444  0.00  0.00    +0.000 A 
ATOM      7  C   UNL     1      -2.160  12.410  20.691  0.00  0.00    +0.000 C 
ATOM      8  C   UNL     1      -2.990  12.637  21.915  0.00  0.00    +0.000 A 
ATOM      9  C   UNL     1      -2.344  12.687  23.142  0.00  0.00    +0.000 A 
ATOM     10  C   UNL     1      -3.028  13.059  24.292  0.00  0.00    +0.000 A 
ATOM     11  C   UNL     1      -4.415  13.241  24.243  0.00  0.00    +0.000 A 
ATOM     12  C   UNL     1      -5.128  13.021  23.056  0.00  0.00    +0.000 A 
ATOM     13  C   UNL     1      -6.595  13.043  22.956  0.00  0.00    +0.000 A 
ATOM     14  C   UNL     1      -7.480  13.484  24.084  0.00  0.00    +0.000 C 
ATOM     15  C   UNL     1      -7.158  12.616  21.815  0.00  0.00    +0.000 A 
ATOM     16  C   UNL     1      -6.389  12.191  20.638  0.00  0.00    +0.000 A 
ATOM     17  O   UNL     1      -6.943  11.710  19.659  0.00  0.00    +0.000 OA
ATOM     18  O   UNL     1      -5.027  12.411  20.688  0.00  0.00    +0.000 OA
ATOM     19  C   UNL     1      -4.386  12.726  21.905  0.00  0.00    +0.000 A 
ATOM     20  O   UNL     1      -1.019  12.383  23.230  0.00  0.00    +0.000 OA
ATOM     21  C   UNL     1      -0.633  11.275  22.391  0.00  0.00    +0.000 C 
ATOM     22  C   UNL     1      -1.252  11.191  20.957  0.00  0.00    +0.000 C 
ATOM     23  C   UNL     1      -0.161  11.099  19.837  0.00  0.00    +0.000 C 
ATOM     24  C   UNL     1       0.767   9.890  20.025  0.00  0.00    +0.000 C 
ATOM     25  C   UNL     1      -0.757  10.996  18.415  0.00  0.00    +0.000 C 
ATOM     26  O   UNL     1       0.680  12.267  19.867  0.00  0.00    +0.000 OA
ENDROOT
BRANCH   4  27
ATOM     27  C   UNL     1       1.993  14.902  19.668  0.00  0.00    +0.000 A 
ATOM     28  C   UNL     1       2.959  14.845  20.675  0.00  0.00    +0.000 A 
ATOM     29  C   UNL     1       4.314  14.901  20.328  0.00  0.00    +0.000 A 
ATOM     30  C   UNL     1       4.702  15.053  18.995  0.00  0.00    +0.000 A 
ATOM     31  C   UNL     1       3.738  15.182  18.000  0.00  0.00    +0.000 A 
ATOM     32  C   UNL     1       2.391  15.110  18.336  0.00  0.00    +0.000 A 
ENDBRANCH   4  27
TORSDOF 1
ENDMDL
MODEL 2
REMARK VINA RESULT:      -7.5      2.540      5.135
REMARK  Name = 
REMARK  5 active torsions:
REMARK  status: ('A' for Active; 'I' for Inactive)
REMARK    1  A    between atoms: C_1  and  C_2
REMARK    2  A    between atoms: N_4  and  C_5
REMARK    3  A    between atoms: C_19  and  C_20
REMARK    4  A    between atoms: C_29  and  C_30
REMARK    5  A    between atoms: C_29  and  C_31
REMARK                            x       y       z     vdW  Elec       q    Type
REMARK                         _______ _______ _______ _____ _____    ______ ____
ROOT
ATOM      1  C   UNL     1      -1.357  10.680  23.210  0.00  0.00    +0.000 C 
ATOM      2  C   UNL     1      -0.444  10.606  22.042  0.00  0.00    +0.000 A 
ATOM      3  N   UNL     1      -0.019   9.409  21.592  0.00  0.00    +0.000 NA
ATOM      4  N   UNL     1       0.857   9.697  20.590  0.00  0.00    +0.000 N 
ATOM      5  C   UNL     1       0.924  11.058  20.372  0.00  0.00    +0.000 A 
ATOM      6  C   UNL     1       0.063  11.672  21.257  0.00  0.00    +0.000 A 
ATOM      7  C   UNL     1      -0.132  13.159  21.189  0.00  0.00    +0.000 C 
ATOM      8  C   UNL     1      -1.580  13.488  21.374  0.00  0.00    +0.000 A 
ATOM      9  C   UNL     1      -2.468  13.109  20.378  0.00  0.00    +0.000 A 
ATOM     10  C   UNL     1      -3.839  13.233  20.562  0.00  0.00    +0.000 A 
ATOM     11  C   UNL     1      -4.328  13.884  21.701  0.00  0.00    +0.000 A 
ATOM     12  C   UNL     1      -3.452  14.442  22.643  0.00  0.00    +0.000 A 
ATOM     13  C   UNL     1      -3.878  15.268  23.782  0.00  0.00    +0.000 A 
ATOM     14  C   UNL     1      -5.319  15.451  24.159  0.00  0.00    +0.000 C 
ATOM     15  C   UNL     1      -2.933  15.910  24.487  0.00  0.00    +0.000 A 
ATOM     16  C   UNL     1      -1.494  15.778  24.226  0.00  0.00    +0.000 A 
ATOM     17  O   UNL     1      -0.676  16.463  24.825  0.00  0.00    +0.000 OA
ATOM     18  O   UNL     1      -1.126  14.814  23.309  0.00  0.00    +0.000 OA
ATOM     19  C   UNL     1      -2.081  14.221  22.455  0.00  0.00    +0.000 A 
ATOM     20  O   UNL     1      -2.002  12.594  19.206  0.00  0.00    +0.000 OA
ATOM     21  C   UNL     1      -0.810  13.252  18.731  0.00  0.00    +0.000 C 
ATOM     22  C   UNL     1       0.284  13.637  19.782  0.00  0.00    +0.000 C 
ATOM     23  C   UNL     1       1.691  13.050  19.427  0.00  0.00    +0.000 C 
ATOM     24  C   UNL     1       2.181  13.506  18.044  0.00  0.00    +0.000 C 
ATOM     25  C   UNL     1       2.786  13.438  20.446  0.00  0.00    +0.000 C 
ATOM     26  O   UNL     1       1.633  11.613  19.385  0.00  0.00    +0.000 OA
ENDROOT
BRANCH   4  27
ATOM     27  C   UNL     1       1.537   8.698  19.840  0.00  0.00    +0.000 A 
ATOM     28  C   UNL     1       1.937   7.509  20.452  0.00  0.00    +0.000 A 
ATOM     29  C   UNL     1       2.432   6.465  19.662  0.00  0.00    +0.000 A 
ATOM     30  C   UNL     1       2.565   6.619  18.281  0.00  0.00    +0.000 A 
ATOM     31  C   UNL     1       2.234   7.830  17.680  0.00  0.00    +0.000 A 
ATOM     32  C   UNL     1       1.726   8.864  18.457  0.00  0.00    +0.000 A 
ENDBRANCH   4  27
TORSDOF 1
ENDMDL
MODEL 3
REMARK VINA RESULT:      -7.5      2.763      5.318
REMARK  Name = 
REMARK  5 active torsions:
REMARK  status: ('A' for Active; 'I' for Inactive)
REMARK    1  A    between atoms: C_1  and  C_2
REMARK    2  A    between atoms: N_4  and  C_5
REMARK    3  A    between atoms: C_19  and  C_20
REMARK    4  A    between atoms: C_29  and  C_30
REMARK    5  A    between atoms: C_29  and  C_31
REMARK                            x       y       z     vdW  Elec       q    Type
REMARK                         _______ _______ _______ _____ _____    ______ ____
ROOT
ATOM      1  C   UNL     1      -1.559  11.328  23.296  0.00  0.00    +0.000 C 
ATOM      2  C   UNL     1      -0.597  11.256  22.168  0.00  0.00    +0.000 A 
ATOM      3  N   UNL     1      -0.373  10.081  21.547  0.00  0.00    +0.000 NA
ATOM      4  N   UNL     1       0.609  10.342  20.640  0.00  0.00    +0.000 N 
ATOM      5  C   UNL     1       0.944  11.681  20.649  0.00  0.00    +0.000 A 
ATOM      6  C   UNL     1       0.153  12.310  21.588  0.00  0.00    +0.000 A 
ATOM      7  C   UNL     1       0.243  13.799  21.754  0.00  0.00    +0.000 C 
ATOM      8  C   UNL     1      -1.128  14.371  21.933  0.00  0.00    +0.000 A 
ATOM      9  C   UNL     1      -1.999  14.328  20.855  0.00  0.00    +0.000 A 
ATOM     10  C   UNL     1      -3.333  14.688  21.003  0.00  0.00    +0.000 A 
ATOM     11  C   UNL     1      -3.770  15.241  22.212  0.00  0.00    +0.000 A 
ATOM     12  C   UNL     1      -2.873  15.467  23.266  0.00  0.00    +0.000 A 
ATOM     13  C   UNL     1      -3.216  16.179  24.506  0.00  0.00    +0.000 A 
ATOM     14  C   UNL     1      -4.620  16.579  24.852  0.00  0.00    +0.000 C 
ATOM     15  C   UNL     1      -2.220  16.509  25.343  0.00  0.00    +0.000 A 
ATOM     16  C   UNL     1      -0.816  16.141  25.120  0.00  0.00    +0.000 A 
ATOM     17  O   UNL     1       0.072  16.554  25.854  0.00  0.00    +0.000 OA
ATOM     18  O   UNL     1      -0.571  15.274  24.074  0.00  0.00    +0.000 OA
ATOM     19  C   UNL     1      -1.557  15.015  23.099  0.00  0.00    +0.000 A 
ATOM     20  O   UNL     1      -1.557  13.917  19.634  0.00  0.00    +0.000 OA
ATOM     21  C   UNL     1      -0.233  14.394  19.319  0.00  0.00    +0.000 C 
ATOM     22  C   UNL     1       0.837  14.395  20.461  0.00  0.00    +0.000 C 
ATOM     23  C   UNL     1       2.132  13.606  20.070  0.00  0.00    +0.000 C 
ATOM     24  C   UNL     1       2.793  14.163  18.800  0.00  0.00    +0.000 C 
ATOM     25  C   UNL     1       3.207  13.614  21.180  0.00  0.00    +0.000 C 
ATOM     26  O   UNL     1       1.811  12.231  19.793  0.00  0.00    +0.000 OA
ENDROOT
BRANCH   4  27
ATOM     27  C   UNL     1       1.142   9.356  19.764  0.00  0.00    +0.000 A 
ATOM     28  C   UNL     1       1.257   9.617  18.397  0.00  0.00    +0.000 A 
ATOM     29  C   UNL     1       1.954   8.716  17.584  0.00  0.00    +0.000 A 
ATOM     30  C   UNL     1       2.496   7.547  18.120  0.00  0.00    +0.000 A 
ATOM     31  C   UNL     1       2.320   7.251  19.468  0.00  0.00    +0.000 A 
ATOM     32  C   UNL     1       1.644   8.151  20.285  0.00  0.00    +0.000 A 
ENDBRANCH   4  27
TORSDOF 1
ENDMDL
MODEL 4
REMARK VINA RESULT:      -7.2      2.569      7.459
REMARK  Name = 
REMARK  5 active torsions:
REMARK  status: ('A' for Active; 'I' for Inactive)
REMARK    1  A    between atoms: C_1  and  C_2
REMARK    2  A    between atoms: N_4  and  C_5
REMARK    3  A    between atoms: C_19  and  C_20
REMARK    4  A    between atoms: C_29  and  C_30
REMARK    5  A    between atoms: C_29  and  C_31
REMARK                            x       y       z     vdW  Elec       q    Type
REMARK                         _______ _______ _______ _____ _____    ______ ____
ROOT
ATOM      1  C   UNL     1      -3.075  11.777  18.663  0.00  0.00    +0.000 C 
ATOM      2  C   UNL     1      -3.415  12.485  19.923  0.00  0.00    +0.000 A 
ATOM      3  N   UNL     1      -4.703  12.626  20.290  0.00  0.00    +0.000 NA
ATOM      4  N   UNL     1      -4.668  13.384  21.421  0.00  0.00    +0.000 N 
ATOM      5  C   UNL     1      -3.366  13.654  21.791  0.00  0.00    +0.000 A 
ATOM      6  C   UNL     1      -2.530  13.050  20.875  0.00  0.00    +0.000 A 
ATOM      7  C   UNL     1      -1.044  13.107  21.078  0.00  0.00    +0.000 C 
ATOM      8  C   UNL     1      -0.437  11.780  20.747  0.00  0.00    +0.000 A 
ATOM      9  C   UNL     1      -0.726  10.705  21.575  0.00  0.00    +0.000 A 
ATOM     10  C   UNL     1      -0.333   9.417  21.233  0.00  0.00    +0.000 A 
ATOM     11  C   UNL     1       0.490   9.218  20.118  0.00  0.00    +0.000 A 
ATOM     12  C   UNL     1       0.950  10.305  19.361  0.00  0.00    +0.000 A 
ATOM     13  C   UNL     1       1.934  10.197  18.273  0.00  0.00    +0.000 A 
ATOM     14  C   UNL     1       2.412   8.880  17.738  0.00  0.00    +0.000 C 
ATOM     15  C   UNL     1       2.444  11.331  17.767  0.00  0.00    +0.000 A 
ATOM     16  C   UNL     1       2.026  12.672  18.193  0.00  0.00    +0.000 A 
ATOM     17  O   UNL     1       2.594  13.674  17.780  0.00  0.00    +0.000 OA
ATOM     18  O   UNL     1       0.937  12.731  19.040  0.00  0.00    +0.000 OA
ATOM     19  C   UNL     1       0.464  11.575  19.696  0.00  0.00    +0.000 A 
ATOM     20  O   UNL     1      -1.414  10.900  22.735  0.00  0.00    +0.000 OA
ATOM     21  C   UNL     1      -1.031  12.107  23.426  0.00  0.00    +0.000 C 
ATOM     22  C   UNL     1      -0.770  13.391  22.570  0.00  0.00    +0.000 C 
ATOM     23  C   UNL     1      -1.637  14.609  23.036  0.00  0.00    +0.000 C 
ATOM     24  C   UNL     1      -1.396  14.965  24.511  0.00  0.00    +0.000 C 
ATOM     25  C   UNL     1      -1.377  15.891  22.213  0.00  0.00    +0.000 C 
ATOM     26  O   UNL     1      -3.037  14.298  22.915  0.00  0.00    +0.000 OA
ENDROOT
BRANCH   4  27
ATOM     27  C   UNL     1      -5.834  13.766  22.140  0.00  0.00    +0.000 A 
ATOM     28  C   UNL     1      -6.360  12.926  23.124  0.00  0.00    +0.000 A 
ATOM     29  C   UNL     1      -7.389  13.397  23.948  0.00  0.00    +0.000 A 
ATOM     30  C   UNL     1      -7.917  14.677  23.766  0.00  0.00    +0.000 A 
ATOM     31  C   UNL     1      -7.442  15.486  22.739  0.00  0.00    +0.000 A 
ATOM     32  C   UNL     1      -6.408  15.031  21.928  0.00  0.00    +0.000 A 
ENDBRANCH   4  27
TORSDOF 1
ENDMDL
MODEL 5
REMARK VINA RESULT:      -7.0      2.145      7.709
REMARK  Name = 
REMARK  5 active torsions:
REMARK  status: ('A' for Active; 'I' for Inactive)
REMARK    1  A    between atoms: C_1  and  C_2
REMARK    2  A    between atoms: N_4  and  C_5
REMARK    3  A    between atoms: C_19  and  C_20
REMARK    4  A    between atoms: C_29  and  C_30
REMARK    5  A    between atoms: C_29  and  C_31
REMARK                            x       y       z     vdW  Elec       q    Type
REMARK                         _______ _______ _______ _____ _____    ______ ____
ROOT
ATOM      1  C   UNL     1      -0.204  15.811  20.860  0.00  0.00    +0.000 C 
ATOM      2  C   UNL     1      -0.896  14.500  20.781  0.00  0.00    +0.000 A 
ATOM      3  N   UNL     1      -2.212  14.448  20.495  0.00  0.00    +0.000 NA
ATOM      4  N   UNL     1      -2.543  13.130  20.588  0.00  0.00    +0.000 N 
ATOM      5  C   UNL     1      -1.429  12.362  20.859  0.00  0.00    +0.000 A 
ATOM      6  C   UNL     1      -0.341  13.206  20.943  0.00  0.00    +0.000 A 
ATOM      7  C   UNL     1       1.029  12.629  21.149  0.00  0.00    +0.000 C 
ATOM      8  C   UNL     1       2.016  13.353  20.288  0.00  0.00    +0.000 A 
ATOM      9  C   UNL     1       1.922  13.196  18.913  0.00  0.00    +0.000 A 
ATOM     10  C   UNL     1       2.696  13.966  18.054  0.00  0.00    +0.000 A 
ATOM     11  C   UNL     1       3.688  14.803  18.579  0.00  0.00    +0.000 A 
ATOM     12  C   UNL     1       3.933  14.849  19.958  0.00  0.00    +0.000 A 
ATOM     13  C   UNL     1       5.050  15.581  20.576  0.00  0.00    +0.000 A 
ATOM     14  C   UNL     1       5.940  16.508  19.802  0.00  0.00    +0.000 C 
ATOM     15  C   UNL     1       5.295  15.379  21.880  0.00  0.00    +0.000 A 
ATOM     16  C   UNL     1       4.470  14.520  22.738  0.00  0.00    +0.000 A 
ATOM     17  O   UNL     1       4.792  14.281  23.895  0.00  0.00    +0.000 OA
ATOM     18  O   UNL     1       3.300  14.043  22.181  0.00  0.00    +0.000 OA
ATOM     19  C   UNL     1       3.076  14.117  20.790  0.00  0.00    +0.000 A 
ATOM     20  O   UNL     1       1.053  12.289  18.386  0.00  0.00    +0.000 OA
ATOM     21  C   UNL     1       0.991  11.060  19.137  0.00  0.00    +0.000 C 
ATOM     22  C   UNL     1       1.005  11.153  20.699  0.00  0.00    +0.000 C 
ATOM     23  C   UNL     1      -0.218  10.428  21.356  0.00  0.00    +0.000 C 
ATOM     24  C   UNL     1      -0.291   8.944  20.970  0.00  0.00    +0.000 C 
ATOM     25  C   UNL     1      -0.207  10.496  22.900  0.00  0.00    +0.000 C 
ATOM     26  O   UNL     1      -1.448  11.026  20.908  0.00  0.00    +0.000 OA
ENDROOT
BRANCH   4  27
ATOM     27  C   UNL     1      -3.857  12.639  20.354  0.00  0.00    +0.000 A 
ATOM     28  C   UNL     1      -4.831  12.735  21.351  0.00  0.00    +0.000 A 
ATOM     29  C   UNL     1      -6.160  12.423  21.042  0.00  0.00    +0.000 A 
ATOM     30  C   UNL     1      -6.508  11.980  19.764  0.00  0.00    +0.000 A 
ATOM     31  C   UNL     1      -5.526  11.815  18.792  0.00  0.00    +0.000 A 
ATOM     32  C   UNL     1      -4.207  12.141  19.088  0.00  0.00    +0.000 A 
ENDBRANCH   4  27
TORSDOF 1
ENDMDL
MODEL 6
REMARK VINA RESULT:      -6.6      2.432      7.975
REMARK  Name = 
REMARK  5 active torsions:
REMARK  status: ('A' for Active; 'I' for Inactive)
REMARK    1  A    between atoms: C_1  and  C_2
REMARK    2  A    between atoms: N_4  and  C_5
REMARK    3  A    between atoms: C_19  and  C_20
REMARK    4  A    between atoms: C_29  and  C_30
REMARK    5  A    between atoms: C_29  and  C_31
REMARK                            x       y       z     vdW  Elec       q    Type
REMARK                         _______ _______ _______ _____ _____    ______ ____
ROOT
ATOM      1  C   UNL     1      -0.746  13.121  18.929  0.00  0.00    +0.000 C 
ATOM      2  C   UNL     1      -1.538  13.625  20.079  0.00  0.00    +0.000 A 
ATOM      3  N   UNL     1      -2.507  12.859  20.618  0.00  0.00    +0.000 NA
ATOM      4  N   UNL     1      -3.084  13.639  21.574  0.00  0.00    +0.000 N 
ATOM      5  C   UNL     1      -2.435  14.853  21.676  0.00  0.00    +0.000 A 
ATOM      6  C   UNL     1      -1.403  14.861  20.761  0.00  0.00    +0.000 A 
ATOM      7  C   UNL     1      -0.468  16.034  20.708  0.00  0.00    +0.000 C 
ATOM      8  C   UNL     1       0.938  15.552  20.528  0.00  0.00    +0.000 A 
ATOM      9  C   UNL     1       1.528  14.853  21.570  0.00  0.00    +0.000 A 
ATOM     10  C   UNL     1       2.762  14.237  21.406  0.00  0.00    +0.000 A 
ATOM     11  C   UNL     1       3.488  14.446  20.227  0.00  0.00    +0.000 A 
ATOM     12  C   UNL     1       3.001  15.296  19.224  0.00  0.00    +0.000 A 
ATOM     13  C   UNL     1       3.764  15.687  18.029  0.00  0.00    +0.000 A 
ATOM     14  C   UNL     1       5.082  15.069  17.669  0.00  0.00    +0.000 C 
ATOM     15  C   UNL     1       3.267  16.663  17.252  0.00  0.00    +0.000 A 
ATOM     16  C   UNL     1       1.974  17.314  17.493  0.00  0.00    +0.000 A 
ATOM     17  O   UNL     1       1.610  18.271  16.822  0.00  0.00    +0.000 OA
ATOM     18  O   UNL     1       1.184  16.757  18.480  0.00  0.00    +0.000 OA
ATOM     19  C   UNL     1       1.718  15.830  19.400  0.00  0.00    +0.000 A 
ATOM     20  O   UNL     1       0.893  14.751  22.771  0.00  0.00    +0.000 OA
ATOM     21  C   UNL     1       0.222  15.966  23.164  0.00  0.00    +0.000 C 
ATOM     22  C   UNL     1      -0.542  16.771  22.062  0.00  0.00    +0.000 C 
ATOM     23  C   UNL     1      -2.042  17.026  22.435  0.00  0.00    +0.000 C 
ATOM     24  C   UNL     1      -2.191  17.781  23.764  0.00  0.00    +0.000 C 
ATOM     25  C   UNL     1      -2.805  17.837  21.364  0.00  0.00    +0.000 C 
ATOM     26  O   UNL     1      -2.732  15.774  22.598  0.00  0.00    +0.000 OA
ENDROOT
BRANCH   4  27
ATOM     27  C   UNL     1      -4.162  13.201  22.390  0.00  0.00    +0.000 A 
ATOM     28  C   UNL     1      -3.914  12.676  23.661  0.00  0.00    +0.000 A 
ATOM     29  C   UNL     1      -4.990  12.427  24.521  0.00  0.00    +0.000 A 
ATOM     30  C   UNL     1      -6.303  12.660  24.104  0.00  0.00    +0.000 A 
ATOM     31  C   UNL     1      -6.554  13.114  22.813  0.00  0.00    +0.000 A 
ATOM     32  C   UNL     1      -5.488  13.380  21.960  0.00  0.00    +0.000 A 
ENDBRANCH   4  27
TORSDOF 1
ENDMDL
MODEL 7
REMARK VINA RESULT:      -6.6      2.046      7.659
REMARK  Name = 
REMARK  5 active torsions:
REMARK  status: ('A' for Active; 'I' for Inactive)
REMARK    1  A    between atoms: C_1  and  C_2
REMARK    2  A    between atoms: N_4  and  C_5
REMARK    3  A    between atoms: C_19  and  C_20
REMARK    4  A    between atoms: C_29  and  C_30
REMARK    5  A    between atoms: C_29  and  C_31
REMARK                            x       y       z     vdW  Elec       q    Type
REMARK                         _______ _______ _______ _____ _____    ______ ____
ROOT
ATOM      1  C   UNL     1      -0.317  15.709  22.891  0.00  0.00    +0.000 C 
ATOM      2  C   UNL     1      -1.119  14.643  22.240  0.00  0.00    +0.000 A 
ATOM      3  N   UNL     1      -2.457  14.615  22.397  0.00  0.00    +0.000 NA
ATOM      4  N   UNL     1      -2.864  13.482  21.759  0.00  0.00    +0.000 N 
ATOM      5  C   UNL     1      -1.799  12.850  21.152  0.00  0.00    +0.000 A 
ATOM      6  C   UNL     1      -0.665  13.595  21.400  0.00  0.00    +0.000 A 
ATOM      7  C   UNL     1       0.641  13.184  20.785  0.00  0.00    +0.000 C 
ATOM      8  C   UNL     1       1.374  14.395  20.299  0.00  0.00    +0.000 A 
ATOM      9  C   UNL     1       0.841  15.094  19.226  0.00  0.00    +0.000 A 
ATOM     10  C   UNL     1       1.377  16.314  18.834  0.00  0.00    +0.000 A 
ATOM     11  C   UNL     1       2.557  16.774  19.430  0.00  0.00    +0.000 A 
ATOM     12  C   UNL     1       3.224  16.005  20.394  0.00  0.00    +0.000 A 
ATOM     13  C   UNL     1       4.540  16.342  20.955  0.00  0.00    +0.000 A 
ATOM     14  C   UNL     1       5.228  17.647  20.687  0.00  0.00    +0.000 C 
ATOM     15  C   UNL     1       5.160  15.422  21.712  0.00  0.00    +0.000 A 
ATOM     16  C   UNL     1       4.567  14.126  22.064  0.00  0.00    +0.000 A 
ATOM     17  O   UNL     1       5.210  13.277  22.667  0.00  0.00    +0.000 OA
ATOM     18  O   UNL     1       3.243  13.946  21.718  0.00  0.00    +0.000 OA
ATOM     19  C   UNL     1       2.604  14.821  20.813  0.00  0.00    +0.000 A 
ATOM     20  O   UNL     1      -0.230  14.595  18.548  0.00  0.00    +0.000 OA
ATOM     21  C   UNL     1      -0.170  13.165  18.365  0.00  0.00    +0.000 C 
ATOM     22  C   UNL     1       0.340  12.294  19.561  0.00  0.00    +0.000 C 
ATOM     23  C   UNL     1      -0.680  11.177  19.967  0.00  0.00    +0.000 C 
ATOM     24  C   UNL     1      -1.009  10.235  18.800  0.00  0.00    +0.000 C 
ATOM     25  C   UNL     1      -0.182  10.295  21.135  0.00  0.00    +0.000 C 
ATOM     26  O   UNL     1      -1.927  11.768  20.377  0.00  0.00    +0.000 OA
ENDROOT
BRANCH   4  27
ATOM     27  C   UNL     1      -4.225  13.078  21.685  0.00  0.00    +0.000 A 
ATOM     28  C   UNL     1      -5.012  13.041  22.838  0.00  0.00    +0.000 A 
ATOM     29  C   UNL     1      -6.390  12.825  22.721  0.00  0.00    +0.000 A 
ATOM     30  C   UNL     1      -6.972  12.607  21.470  0.00  0.00    +0.000 A 
ATOM     31  C   UNL     1      -6.178  12.572  20.329  0.00  0.00    +0.000 A 
ATOM     32  C   UNL     1      -4.811  12.803  20.437  0.00  0.00    +0.000 A 
ENDBRANCH   4  27
TORSDOF 1
ENDMDL
MODEL 8
REMARK VINA RESULT:      -6.5      1.046      1.406
REMARK  Name = 
REMARK  5 active torsions:
REMARK  status: ('A' for Active; 'I' for Inactive)
REMARK    1  A    between atoms: C_1  and  C_2
REMARK    2  A    between atoms: N_4  and  C_5
REMARK    3  A    between atoms: C_19  and  C_20
REMARK    4  A    between atoms: C_29  and  C_30
REMARK    5  A    between atoms: C_29  and  C_31
REMARK                            x       y       z     vdW  Elec       q    Type
REMARK                         _______ _______ _______ _____ _____    ______ ____
ROOT
ATOM      1  C   UNL     1      -2.395  16.185  22.212  0.00  0.00    +0.000 C 
ATOM      2  C   UNL     1      -1.257  15.433  21.625  0.00  0.00    +0.000 A 
ATOM      3  N   UNL     1      -0.007  15.928  21.709  0.00  0.00    +0.000 NA
ATOM      4  N   UNL     1       0.768  15.056  21.006  0.00  0.00    +0.000 N 
ATOM      5  C   UNL     1       0.018  13.992  20.547  0.00  0.00    +0.000 A 
ATOM      6  C   UNL     1      -1.283  14.177  20.968  0.00  0.00    +0.000 A 
ATOM      7  C   UNL     1      -2.311  13.122  20.681  0.00  0.00    +0.000 C 
ATOM      8  C   UNL     1      -3.191  12.935  21.878  0.00  0.00    +0.000 A 
ATOM      9  C   UNL     1      -2.630  12.385  23.021  0.00  0.00    +0.000 A 
ATOM     10  C   UNL     1      -3.343  12.339  24.212  0.00  0.00    +0.000 A 
ATOM     11  C   UNL     1      -4.691  12.715  24.226  0.00  0.00    +0.000 A 
ATOM     12  C   UNL     1      -5.342  13.106  23.047  0.00  0.00    +0.000 A 
ATOM     13  C   UNL     1      -6.785  13.369  22.946  0.00  0.00    +0.000 A 
ATOM     14  C   UNL     1      -7.686  13.423  24.144  0.00  0.00    +0.000 C 
ATOM     15  C   UNL     1      -7.314  13.534  21.724  0.00  0.00    +0.000 A 
ATOM     16  C   UNL     1      -6.522  13.532  20.488  0.00  0.00    +0.000 A 
ATOM     17  O   UNL     1      -7.060  13.580  19.390  0.00  0.00    +0.000 OA
ATOM     18  O   UNL     1      -5.150  13.521  20.642  0.00  0.00    +0.000 OA
ATOM     19  C   UNL     1      -4.562  13.213  21.888  0.00  0.00    +0.000 A 
ATOM     20  O   UNL     1      -1.361  11.891  22.991  0.00  0.00    +0.000 OA
ATOM     21  C   UNL     1      -1.054  11.187  21.770  0.00  0.00    +0.000 C 
ATOM     22  C   UNL     1      -1.577  11.789  20.424  0.00  0.00    +0.000 C 
ATOM     23  C   UNL     1      -0.430  12.019  19.383  0.00  0.00    +0.000 C 
ATOM     24  C   UNL     1       0.330  10.724  19.059  0.00  0.00    +0.000 C 
ATOM     25  C   UNL     1      -0.934  12.596  18.041  0.00  0.00    +0.000 C 
ATOM     26  O   UNL     1       0.541  12.941  19.909  0.00  0.00    +0.000 OA
ENDROOT
BRANCH   4  27
ATOM     27  C   UNL     1       2.172  15.214  20.850  0.00  0.00    +0.000 A 
ATOM     28  C   UNL     1       2.692  15.771  19.679  0.00  0.00    +0.000 A 
ATOM     29  C   UNL     1       4.053  16.092  19.619  0.00  0.00    +0.000 A 
ATOM     30  C   UNL     1       4.896  15.823  20.700  0.00  0.00    +0.000 A 
ATOM     31  C   UNL     1       4.393  15.202  21.838  0.00  0.00    +0.000 A 
ATOM     32  C   UNL     1       3.038  14.896  21.911  0.00  0.00    +0.000 A 
ENDBRANCH   4  27
TORSDOF 1
ENDMDL
MODEL 9
REMARK VINA RESULT:      -6.4      1.246      1.584
REMARK  Name = 
REMARK  5 active torsions:
REMARK  status: ('A' for Active; 'I' for Inactive)
REMARK    1  A    between atoms: C_1  and  C_2
REMARK    2  A    between atoms: N_4  and  C_5
REMARK    3  A    between atoms: C_19  and  C_20
REMARK    4  A    between atoms: C_29  and  C_30
REMARK    5  A    between atoms: C_29  and  C_31
REMARK                            x       y       z     vdW  Elec       q    Type
REMARK                         _______ _______ _______ _____ _____    ______ ____
ROOT
ATOM      1  C   UNL     1      -2.093  15.722  20.206  0.00  0.00    +0.000 C 
ATOM      2  C   UNL     1      -0.854  14.957  20.497  0.00  0.00    +0.000 A 
ATOM      3  N   UNL     1       0.305  15.609  20.715  0.00  0.00    +0.000 NA
ATOM      4  N   UNL     1       1.240  14.629  20.858  0.00  0.00    +0.000 N 
ATOM      5  C   UNL     1       0.657  13.380  20.798  0.00  0.00    +0.000 A 
ATOM      6  C   UNL     1      -0.699  13.553  20.613  0.00  0.00    +0.000 A 
ATOM      7  C   UNL     1      -1.604  12.355  20.595  0.00  0.00    +0.000 C 
ATOM      8  C   UNL     1      -2.857  12.657  21.355  0.00  0.00    +0.000 A 
ATOM      9  C   UNL     1      -2.763  12.834  22.727  0.00  0.00    +0.000 A 
ATOM     10  C   UNL     1      -3.853  13.278  23.465  0.00  0.00    +0.000 A 
ATOM     11  C   UNL     1      -5.101  13.407  22.844  0.00  0.00    +0.000 A 
ATOM     12  C   UNL     1      -5.274  13.062  21.496  0.00  0.00    +0.000 A 
ATOM     13  C   UNL     1      -6.575  13.023  20.812  0.00  0.00    +0.000 A 
ATOM     14  C   UNL     1      -7.839  13.528  21.442  0.00  0.00    +0.000 C 
ATOM     15  C   UNL     1      -6.629  12.481  19.585  0.00  0.00    +0.000 A 
ATOM     16  C   UNL     1      -5.451  11.985  18.863  0.00  0.00    +0.000 A 
ATOM     17  O   UNL     1      -5.561  11.403  17.792  0.00  0.00    +0.000 OA
ATOM     18  O   UNL     1      -4.224  12.255  19.437  0.00  0.00    +0.000 OA
ATOM     19  C   UNL     1      -4.130  12.696  20.775  0.00  0.00    +0.000 A 
ATOM     20  O   UNL     1      -1.587  12.585  23.370  0.00  0.00    +0.000 OA
ATOM     21  C   UNL     1      -0.898  11.423  22.864  0.00  0.00    +0.000 C 
ATOM     22  C   UNL     1      -0.884  11.196  21.316  0.00  0.00    +0.000 C 
ATOM     23  C   UNL     1       0.567  11.047  20.744  0.00  0.00    +0.000 C 
ATOM     24  C   UNL     1       1.336   9.892  21.401  0.00  0.00    +0.000 C 
ATOM     25  C   UNL     1       0.597  10.803  19.219  0.00  0.00    +0.000 C 
ATOM     26  O   UNL     1       1.327  12.242  21.003  0.00  0.00    +0.000 OA
ENDROOT
BRANCH   4  27
ATOM     27  C   UNL     1       2.614  14.895  21.109  0.00  0.00    +0.000 A 
ATOM     28  C   UNL     1       3.047  15.197  22.402  0.00  0.00    +0.000 A 
ATOM     29  C   UNL     1       4.420  15.269  22.665  0.00  0.00    +0.000 A 
ATOM     30  C   UNL     1       5.352  15.082  21.641  0.00  0.00    +0.000 A 
ATOM     31  C   UNL     1       4.919  14.853  20.339  0.00  0.00    +0.000 A 
ATOM     32  C   UNL     1       3.557  14.763  20.074  0.00  0.00    +0.000 A 
ENDBRANCH   4  27
TORSDOF 1
ENDMDL
