MODEL 1
REMARK VINA RESULT:      -7.7      0.000      0.000
REMARK  Name = 
REMARK  8 active torsions:
REMARK  status: ('A' for Active; 'I' for Inactive)
REMARK    1  A    between atoms: C_1  and  O_2
REMARK    2  A    between atoms: O_2  and  C_3
REMARK    3  A    between atoms: C_3  and  C_5
REMARK    4  A    between atoms: C_10  and  N_11
REMARK    5  A    between atoms: C_12  and  C_14
REMARK    6  A    between atoms: C_14  and  C_15
REMARK    7  A    between atoms: C_15  and  O_16
REMARK    8  A    between atoms: O_16  and  C_17
REMARK                            x       y       z     vdW  Elec       q    Type
REMARK                         _______ _______ _______ _____ _____    ______ ____
ROOT
ATOM      1  N   UNL     1       4.801   3.679  18.572  0.00  0.00    +0.000 N 
ATOM      2  C   UNL     1       5.903   4.480  18.811  0.00  0.00    +0.000 C 
ATOM      3  O   UNL     1       6.152   5.049  19.874  0.00  0.00    +0.000 OA
ATOM      4  H   UNL     1       4.822   3.096  17.736  0.00  0.00    +0.000 HD
ENDROOT
BRANCH   1  10
ATOM      5  C   UNL     1       2.414   3.940  19.129  0.00  0.00    +0.000 A 
ATOM      6  C   UNL     1       1.326   3.636  19.973  0.00  0.00    +0.000 A 
ATOM      7  C   UNL     1       1.504   2.879  21.128  0.00  0.00    +0.000 A 
ATOM      8  C   UNL     1       2.774   2.432  21.460  0.00  0.00    +0.000 A 
ATOM      9  C   UNL     1       3.860   2.723  20.630  0.00  0.00    +0.000 A 
ATOM     10  C   UNL     1       3.702   3.451  19.440  0.00  0.00    +0.000 A 
BRANCH   5  11
ATOM     11  C   UNL     1       2.060   4.733  17.920  0.00  0.00    +0.000 C 
ATOM     12  O   UNL     1       1.088   4.482  17.223  0.00  0.00    +0.000 OA
BRANCH  11  14
ATOM     13  C   UNL     1       2.622   6.873  18.643  0.00  0.00    +0.000 C 
ATOM     14  O   UNL     1       2.895   5.788  17.747  0.00  0.00    +0.000 OA
ENDBRANCH  11  14
ENDBRANCH   5  11
ENDBRANCH   1  10
BRANCH   2  15
ATOM     15  C   UNL     1       6.898   4.632  17.672  0.00  0.00    +0.000 C 
BRANCH  15  16
ATOM     16  C   UNL     1       6.539   5.635  16.590  0.00  0.00    +0.000 C 
BRANCH  16  17
ATOM     17  O   UNL     1       7.436   5.527  15.478  0.00  0.00    +0.000 OA
BRANCH  17  18
ATOM     18  C   UNL     1       6.967   4.900  14.356  0.00  0.00    +0.000 A 
ATOM     19  C   UNL     1       7.733   5.069  13.199  0.00  0.00    +0.000 A 
ATOM     20  C   UNL     1       7.361   4.441  12.007  0.00  0.00    +0.000 A 
ATOM     21  C   UNL     1       6.226   3.633  11.973  0.00  0.00    +0.000 A 
ATOM     22  C   UNL     1       5.473   3.449  13.126  0.00  0.00    +0.000 A 
ATOM     23  C   UNL     1       5.844   4.077  14.321  0.00  0.00    +0.000 A 
ENDBRANCH  17  18
ENDBRANCH  16  17
ENDBRANCH  15  16
ENDBRANCH   2  15
TORSDOF 7
ENDMDL
MODEL 2
REMARK VINA RESULT:      -7.5      0.260      1.051
REMARK  Name = 
REMARK  8 active torsions:
REMARK  status: ('A' for Active; 'I' for Inactive)
REMARK    1  A    between atoms: C_1  and  O_2
REMARK    2  A    between atoms: O_2  and  C_3
REMARK    3  A    between atoms: C_3  and  C_5
REMARK    4  A    between atoms: C_10  and  N_11
REMARK    5  A    between atoms: C_12  and  C_14
REMARK    6  A    between atoms: C_14  and  C_15
REMARK    7  A    between atoms: C_15  and  O_16
REMARK    8  A    between atoms: O_16  and  C_17
REMARK                            x       y       z     vdW  Elec       q    Type
REMARK                         _______ _______ _______ _____ _____    ______ ____
ROOT
ATOM      1  N   UNL     1       4.688   3.544  18.554  0.00  0.00    +0.000 N 
ATOM      2  C   UNL     1       5.634   4.552  18.590  0.00  0.00    +0.000 C 
ATOM      3  O   UNL     1       5.729   5.408  19.470  0.00  0.00    +0.000 OA
ATOM      4  H   UNL     1       4.848   2.778  17.901  0.00  0.00    +0.000 HD
ENDROOT
BRANCH   1  10
ATOM      5  C   UNL     1       2.308   3.858  19.115  0.00  0.00    +0.000 A 
ATOM      6  C   UNL     1       1.222   3.601  19.977  0.00  0.00    +0.000 A 
ATOM      7  C   UNL     1       1.398   2.889  21.160  0.00  0.00    +0.000 A 
ATOM      8  C   UNL     1       2.664   2.440  21.503  0.00  0.00    +0.000 A 
ATOM      9  C   UNL     1       3.748   2.683  20.655  0.00  0.00    +0.000 A 
ATOM     10  C   UNL     1       3.592   3.365  19.438  0.00  0.00    +0.000 A 
BRANCH   5  11
ATOM     11  C   UNL     1       1.957   4.606  17.877  0.00  0.00    +0.000 C 
ATOM     12  O   UNL     1       1.005   4.309  17.170  0.00  0.00    +0.000 OA
BRANCH  11  14
ATOM     13  C   UNL     1       2.518   6.740  18.618  0.00  0.00    +0.000 C 
ATOM     14  O   UNL     1       2.767   5.677  17.689  0.00  0.00    +0.000 OA
ENDBRANCH  11  14
ENDBRANCH   5  11
ENDBRANCH   1  10
BRANCH   2  15
ATOM     15  C   UNL     1       6.655   4.573  17.464  0.00  0.00    +0.000 C 
BRANCH  15  16
ATOM     16  C   UNL     1       6.622   5.780  16.543  0.00  0.00    +0.000 C 
BRANCH  16  17
ATOM     17  O   UNL     1       7.546   5.618  15.460  0.00  0.00    +0.000 OA
BRANCH  17  18
ATOM     18  C   UNL     1       7.108   4.925  14.365  0.00  0.00    +0.000 A 
ATOM     19  C   UNL     1       5.877   4.277  14.506  0.00  0.00    +0.000 A 
ATOM     20  C   UNL     1       5.323   3.572  13.434  0.00  0.00    +0.000 A 
ATOM     21  C   UNL     1       5.995   3.521  12.215  0.00  0.00    +0.000 A 
ATOM     22  C   UNL     1       7.209   4.179  12.066  0.00  0.00    +0.000 A 
ATOM     23  C   UNL     1       7.766   4.887  13.137  0.00  0.00    +0.000 A 
ENDBRANCH  17  18
ENDBRANCH  16  17
ENDBRANCH  15  16
ENDBRANCH   2  15
TORSDOF 7
ENDMDL
MODEL 3
REMARK VINA RESULT:      -7.5      1.042      1.235
REMARK  Name = 
REMARK  8 active torsions:
REMARK  status: ('A' for Active; 'I' for Inactive)
REMARK    1  A    between atoms: C_1  and  O_2
REMARK    2  A    between atoms: O_2  and  C_3
REMARK    3  A    between atoms: C_3  and  C_5
REMARK    4  A    between atoms: C_10  and  N_11
REMARK    5  A    between atoms: C_12  and  C_14
REMARK    6  A    between atoms: C_14  and  C_15
REMARK    7  A    between atoms: C_15  and  O_16
REMARK    8  A    between atoms: O_16  and  C_17
REMARK                            x       y       z     vdW  Elec       q    Type
REMARK                         _______ _______ _______ _____ _____    ______ ____
ROOT
ATOM      1  N   UNL     1       5.045   4.353  18.500  0.00  0.00    +0.000 N 
ATOM      2  C   UNL     1       6.271   4.928  18.784  0.00  0.00    +0.000 C 
ATOM      3  O   UNL     1       6.633   5.319  19.893  0.00  0.00    +0.000 OA
ATOM      4  H   UNL     1       4.950   3.877  17.603  0.00  0.00    +0.000 HD
ENDROOT
BRANCH   1  10
ATOM      5  C   UNL     1       2.958   5.214  19.490  0.00  0.00    +0.000 A 
ATOM      6  C   UNL     1       1.835   5.011  20.317  0.00  0.00    +0.000 A 
ATOM      7  C   UNL     1       1.690   3.838  21.054  0.00  0.00    +0.000 A 
ATOM      8  C   UNL     1       2.674   2.864  20.983  0.00  0.00    +0.000 A 
ATOM      9  C   UNL     1       3.790   3.051  20.163  0.00  0.00    +0.000 A 
ATOM     10  C   UNL     1       3.942   4.207  19.381  0.00  0.00    +0.000 A 
BRANCH   5  11
ATOM     11  C   UNL     1       2.956   6.504  18.745  0.00  0.00    +0.000 C 
ATOM     12  O   UNL     1       3.576   6.670  17.705  0.00  0.00    +0.000 OA
BRANCH  11  14
ATOM     13  C   UNL     1       2.006   8.620  18.553  0.00  0.00    +0.000 C 
ATOM     14  O   UNL     1       2.135   7.416  19.321  0.00  0.00    +0.000 OA
ENDBRANCH  11  14
ENDBRANCH   5  11
ENDBRANCH   1  10
BRANCH   2  15
ATOM     15  C   UNL     1       7.253   5.050  17.630  0.00  0.00    +0.000 C 
BRANCH  15  16
ATOM     16  C   UNL     1       6.809   5.896  16.450  0.00  0.00    +0.000 C 
BRANCH  16  17
ATOM     17  O   UNL     1       7.620   5.630  15.299  0.00  0.00    +0.000 OA
BRANCH  17  18
ATOM     18  C   UNL     1       7.043   4.923  14.279  0.00  0.00    +0.000 A 
ATOM     19  C   UNL     1       7.723   4.954  13.058  0.00  0.00    +0.000 A 
ATOM     20  C   UNL     1       7.237   4.234  11.962  0.00  0.00    +0.000 A 
ATOM     21  C   UNL     1       6.077   3.474  12.089  0.00  0.00    +0.000 A 
ATOM     22  C   UNL     1       5.411   3.427  13.307  0.00  0.00    +0.000 A 
ATOM     23  C   UNL     1       5.894   4.146  14.406  0.00  0.00    +0.000 A 
ENDBRANCH  17  18
ENDBRANCH  16  17
ENDBRANCH  15  16
ENDBRANCH   2  15
TORSDOF 7
ENDMDL
MODEL 4
REMARK VINA RESULT:      -7.5      1.592      2.723
REMARK  Name = 
REMARK  8 active torsions:
REMARK  status: ('A' for Active; 'I' for Inactive)
REMARK    1  A    between atoms: C_1  and  O_2
REMARK    2  A    between atoms: O_2  and  C_3
REMARK    3  A    between atoms: C_3  and  C_5
REMARK    4  A    between atoms: C_10  and  N_11
REMARK    5  A    between atoms: C_12  and  C_14
REMARK    6  A    between atoms: C_14  and  C_15
REMARK    7  A    between atoms: C_15  and  O_16
REMARK    8  A    between atoms: O_16  and  C_17
REMARK                            x       y       z     vdW  Elec       q    Type
REMARK                         _______ _______ _______ _____ _____    ______ ____
ROOT
ATOM      1  N   UNL     1       4.758   5.199  19.236  0.00  0.00    +0.000 N 
ATOM      2  C   UNL     1       5.107   5.499  17.932  0.00  0.00    +0.000 C 
ATOM      3  O   UNL     1       4.328   5.545  16.979  0.00  0.00    +0.000 OA
ATOM      4  H   UNL     1       5.444   5.406  19.961  0.00  0.00    +0.000 HD
ENDROOT
BRANCH   1  10
ATOM      5  C   UNL     1       3.203   3.412  19.919  0.00  0.00    +0.000 A 
ATOM      6  C   UNL     1       1.958   3.030  20.460  0.00  0.00    +0.000 A 
ATOM      7  C   UNL     1       0.989   3.980  20.768  0.00  0.00    +0.000 A 
ATOM      8  C   UNL     1       1.247   5.321  20.525  0.00  0.00    +0.000 A 
ATOM      9  C   UNL     1       2.478   5.713  19.995  0.00  0.00    +0.000 A 
ATOM     10  C   UNL     1       3.487   4.779  19.709  0.00  0.00    +0.000 A 
BRANCH   5  11
ATOM     11  C   UNL     1       4.144   2.286  19.668  0.00  0.00    +0.000 C 
ATOM     12  O   UNL     1       5.188   2.143  20.287  0.00  0.00    +0.000 OA
BRANCH  11  14
ATOM     13  C   UNL     1       3.466   2.029  17.456  0.00  0.00    +0.000 C 
ATOM     14  O   UNL     1       3.660   1.423  18.740  0.00  0.00    +0.000 OA
ENDBRANCH  11  14
ENDBRANCH   5  11
ENDBRANCH   1  10
BRANCH   2  15
ATOM     15  C   UNL     1       6.567   5.831  17.673  0.00  0.00    +0.000 C 
BRANCH  15  16
ATOM     16  C   UNL     1       7.307   4.922  16.707  0.00  0.00    +0.000 C 
BRANCH  16  17
ATOM     17  O   UNL     1       7.551   5.592  15.464  0.00  0.00    +0.000 OA
BRANCH  17  18
ATOM     18  C   UNL     1       7.182   4.939  14.320  0.00  0.00    +0.000 A 
ATOM     19  C   UNL     1       6.091   4.072  14.440  0.00  0.00    +0.000 A 
ATOM     20  C   UNL     1       5.610   3.384  13.322  0.00  0.00    +0.000 A 
ATOM     21  C   UNL     1       6.213   3.569  12.080  0.00  0.00    +0.000 A 
ATOM     22  C   UNL     1       7.286   4.444  11.955  0.00  0.00    +0.000 A 
ATOM     23  C   UNL     1       7.769   5.135  13.072  0.00  0.00    +0.000 A 
ENDBRANCH  17  18
ENDBRANCH  16  17
ENDBRANCH  15  16
ENDBRANCH   2  15
TORSDOF 7
ENDMDL
MODEL 5
REMARK VINA RESULT:      -7.3      1.251      1.833
REMARK  Name = 
REMARK  8 active torsions:
REMARK  status: ('A' for Active; 'I' for Inactive)
REMARK    1  A    between atoms: C_1  and  O_2
REMARK    2  A    between atoms: O_2  and  C_3
REMARK    3  A    between atoms: C_3  and  C_5
REMARK    4  A    between atoms: C_10  and  N_11
REMARK    5  A    between atoms: C_12  and  C_14
REMARK    6  A    between atoms: C_14  and  C_15
REMARK    7  A    between atoms: C_15  and  O_16
REMARK    8  A    between atoms: O_16  and  C_17
REMARK                            x       y       z     vdW  Elec       q    Type
REMARK                         _______ _______ _______ _____ _____    ______ ____
ROOT
ATOM      1  N   UNL     1       5.162   4.909  18.451  0.00  0.00    +0.000 N 
ATOM      2  C   UNL     1       6.412   5.293  18.901  0.00  0.00    +0.000 C 
ATOM      3  O   UNL     1       6.750   5.372  20.082  0.00  0.00    +0.000 OA
ATOM      4  H   UNL     1       5.073   4.673  17.463  0.00  0.00    +0.000 HD
ENDROOT
BRANCH   1  10
ATOM      5  C   UNL     1       2.988   5.611  19.377  0.00  0.00    +0.000 A 
ATOM      6  C   UNL     1       1.821   5.296  20.105  0.00  0.00    +0.000 A 
ATOM      7  C   UNL     1       1.670   4.054  20.715  0.00  0.00    +0.000 A 
ATOM      8  C   UNL     1       2.689   3.119  20.618  0.00  0.00    +0.000 A 
ATOM      9  C   UNL     1       3.848   3.416  19.895  0.00  0.00    +0.000 A 
ATOM     10  C   UNL     1       4.010   4.646  19.239  0.00  0.00    +0.000 A 
BRANCH   5  11
ATOM     11  C   UNL     1       2.989   6.966  18.761  0.00  0.00    +0.000 C 
ATOM     12  O   UNL     1       3.599   7.227  17.734  0.00  0.00    +0.000 OA
BRANCH  11  14
ATOM     13  C   UNL     1       1.661   8.871  18.601  0.00  0.00    +0.000 C 
ATOM     14  O   UNL     1       2.183   7.825  19.432  0.00  0.00    +0.000 OA
ENDBRANCH  11  14
ENDBRANCH   5  11
ENDBRANCH   1  10
BRANCH   2  15
ATOM     15  C   UNL     1       7.454   5.607  17.839  0.00  0.00    +0.000 C 
BRANCH  15  16
ATOM     16  C   UNL     1       7.428   4.744  16.590  0.00  0.00    +0.000 C 
BRANCH  16  17
ATOM     17  O   UNL     1       7.292   5.553  15.416  0.00  0.00    +0.000 OA
BRANCH  17  18
ATOM     18  C   UNL     1       7.014   4.907  14.242  0.00  0.00    +0.000 A 
ATOM     19  C   UNL     1       5.883   4.086  14.252  0.00  0.00    +0.000 A 
ATOM     20  C   UNL     1       5.490   3.411  13.093  0.00  0.00    +0.000 A 
ATOM     21  C   UNL     1       6.223   3.563  11.918  0.00  0.00    +0.000 A 
ATOM     22  C   UNL     1       7.337   4.392  11.901  0.00  0.00    +0.000 A 
ATOM     23  C   UNL     1       7.733   5.071  13.059  0.00  0.00    +0.000 A 
ENDBRANCH  17  18
ENDBRANCH  16  17
ENDBRANCH  15  16
ENDBRANCH   2  15
TORSDOF 7
ENDMDL
MODEL 6
REMARK VINA RESULT:      -7.3      1.710      6.120
REMARK  Name = 
REMARK  8 active torsions:
REMARK  status: ('A' for Active; 'I' for Inactive)
REMARK    1  A    between atoms: C_1  and  O_2
REMARK    2  A    between atoms: O_2  and  C_3
REMARK    3  A    between atoms: C_3  and  C_5
REMARK    4  A    between atoms: C_10  and  N_11
REMARK    5  A    between atoms: C_12  and  C_14
REMARK    6  A    between atoms: C_14  and  C_15
REMARK    7  A    between atoms: C_15  and  O_16
REMARK    8  A    between atoms: O_16  and  C_17
REMARK                            x       y       z     vdW  Elec       q    Type
REMARK                         _______ _______ _______ _____ _____    ______ ____
ROOT
ATOM      1  N   UNL     1       4.857   3.714  17.905  0.00  0.00    +0.000 N 
ATOM      2  C   UNL     1       4.497   2.749  18.827  0.00  0.00    +0.000 C 
ATOM      3  O   UNL     1       4.957   2.644  19.964  0.00  0.00    +0.000 OA
ATOM      4  H   UNL     1       4.255   3.829  17.090  0.00  0.00    +0.000 HD
ENDROOT
BRANCH   1  10
ATOM      5  C   UNL     1       6.197   5.563  16.975  0.00  0.00    +0.000 A 
ATOM      6  C   UNL     1       7.174   6.564  17.157  0.00  0.00    +0.000 A 
ATOM      7  C   UNL     1       7.860   6.684  18.362  0.00  0.00    +0.000 A 
ATOM      8  C   UNL     1       7.589   5.796  19.392  0.00  0.00    +0.000 A 
ATOM      9  C   UNL     1       6.620   4.803  19.226  0.00  0.00    +0.000 A 
ATOM     10  C   UNL     1       5.887   4.683  18.035  0.00  0.00    +0.000 A 
BRANCH   5  11
ATOM     11  C   UNL     1       5.531   5.579  15.643  0.00  0.00    +0.000 C 
ATOM     12  O   UNL     1       5.215   6.613  15.072  0.00  0.00    +0.000 OA
BRANCH  11  14
ATOM     13  C   UNL     1       6.214   4.106  13.976  0.00  0.00    +0.000 C 
ATOM     14  O   UNL     1       5.397   4.330  15.132  0.00  0.00    +0.000 OA
ENDBRANCH  11  14
ENDBRANCH   5  11
ENDBRANCH   1  10
BRANCH   2  15
ATOM     15  C   UNL     1       3.419   1.765  18.402  0.00  0.00    +0.000 C 
BRANCH  15  16
ATOM     16  C   UNL     1       2.048   1.951  19.028  0.00  0.00    +0.000 C 
BRANCH  16  17
ATOM     17  O   UNL     1       1.329   3.005  18.376  0.00  0.00    +0.000 OA
BRANCH  17  18
ATOM     18  C   UNL     1       1.629   4.287  18.747  0.00  0.00    +0.000 A 
ATOM     19  C   UNL     1       1.557   4.557  20.117  0.00  0.00    +0.000 A 
ATOM     20  C   UNL     1       1.880   5.827  20.604  0.00  0.00    +0.000 A 
ATOM     21  C   UNL     1       2.285   6.827  19.723  0.00  0.00    +0.000 A 
ATOM     22  C   UNL     1       2.374   6.555  18.363  0.00  0.00    +0.000 A 
ATOM     23  C   UNL     1       2.053   5.285  17.872  0.00  0.00    +0.000 A 
ENDBRANCH  17  18
ENDBRANCH  16  17
ENDBRANCH  15  16
ENDBRANCH   2  15
TORSDOF 7
ENDMDL
MODEL 7
REMARK VINA RESULT:      -7.3      1.244      1.467
REMARK  Name = 
REMARK  8 active torsions:
REMARK  status: ('A' for Active; 'I' for Inactive)
REMARK    1  A    between atoms: C_1  and  O_2
REMARK    2  A    between atoms: O_2  and  C_3
REMARK    3  A    between atoms: C_3  and  C_5
REMARK    4  A    between atoms: C_10  and  N_11
REMARK    5  A    between atoms: C_12  and  C_14
REMARK    6  A    between atoms: C_14  and  C_15
REMARK    7  A    between atoms: C_15  and  O_16
REMARK    8  A    between atoms: O_16  and  C_17
REMARK                            x       y       z     vdW  Elec       q    Type
REMARK                         _______ _______ _______ _____ _____    ______ ____
ROOT
ATOM      1  N   UNL     1       4.694   4.465  17.948  0.00  0.00    +0.000 N 
ATOM      2  C   UNL     1       5.821   4.892  18.627  0.00  0.00    +0.000 C 
ATOM      3  O   UNL     1       6.041   4.708  19.824  0.00  0.00    +0.000 OA
ATOM      4  H   UNL     1       4.729   4.484  16.929  0.00  0.00    +0.000 HD
ENDROOT
BRANCH   1  10
ATOM      5  C   UNL     1       2.502   4.618  19.065  0.00  0.00    +0.000 A 
ATOM      6  C   UNL     1       1.336   3.983  19.540  0.00  0.00    +0.000 A 
ATOM      7  C   UNL     1       1.202   2.598  19.485  0.00  0.00    +0.000 A 
ATOM      8  C   UNL     1       2.237   1.833  18.970  0.00  0.00    +0.000 A 
ATOM      9  C   UNL     1       3.395   2.451  18.491  0.00  0.00    +0.000 A 
ATOM     10  C   UNL     1       3.542   3.847  18.500  0.00  0.00    +0.000 A 
BRANCH   5  11
ATOM     11  C   UNL     1       2.486   6.104  19.166  0.00  0.00    +0.000 C 
ATOM     12  O   UNL     1       2.948   6.833  18.301  0.00  0.00    +0.000 OA
BRANCH  11  14
ATOM     13  C   UNL     1       1.759   7.953  20.378  0.00  0.00    +0.000 C 
ATOM     14  O   UNL     1       1.838   6.525  20.280  0.00  0.00    +0.000 OA
ENDBRANCH  11  14
ENDBRANCH   5  11
ENDBRANCH   1  10
BRANCH   2  15
ATOM     15  C   UNL     1       6.879   5.615  17.811  0.00  0.00    +0.000 C 
BRANCH  15  16
ATOM     16  C   UNL     1       7.533   4.819  16.695  0.00  0.00    +0.000 C 
BRANCH  16  17
ATOM     17  O   UNL     1       7.491   5.546  15.460  0.00  0.00    +0.000 OA
BRANCH  17  18
ATOM     18  C   UNL     1       6.947   4.909  14.379  0.00  0.00    +0.000 A 
ATOM     19  C   UNL     1       7.701   4.957  13.202  0.00  0.00    +0.000 A 
ATOM     20  C   UNL     1       7.251   4.306  12.049  0.00  0.00    +0.000 A 
ATOM     21  C   UNL     1       6.052   3.597  12.074  0.00  0.00    +0.000 A 
ATOM     22  C   UNL     1       5.312   3.533  13.247  0.00  0.00    +0.000 A 
ATOM     23  C   UNL     1       5.759   4.182  14.404  0.00  0.00    +0.000 A 
ENDBRANCH  17  18
ENDBRANCH  16  17
ENDBRANCH  15  16
ENDBRANCH   2  15
TORSDOF 7
ENDMDL
MODEL 8
REMARK VINA RESULT:      -7.3      1.447      2.339
REMARK  Name = 
REMARK  8 active torsions:
REMARK  status: ('A' for Active; 'I' for Inactive)
REMARK    1  A    between atoms: C_1  and  O_2
REMARK    2  A    between atoms: O_2  and  C_3
REMARK    3  A    between atoms: C_3  and  C_5
REMARK    4  A    between atoms: C_10  and  N_11
REMARK    5  A    between atoms: C_12  and  C_14
REMARK    6  A    between atoms: C_14  and  C_15
REMARK    7  A    between atoms: C_15  and  O_16
REMARK    8  A    between atoms: O_16  and  C_17
REMARK                            x       y       z     vdW  Elec       q    Type
REMARK                         _______ _______ _______ _____ _____    ______ ____
ROOT
ATOM      1  N   UNL     1       4.353   5.708  18.375  0.00  0.00    +0.000 N 
ATOM      2  C   UNL     1       5.659   5.327  18.624  0.00  0.00    +0.000 C 
ATOM      3  O   UNL     1       6.006   4.453  19.419  0.00  0.00    +0.000 OA
ATOM      4  H   UNL     1       4.184   6.279  17.548  0.00  0.00    +0.000 HD
ENDROOT
BRANCH   1  10
ATOM      5  C   UNL     1       2.520   4.083  18.654  0.00  0.00    +0.000 A 
ATOM      6  C   UNL     1       1.407   3.626  19.389  0.00  0.00    +0.000 A 
ATOM      7  C   UNL     1       0.933   4.336  20.489  0.00  0.00    +0.000 A 
ATOM      8  C   UNL     1       1.558   5.518  20.856  0.00  0.00    +0.000 A 
ATOM      9  C   UNL     1       2.665   5.979  20.140  0.00  0.00    +0.000 A 
ATOM     10  C   UNL     1       3.186   5.264  19.051  0.00  0.00    +0.000 A 
BRANCH   5  11
ATOM     11  C   UNL     1       2.924   3.202  17.524  0.00  0.00    +0.000 C 
ATOM     12  O   UNL     1       3.443   3.628  16.503  0.00  0.00    +0.000 OA
BRANCH  11  14
ATOM     13  C   UNL     1       3.821   1.277  18.475  0.00  0.00    +0.000 C 
ATOM     14  O   UNL     1       2.713   1.892  17.806  0.00  0.00    +0.000 OA
ENDBRANCH  11  14
ENDBRANCH   5  11
ENDBRANCH   1  10
BRANCH   2  15
ATOM     15  C   UNL     1       6.742   6.027  17.819  0.00  0.00    +0.000 C 
BRANCH  15  16
ATOM     16  C   UNL     1       6.496   6.160  16.327  0.00  0.00    +0.000 C 
BRANCH  16  17
ATOM     17  O   UNL     1       7.550   5.540  15.581  0.00  0.00    +0.000 OA
BRANCH  17  18
ATOM     18  C   UNL     1       7.211   4.950  14.394  0.00  0.00    +0.000 A 
ATOM     19  C   UNL     1       6.104   4.098  14.432  0.00  0.00    +0.000 A 
ATOM     20  C   UNL     1       5.653   3.474  13.266  0.00  0.00    +0.000 A 
ATOM     21  C   UNL     1       6.302   3.709  12.056  0.00  0.00    +0.000 A 
ATOM     22  C   UNL     1       7.391   4.571  12.012  0.00  0.00    +0.000 A 
ATOM     23  C   UNL     1       7.845   5.198  13.178  0.00  0.00    +0.000 A 
ENDBRANCH  17  18
ENDBRANCH  16  17
ENDBRANCH  15  16
ENDBRANCH   2  15
TORSDOF 7
ENDMDL
MODEL 9
REMARK VINA RESULT:      -7.3      1.092      1.655
REMARK  Name = 
REMARK  8 active torsions:
REMARK  status: ('A' for Active; 'I' for Inactive)
REMARK    1  A    between atoms: C_1  and  O_2
REMARK    2  A    between atoms: O_2  and  C_3
REMARK    3  A    between atoms: C_3  and  C_5
REMARK    4  A    between atoms: C_10  and  N_11
REMARK    5  A    between atoms: C_12  and  C_14
REMARK    6  A    between atoms: C_14  and  C_15
REMARK    7  A    between atoms: C_15  and  O_16
REMARK    8  A    between atoms: O_16  and  C_17
REMARK                            x       y       z     vdW  Elec       q    Type
REMARK                         _______ _______ _______ _____ _____    ______ ____
ROOT
ATOM      1  N   UNL     1       4.712   4.459  18.539  0.00  0.00    +0.000 N 
ATOM      2  C   UNL     1       5.969   4.980  18.787  0.00  0.00    +0.000 C 
ATOM      3  O   UNL     1       6.471   5.128  19.901  0.00  0.00    +0.000 OA
ATOM      4  H   UNL     1       4.500   4.187  17.580  0.00  0.00    +0.000 HD
ENDROOT
BRANCH   1  10
ATOM      5  C   UNL     1       2.717   5.023  19.874  0.00  0.00    +0.000 A 
ATOM      6  C   UNL     1       1.707   4.622  20.773  0.00  0.00    +0.000 A 
ATOM      7  C   UNL     1       1.700   3.341  21.318  0.00  0.00    +0.000 A 
ATOM      8  C   UNL     1       2.710   2.453  20.984  0.00  0.00    +0.000 A 
ATOM      9  C   UNL     1       3.714   2.836  20.091  0.00  0.00    +0.000 A 
ATOM     10  C   UNL     1       3.725   4.108  19.497  0.00  0.00    +0.000 A 
BRANCH   5  11
ATOM     11  C   UNL     1       2.574   6.411  19.356  0.00  0.00    +0.000 C 
ATOM     12  O   UNL     1       2.307   7.363  20.074  0.00  0.00    +0.000 OA
BRANCH  11  14
ATOM     13  C   UNL     1       3.151   7.815  17.592  0.00  0.00    +0.000 C 
ATOM     14  O   UNL     1       2.848   6.485  18.030  0.00  0.00    +0.000 OA
ENDBRANCH  11  14
ENDBRANCH   5  11
ENDBRANCH   1  10
BRANCH   2  15
ATOM     15  C   UNL     1       6.801   5.364  17.574  0.00  0.00    +0.000 C 
BRANCH  15  16
ATOM     16  C   UNL     1       6.042   5.907  16.377  0.00  0.00    +0.000 C 
BRANCH  16  17
ATOM     17  O   UNL     1       5.493   4.839  15.595  0.00  0.00    +0.000 OA
BRANCH  17  18
ATOM     18  C   UNL     1       6.087   4.576  14.391  0.00  0.00    +0.000 A 
ATOM     19  C   UNL     1       5.412   3.675  13.563  0.00  0.00    +0.000 A 
ATOM     20  C   UNL     1       5.916   3.367  12.296  0.00  0.00    +0.000 A 
ATOM     21  C   UNL     1       7.091   3.968  11.851  0.00  0.00    +0.000 A 
ATOM     22  C   UNL     1       7.754   4.878  12.665  0.00  0.00    +0.000 A 
ATOM     23  C   UNL     1       7.251   5.189  13.934  0.00  0.00    +0.000 A 
ENDBRANCH  17  18
ENDBRANCH  16  17
ENDBRANCH  15  16
ENDBRANCH   2  15
TORSDOF 7
ENDMDL
