MODEL 1
REMARK VINA RESULT:      -8.2      0.000      0.000
REMARK  Name = 
REMARK  4 active torsions:
REMARK  status: ('A' for Active; 'I' for Inactive)
REMARK    1  A    between atoms: N_1  and  C_2
REMARK    2  A    between atoms: C_5  and  C_6
REMARK    3  A    between atoms: N_8  and  N_9
REMARK    4  A    between atoms: C_10  and  C_11
REMARK                            x       y       z     vdW  Elec       q    Type
REMARK                         _______ _______ _______ _____ _____    ______ ____
ROOT
ATOM      1  C   UNL     1       9.101  10.314  18.639  0.00  0.00    +0.000 C 
ATOM      2  O   UNL     1       9.267  10.044  19.827  0.00  0.00    +0.000 OA
ATOM      3  N   UNL     1       8.508   9.463  17.710  0.00  0.00    +0.000 N 
ATOM      4  H   UNL     1       8.496   9.687  16.724  0.00  0.00    +0.000 HD
ENDROOT
BRANCH   1   8
ATOM      5  C   UNL     1      10.688  14.066  17.216  0.00  0.00    +0.000 A 
ATOM      6  C   UNL     1      11.436  12.889  17.162  0.00  0.00    +0.000 A 
ATOM      7  C   UNL     1      10.907  11.686  17.640  0.00  0.00    +0.000 A 
ATOM      8  C   UNL     1       9.595  11.626  18.135  0.00  0.00    +0.000 A 
ATOM      9  C   UNL     1       8.828  12.794  18.155  0.00  0.00    +0.000 A 
ATOM     10  C   UNL     1       9.370  13.998  17.677  0.00  0.00    +0.000 A 
BRANCH   5  11
ATOM     11  N   UNL     1      11.168  15.231  16.609  0.00  0.00    +0.000 N 
ATOM     12  H   UNL     1      10.560  15.599  15.881  0.00  0.00    +0.000 HD
ATOM     13  H   UNL     1      12.136  15.178  16.306  0.00  0.00    +0.000 HD
ENDBRANCH   5  11
ENDBRANCH   1   8
BRANCH   3  14
ATOM     14  N   UNL     1       8.074   8.232  18.129  0.00  0.00    +0.000 NA
ATOM     15  C   UNL     1       7.228   7.613  17.372  0.00  0.00    +0.000 C 
BRANCH  15  16
ATOM     16  C   UNL     1       6.738   6.305  17.770  0.00  0.00    +0.000 A 
ATOM     17  C   UNL     1       7.528   5.218  18.101  0.00  0.00    +0.000 A 
ATOM     18  N   UNL     1       6.714   4.173  18.437  0.00  0.00    +0.000 N 
ATOM     19  C   UNL     1       5.394   4.541  18.319  0.00  0.00    +0.000 A 
ATOM     20  C   UNL     1       4.229   3.798  18.551  0.00  0.00    +0.000 A 
ATOM     21  C   UNL     1       3.003   4.431  18.335  0.00  0.00    +0.000 A 
ATOM     22  C   UNL     1       2.947   5.757  17.911  0.00  0.00    +0.000 A 
ATOM     23  C   UNL     1       4.121   6.489  17.695  0.00  0.00    +0.000 A 
ATOM     24  C   UNL     1       5.376   5.875  17.897  0.00  0.00    +0.000 A 
ATOM     25  H   UNL     1       7.032   3.257  18.725  0.00  0.00    +0.000 HD
ENDBRANCH  15  16
ENDBRANCH   3  14
TORSDOF 4
ENDMDL
MODEL 2
REMARK VINA RESULT:      -8.0      0.164      1.056
REMARK  Name = 
REMARK  4 active torsions:
REMARK  status: ('A' for Active; 'I' for Inactive)
REMARK    1  A    between atoms: N_1  and  C_2
REMARK    2  A    between atoms: C_5  and  C_6
REMARK    3  A    between atoms: N_8  and  N_9
REMARK    4  A    between atoms: C_10  and  C_11
REMARK                            x       y       z     vdW  Elec       q    Type
REMARK                         _______ _______ _______ _____ _____    ______ ____
ROOT
ATOM      1  C   UNL     1       9.146  10.237  18.651  0.00  0.00    +0.000 C 
ATOM      2  O   UNL     1       9.294   9.979  19.845  0.00  0.00    +0.000 OA
ATOM      3  N   UNL     1       8.499   9.410  17.738  0.00  0.00    +0.000 N 
ATOM      4  H   UNL     1       8.502   9.614  16.748  0.00  0.00    +0.000 HD
ENDROOT
BRANCH   1   8
ATOM      5  C   UNL     1      10.678  13.945  17.061  0.00  0.00    +0.000 A 
ATOM      6  C   UNL     1       9.342  13.810  17.444  0.00  0.00    +0.000 A 
ATOM      7  C   UNL     1       8.864  12.595  17.945  0.00  0.00    +0.000 A 
ATOM      8  C   UNL     1       9.727  11.503  18.123  0.00  0.00    +0.000 A 
ATOM      9  C   UNL     1      11.074  11.645  17.779  0.00  0.00    +0.000 A 
ATOM     10  C   UNL     1      11.544  12.867  17.272  0.00  0.00    +0.000 A 
BRANCH   5  11
ATOM     11  N   UNL     1      11.181  15.198  16.696  0.00  0.00    +0.000 N 
ATOM     12  H   UNL     1      11.474  15.771  17.483  0.00  0.00    +0.000 HD
ATOM     13  H   UNL     1      10.593  15.713  16.048  0.00  0.00    +0.000 HD
ENDBRANCH   5  11
ENDBRANCH   1   8
BRANCH   3  14
ATOM     14  N   UNL     1       7.984   8.218  18.180  0.00  0.00    +0.000 NA
ATOM     15  C   UNL     1       7.292   7.523  17.337  0.00  0.00    +0.000 C 
BRANCH  15  16
ATOM     16  C   UNL     1       6.726   6.253  17.755  0.00  0.00    +0.000 A 
ATOM     17  C   UNL     1       7.450   5.122  18.090  0.00  0.00    +0.000 A 
ATOM     18  N   UNL     1       6.576   4.133  18.447  0.00  0.00    +0.000 N 
ATOM     19  C   UNL     1       5.280   4.582  18.337  0.00  0.00    +0.000 A 
ATOM     20  C   UNL     1       4.073   3.916  18.590  0.00  0.00    +0.000 A 
ATOM     21  C   UNL     1       2.887   4.622  18.379  0.00  0.00    +0.000 A 
ATOM     22  C   UNL     1       2.909   5.944  17.941  0.00  0.00    +0.000 A 
ATOM     23  C   UNL     1       4.125   6.599  17.704  0.00  0.00    +0.000 A 
ATOM     24  C   UNL     1       5.341   5.910  17.901  0.00  0.00    +0.000 A 
ATOM     25  H   UNL     1       6.839   3.203  18.742  0.00  0.00    +0.000 HD
ENDBRANCH  15  16
ENDBRANCH   3  14
TORSDOF 4
ENDMDL
MODEL 3
REMARK VINA RESULT:      -7.8      1.729      2.094
REMARK  Name = 
REMARK  4 active torsions:
REMARK  status: ('A' for Active; 'I' for Inactive)
REMARK    1  A    between atoms: N_1  and  C_2
REMARK    2  A    between atoms: C_5  and  C_6
REMARK    3  A    between atoms: N_8  and  N_9
REMARK    4  A    between atoms: C_10  and  C_11
REMARK                            x       y       z     vdW  Elec       q    Type
REMARK                         _______ _______ _______ _____ _____    ______ ____
ROOT
ATOM      1  C   UNL     1       8.300   8.683  18.247  0.00  0.00    +0.000 C 
ATOM      2  O   UNL     1       8.720   7.825  19.023  0.00  0.00    +0.000 OA
ATOM      3  N   UNL     1       7.435   8.433  17.187  0.00  0.00    +0.000 N 
ATOM      4  H   UNL     1       7.209   9.151  16.511  0.00  0.00    +0.000 HD
ENDROOT
BRANCH   1   8
ATOM      5  C   UNL     1       9.683  12.716  18.912  0.00  0.00    +0.000 A 
ATOM      6  C   UNL     1      10.107  11.656  19.717  0.00  0.00    +0.000 A 
ATOM      7  C   UNL     1       9.636  10.359  19.491  0.00  0.00    +0.000 A 
ATOM      8  C   UNL     1       8.771  10.086  18.421  0.00  0.00    +0.000 A 
ATOM      9  C   UNL     1       8.375  11.137  17.588  0.00  0.00    +0.000 A 
ATOM     10  C   UNL     1       8.850  12.437  17.825  0.00  0.00    +0.000 A 
BRANCH   5  11
ATOM     11  N   UNL     1      10.266  13.980  19.053  0.00  0.00    +0.000 N 
ATOM     12  H   UNL     1       9.617  14.703  19.351  0.00  0.00    +0.000 HD
ATOM     13  H   UNL     1      10.826  14.274  18.259  0.00  0.00    +0.000 HD
ENDBRANCH   5  11
ENDBRANCH   1   8
BRANCH   3  14
ATOM     14  N   UNL     1       7.009   7.147  16.973  0.00  0.00    +0.000 NA
ATOM     15  C   UNL     1       5.813   6.847  17.362  0.00  0.00    +0.000 C 
BRANCH  15  16
ATOM     16  C   UNL     1       5.313   5.500  17.158  0.00  0.00    +0.000 A 
ATOM     17  C   UNL     1       6.023   4.457  16.588  0.00  0.00    +0.000 A 
ATOM     18  N   UNL     1       5.231   3.342  16.580  0.00  0.00    +0.000 N 
ATOM     19  C   UNL     1       3.999   3.630  17.120  0.00  0.00    +0.000 A 
ATOM     20  C   UNL     1       2.884   2.803  17.305  0.00  0.00    +0.000 A 
ATOM     21  C   UNL     1       1.743   3.372  17.875  0.00  0.00    +0.000 A 
ATOM     22  C   UNL     1       1.723   4.713  18.251  0.00  0.00    +0.000 A 
ATOM     23  C   UNL     1       2.852   5.523  18.069  0.00  0.00    +0.000 A 
ATOM     24  C   UNL     1       4.018   4.979  17.489  0.00  0.00    +0.000 A 
ATOM     25  H   UNL     1       5.506   2.437  16.223  0.00  0.00    +0.000 HD
ENDBRANCH  15  16
ENDBRANCH   3  14
TORSDOF 4
ENDMDL
MODEL 4
REMARK VINA RESULT:      -7.7      1.680      2.152
REMARK  Name = 
REMARK  4 active torsions:
REMARK  status: ('A' for Active; 'I' for Inactive)
REMARK    1  A    between atoms: N_1  and  C_2
REMARK    2  A    between atoms: C_5  and  C_6
REMARK    3  A    between atoms: N_8  and  N_9
REMARK    4  A    between atoms: C_10  and  C_11
REMARK                            x       y       z     vdW  Elec       q    Type
REMARK                         _______ _______ _______ _____ _____    ______ ____
ROOT
ATOM      1  C   UNL     1       8.350   8.703  18.266  0.00  0.00    +0.000 C 
ATOM      2  O   UNL     1       8.748   7.833  19.038  0.00  0.00    +0.000 OA
ATOM      3  N   UNL     1       7.497   8.475  17.190  0.00  0.00    +0.000 N 
ATOM      4  H   UNL     1       7.289   9.203  16.520  0.00  0.00    +0.000 HD
ENDROOT
BRANCH   1   8
ATOM      5  C   UNL     1       9.724  12.774  18.672  0.00  0.00    +0.000 A 
ATOM      6  C   UNL     1       8.772  12.416  17.716  0.00  0.00    +0.000 A 
ATOM      7  C   UNL     1       8.350  11.088  17.593  0.00  0.00    +0.000 A 
ATOM      8  C   UNL     1       8.834  10.099  18.462  0.00  0.00    +0.000 A 
ATOM      9  C   UNL     1       9.759  10.459  19.447  0.00  0.00    +0.000 A 
ATOM     10  C   UNL     1      10.179  11.794  19.559  0.00  0.00    +0.000 A 
BRANCH   5  11
ATOM     11  N   UNL     1      10.035  14.121  18.883  0.00  0.00    +0.000 N 
ATOM     12  H   UNL     1      11.002  14.359  18.683  0.00  0.00    +0.000 HD
ATOM     13  H   UNL     1       9.730  14.485  19.781  0.00  0.00    +0.000 HD
ENDBRANCH   5  11
ENDBRANCH   1   8
BRANCH   3  14
ATOM     14  N   UNL     1       7.060   7.197  16.957  0.00  0.00    +0.000 NA
ATOM     15  C   UNL     1       5.868   6.896  17.359  0.00  0.00    +0.000 C 
BRANCH  15  16
ATOM     16  C   UNL     1       5.357   5.556  17.134  0.00  0.00    +0.000 A 
ATOM     17  C   UNL     1       6.060   4.514  16.553  0.00  0.00    +0.000 A 
ATOM     18  N   UNL     1       5.258   3.407  16.527  0.00  0.00    +0.000 N 
ATOM     19  C   UNL     1       4.026   3.700  17.064  0.00  0.00    +0.000 A 
ATOM     20  C   UNL     1       2.901   2.881  17.232  0.00  0.00    +0.000 A 
ATOM     21  C   UNL     1       1.763   3.453  17.804  0.00  0.00    +0.000 A 
ATOM     22  C   UNL     1       1.754   4.789  18.197  0.00  0.00    +0.000 A 
ATOM     23  C   UNL     1       2.891   5.591  18.032  0.00  0.00    +0.000 A 
ATOM     24  C   UNL     1       4.055   5.043  17.452  0.00  0.00    +0.000 A 
ATOM     25  H   UNL     1       5.525   2.504  16.160  0.00  0.00    +0.000 HD
ENDBRANCH  15  16
ENDBRANCH   3  14
TORSDOF 4
ENDMDL
MODEL 5
REMARK VINA RESULT:      -7.5      1.656      2.036
REMARK  Name = 
REMARK  4 active torsions:
REMARK  status: ('A' for Active; 'I' for Inactive)
REMARK    1  A    between atoms: N_1  and  C_2
REMARK    2  A    between atoms: C_5  and  C_6
REMARK    3  A    between atoms: N_8  and  N_9
REMARK    4  A    between atoms: C_10  and  C_11
REMARK                            x       y       z     vdW  Elec       q    Type
REMARK                         _______ _______ _______ _____ _____    ______ ____
ROOT
ATOM      1  C   UNL     1       8.435   9.209  18.363  0.00  0.00    +0.000 C 
ATOM      2  O   UNL     1       7.470   9.404  17.625  0.00  0.00    +0.000 OA
ATOM      3  N   UNL     1       8.755   7.984  18.939  0.00  0.00    +0.000 N 
ATOM      4  H   UNL     1       9.492   7.902  19.627  0.00  0.00    +0.000 HD
ENDROOT
BRANCH   1   8
ATOM      5  C   UNL     1      10.891  12.576  19.485  0.00  0.00    +0.000 A 
ATOM      6  C   UNL     1      10.311  11.744  20.443  0.00  0.00    +0.000 A 
ATOM      7  C   UNL     1       9.508  10.665  20.058  0.00  0.00    +0.000 A 
ATOM      8  C   UNL     1       9.312  10.366  18.701  0.00  0.00    +0.000 A 
ATOM      9  C   UNL     1       9.924  11.173  17.737  0.00  0.00    +0.000 A 
ATOM     10  C   UNL     1      10.724  12.255  18.134  0.00  0.00    +0.000 A 
BRANCH   5  11
ATOM     11  N   UNL     1      11.804  13.562  19.872  0.00  0.00    +0.000 N 
ATOM     12  H   UNL     1      11.372  14.408  20.232  0.00  0.00    +0.000 HD
ATOM     13  H   UNL     1      12.521  13.763  19.182  0.00  0.00    +0.000 HD
ENDBRANCH   5  11
ENDBRANCH   1   8
BRANCH   3  14
ATOM     14  N   UNL     1       7.950   6.905  18.681  0.00  0.00    +0.000 NA
ATOM     15  C   UNL     1       7.533   6.755  17.466  0.00  0.00    +0.000 C 
BRANCH  15  16
ATOM     16  C   UNL     1       6.679   5.627  17.139  0.00  0.00    +0.000 A 
ATOM     17  C   UNL     1       7.083   4.476  16.484  0.00  0.00    +0.000 A 
ATOM     18  N   UNL     1       6.010   3.637  16.372  0.00  0.00    +0.000 N 
ATOM     19  C   UNL     1       4.893   4.218  16.926  0.00  0.00    +0.000 A 
ATOM     20  C   UNL     1       3.583   3.729  17.029  0.00  0.00    +0.000 A 
ATOM     21  C   UNL     1       2.632   4.550  17.638  0.00  0.00    +0.000 A 
ATOM     22  C   UNL     1       2.980   5.806  18.131  0.00  0.00    +0.000 A 
ATOM     23  C   UNL     1       4.297   6.274  18.030  0.00  0.00    +0.000 A 
ATOM     24  C   UNL     1       5.280   5.470  17.413  0.00  0.00    +0.000 A 
ATOM     25  H   UNL     1       6.028   2.724  15.939  0.00  0.00    +0.000 HD
ENDBRANCH  15  16
ENDBRANCH   3  14
TORSDOF 4
ENDMDL
MODEL 6
REMARK VINA RESULT:      -7.4      6.167      8.176
REMARK  Name = 
REMARK  4 active torsions:
REMARK  status: ('A' for Active; 'I' for Inactive)
REMARK    1  A    between atoms: N_1  and  C_2
REMARK    2  A    between atoms: C_5  and  C_6
REMARK    3  A    between atoms: N_8  and  N_9
REMARK    4  A    between atoms: C_10  and  C_11
REMARK                            x       y       z     vdW  Elec       q    Type
REMARK                         _______ _______ _______ _____ _____    ______ ____
ROOT
ATOM      1  C   UNL     1       1.373   8.646  20.137  0.00  0.00    +0.000 C 
ATOM      2  O   UNL     1       1.570   9.033  18.986  0.00  0.00    +0.000 OA
ATOM      3  N   UNL     1       1.897   7.477  20.677  0.00  0.00    +0.000 N 
ATOM      4  H   UNL     1       1.615   7.146  21.591  0.00  0.00    +0.000 HD
ENDROOT
BRANCH   1   8
ATOM      5  C   UNL     1      -1.162  11.135  22.587  0.00  0.00    +0.000 A 
ATOM      6  C   UNL     1      -0.943  11.419  21.238  0.00  0.00    +0.000 A 
ATOM      7  C   UNL     1      -0.108  10.606  20.465  0.00  0.00    +0.000 A 
ATOM      8  C   UNL     1       0.485   9.460  21.015  0.00  0.00    +0.000 A 
ATOM      9  C   UNL     1       0.238   9.149  22.355  0.00  0.00    +0.000 A 
ATOM     10  C   UNL     1      -0.599   9.973  23.124  0.00  0.00    +0.000 A 
BRANCH   5  11
ATOM     11  N   UNL     1      -2.107  11.866  23.314  0.00  0.00    +0.000 N 
ATOM     12  H   UNL     1      -2.670  11.303  23.945  0.00  0.00    +0.000 HD
ATOM     13  H   UNL     1      -2.675  12.492  22.751  0.00  0.00    +0.000 HD
ENDBRANCH   5  11
ENDBRANCH   1   8
BRANCH   3  14
ATOM     14  N   UNL     1       2.689   6.683  19.888  0.00  0.00    +0.000 NA
ATOM     15  C   UNL     1       2.136   5.650  19.342  0.00  0.00    +0.000 C 
BRANCH  15  16
ATOM     16  C   UNL     1       2.931   4.779  18.495  0.00  0.00    +0.000 A 
ATOM     17  C   UNL     1       2.924   3.396  18.532  0.00  0.00    +0.000 A 
ATOM     18  N   UNL     1       3.784   2.928  17.578  0.00  0.00    +0.000 N 
ATOM     19  C   UNL     1       4.379   3.978  16.918  0.00  0.00    +0.000 A 
ATOM     20  C   UNL     1       5.322   3.970  15.882  0.00  0.00    +0.000 A 
ATOM     21  C   UNL     1       5.768   5.204  15.403  0.00  0.00    +0.000 A 
ATOM     22  C   UNL     1       5.283   6.396  15.935  0.00  0.00    +0.000 A 
ATOM     23  C   UNL     1       4.331   6.386  16.963  0.00  0.00    +0.000 A 
ATOM     24  C   UNL     1       3.866   5.155  17.474  0.00  0.00    +0.000 A 
ATOM     25  H   UNL     1       3.967   1.952  17.388  0.00  0.00    +0.000 HD
ENDBRANCH  15  16
ENDBRANCH   3  14
TORSDOF 4
ENDMDL
MODEL 7
REMARK VINA RESULT:      -7.4      6.198      8.004
REMARK  Name = 
REMARK  4 active torsions:
REMARK  status: ('A' for Active; 'I' for Inactive)
REMARK    1  A    between atoms: N_1  and  C_2
REMARK    2  A    between atoms: C_5  and  C_6
REMARK    3  A    between atoms: N_8  and  N_9
REMARK    4  A    between atoms: C_10  and  C_11
REMARK                            x       y       z     vdW  Elec       q    Type
REMARK                         _______ _______ _______ _____ _____    ______ ____
ROOT
ATOM      1  C   UNL     1       1.568   8.641  19.837  0.00  0.00    +0.000 C 
ATOM      2  O   UNL     1       1.811   9.062  18.707  0.00  0.00    +0.000 OA
ATOM      3  N   UNL     1       2.043   7.439  20.351  0.00  0.00    +0.000 N 
ATOM      4  H   UNL     1       1.725   7.085  21.244  0.00  0.00    +0.000 HD
ENDROOT
BRANCH   1   8
ATOM      5  C   UNL     1      -1.033  10.845  22.484  0.00  0.00    +0.000 A 
ATOM      6  C   UNL     1      -0.213   9.817  22.954  0.00  0.00    +0.000 A 
ATOM      7  C   UNL     1       0.613   9.108  22.076  0.00  0.00    +0.000 A 
ATOM      8  C   UNL     1       0.675   9.448  20.716  0.00  0.00    +0.000 A 
ATOM      9  C   UNL     1      -0.115  10.502  20.248  0.00  0.00    +0.000 A 
ATOM     10  C   UNL     1      -0.944  11.205  21.136  0.00  0.00    +0.000 A 
BRANCH   5  11
ATOM     11  N   UNL     1      -1.746  11.641  23.386  0.00  0.00    +0.000 N 
ATOM     12  H   UNL     1      -2.756  11.547  23.312  0.00  0.00    +0.000 HD
ATOM     13  H   UNL     1      -1.454  12.613  23.408  0.00  0.00    +0.000 HD
ENDBRANCH   5  11
ENDBRANCH   1   8
BRANCH   3  14
ATOM     14  N   UNL     1       2.839   6.653  19.558  0.00  0.00    +0.000 NA
ATOM     15  C   UNL     1       2.453   5.435  19.354  0.00  0.00    +0.000 C 
BRANCH  15  16
ATOM     16  C   UNL     1       3.259   4.562  18.520  0.00  0.00    +0.000 A 
ATOM     17  C   UNL     1       3.343   3.186  18.643  0.00  0.00    +0.000 A 
ATOM     18  N   UNL     1       4.183   2.711  17.674  0.00  0.00    +0.000 N 
ATOM     19  C   UNL     1       4.673   3.751  16.919  0.00  0.00    +0.000 A 
ATOM     20  C   UNL     1       5.561   3.734  15.835  0.00  0.00    +0.000 A 
ATOM     21  C   UNL     1       5.901   4.959  15.257  0.00  0.00    +0.000 A 
ATOM     22  C   UNL     1       5.367   6.151  15.740  0.00  0.00    +0.000 A 
ATOM     23  C   UNL     1       4.472   6.149  16.818  0.00  0.00    +0.000 A 
ATOM     24  C   UNL     1       4.114   4.928  17.428  0.00  0.00    +0.000 A 
ATOM     25  H   UNL     1       4.418   1.738  17.534  0.00  0.00    +0.000 HD
ENDBRANCH  15  16
ENDBRANCH   3  14
TORSDOF 4
ENDMDL
MODEL 8
REMARK VINA RESULT:      -7.3      1.787      2.207
REMARK  Name = 
REMARK  4 active torsions:
REMARK  status: ('A' for Active; 'I' for Inactive)
REMARK    1  A    between atoms: N_1  and  C_2
REMARK    2  A    between atoms: C_5  and  C_6
REMARK    3  A    between atoms: N_8  and  N_9
REMARK    4  A    between atoms: C_10  and  C_11
REMARK                            x       y       z     vdW  Elec       q    Type
REMARK                         _______ _______ _______ _____ _____    ______ ____
ROOT
ATOM      1  C   UNL     1       8.440   8.882  18.229  0.00  0.00    +0.000 C 
ATOM      2  O   UNL     1       7.799   9.016  17.187  0.00  0.00    +0.000 OA
ATOM      3  N   UNL     1       8.560   7.689  18.934  0.00  0.00    +0.000 N 
ATOM      4  H   UNL     1       9.004   7.656  19.843  0.00  0.00    +0.000 HD
ENDROOT
BRANCH   1   8
ATOM      5  C   UNL     1      10.480  12.358  19.770  0.00  0.00    +0.000 A 
ATOM      6  C   UNL     1      10.367  12.126  18.398  0.00  0.00    +0.000 A 
ATOM      7  C   UNL     1       9.712  10.986  17.921  0.00  0.00    +0.000 A 
ATOM      8  C   UNL     1       9.110  10.080  18.807  0.00  0.00    +0.000 A 
ATOM      9  C   UNL     1       9.186  10.330  20.181  0.00  0.00    +0.000 A 
ATOM     10  C   UNL     1       9.849  11.474  20.651  0.00  0.00    +0.000 A 
BRANCH   5  11
ATOM     11  N   UNL     1      11.009  13.567  20.236  0.00  0.00    +0.000 N 
ATOM     12  H   UNL     1      10.572  14.392  19.834  0.00  0.00    +0.000 HD
ATOM     13  H   UNL     1      12.022  13.619  20.207  0.00  0.00    +0.000 HD
ENDBRANCH   5  11
ENDBRANCH   1   8
BRANCH   3  14
ATOM     14  N   UNL     1       7.927   6.572  18.452  0.00  0.00    +0.000 NA
ATOM     15  C   UNL     1       6.664   6.674  18.190  0.00  0.00    +0.000 C 
BRANCH  15  16
ATOM     16  C   UNL     1       5.948   5.521  17.675  0.00  0.00    +0.000 A 
ATOM     17  C   UNL     1       6.510   4.479  16.958  0.00  0.00    +0.000 A 
ATOM     18  N   UNL     1       5.530   3.573  16.662  0.00  0.00    +0.000 N 
ATOM     19  C   UNL     1       4.320   4.004  17.154  0.00  0.00    +0.000 A 
ATOM     20  C   UNL     1       3.055   3.405  17.079  0.00  0.00    +0.000 A 
ATOM     21  C   UNL     1       1.983   4.082  17.666  0.00  0.00    +0.000 A 
ATOM     22  C   UNL     1       2.173   5.304  18.307  0.00  0.00    +0.000 A 
ATOM     23  C   UNL     1       3.446   5.883  18.382  0.00  0.00    +0.000 A 
ATOM     24  C   UNL     1       4.549   5.227  17.793  0.00  0.00    +0.000 A 
ATOM     25  H   UNL     1       5.669   2.713  16.148  0.00  0.00    +0.000 HD
ENDBRANCH  15  16
ENDBRANCH   3  14
TORSDOF 4
ENDMDL
MODEL 9
REMARK VINA RESULT:      -7.3      6.026      8.121
REMARK  Name = 
REMARK  4 active torsions:
REMARK  status: ('A' for Active; 'I' for Inactive)
REMARK    1  A    between atoms: N_1  and  C_2
REMARK    2  A    between atoms: C_5  and  C_6
REMARK    3  A    between atoms: N_8  and  N_9
REMARK    4  A    between atoms: C_10  and  C_11
REMARK                            x       y       z     vdW  Elec       q    Type
REMARK                         _______ _______ _______ _____ _____    ______ ____
ROOT
ATOM      1  C   UNL     1       1.044   9.236  19.006  0.00  0.00    +0.000 C 
ATOM      2  O   UNL     1       1.444   9.055  20.155  0.00  0.00    +0.000 OA
ATOM      3  N   UNL     1       1.695   8.785  17.862  0.00  0.00    +0.000 N 
ATOM      4  H   UNL     1       1.385   9.056  16.938  0.00  0.00    +0.000 HD
ENDROOT
BRANCH   1   8
ATOM      5  C   UNL     1      -2.560  11.493  18.268  0.00  0.00    +0.000 A 
ATOM      6  C   UNL     1      -2.132  10.492  17.393  0.00  0.00    +0.000 A 
ATOM      7  C   UNL     1      -0.954   9.782  17.645  0.00  0.00    +0.000 A 
ATOM      8  C   UNL     1      -0.206  10.022  18.808  0.00  0.00    +0.000 A 
ATOM      9  C   UNL     1      -0.652  10.995  19.707  0.00  0.00    +0.000 A 
ATOM     10  C   UNL     1      -1.833  11.706  19.443  0.00  0.00    +0.000 A 
BRANCH   5  11
ATOM     11  N   UNL     1      -3.807  12.098  18.085  0.00  0.00    +0.000 N 
ATOM     12  H   UNL     1      -4.595  11.468  18.207  0.00  0.00    +0.000 HD
ATOM     13  H   UNL     1      -3.886  12.647  17.235  0.00  0.00    +0.000 HD
ENDBRANCH   5  11
ENDBRANCH   1   8
BRANCH   3  14
ATOM     14  N   UNL     1       2.868   8.090  18.004  0.00  0.00    +0.000 NA
ATOM     15  C   UNL     1       2.784   6.804  18.117  0.00  0.00    +0.000 C 
BRANCH  15  16
ATOM     16  C   UNL     1       3.998   6.021  18.266  0.00  0.00    +0.000 A 
ATOM     17  C   UNL     1       4.448   5.454  19.446  0.00  0.00    +0.000 A 
ATOM     18  N   UNL     1       5.610   4.780  19.192  0.00  0.00    +0.000 N 
ATOM     19  C   UNL     1       5.950   4.903  17.864  0.00  0.00    +0.000 A 
ATOM     20  C   UNL     1       7.052   4.389  17.167  0.00  0.00    +0.000 A 
ATOM     21  C   UNL     1       7.153   4.686  15.806  0.00  0.00    +0.000 A 
ATOM     22  C   UNL     1       6.187   5.461  15.169  0.00  0.00    +0.000 A 
ATOM     23  C   UNL     1       5.086   5.958  15.879  0.00  0.00    +0.000 A 
ATOM     24  C   UNL     1       4.959   5.681  17.257  0.00  0.00    +0.000 A 
ATOM     25  H   UNL     1       6.149   4.270  19.878  0.00  0.00    +0.000 HD
ENDBRANCH  15  16
ENDBRANCH   3  14
TORSDOF 4
ENDMDL
