MODEL 1
REMARK VINA RESULT:      -6.7      0.000      0.000
REMARK  Name = 
REMARK  5 active torsions:
REMARK  status: ('A' for Active; 'I' for Inactive)
REMARK    1  A    between atoms: C_1  and  O_2
REMARK    2  A    between atoms: O_2  and  C_3
REMARK    3  A    between atoms: C_5  and  C_6
REMARK    4  A    between atoms: N_11  and  C_12
REMARK    5  A    between atoms: C_18  and  O_19
REMARK                            x       y       z     vdW  Elec       q    Type
REMARK                         _______ _______ _______ _____ _____    ______ ____
ROOT
ATOM      1  C   UNL     1       6.436   5.928  16.713  0.00  0.00    +0.000 A 
ATOM      2  C   UNL     1       5.541   6.268  17.736  0.00  0.00    +0.000 A 
ATOM      3  C   UNL     1       4.368   5.530  17.951  0.00  0.00    +0.000 A 
ATOM      4  C   UNL     1       4.119   4.412  17.138  0.00  0.00    +0.000 A 
ATOM      5 BR   UNL     1       2.557   3.342  17.335  0.00  0.00    +0.000 Br
ATOM      6  C   UNL     1       5.022   4.046  16.136  0.00  0.00    +0.000 A 
ATOM      7  C   UNL     1       6.175   4.803  15.924  0.00  0.00    +0.000 A 
ENDROOT
BRANCH   3   8
ATOM      8  C   UNL     1       3.447   5.970  19.010  0.00  0.00    +0.000 C 
ATOM      9  C   UNL     1       2.658   7.052  18.937  0.00  0.00    +0.000 C 
ATOM     10  S   UNL     1       2.501   8.143  17.616  0.00  0.00    +0.000 S 
ATOM     11  C   UNL     1       1.687   9.334  18.605  0.00  0.00    +0.000 C 
ATOM     12  O   UNL     1       1.484  10.479  18.223  0.00  0.00    +0.000 OA
ATOM     13  N   UNL     1       1.372   8.796  19.823  0.00  0.00    +0.000 N 
ATOM     14  C   UNL     1       0.652   9.555  20.818  0.00  0.00    +0.000 C 
ATOM     15  C   UNL     1       1.863   7.538  20.098  0.00  0.00    +0.000 C 
ATOM     16  O   UNL     1       1.718   6.917  21.140  0.00  0.00    +0.000 OA
ENDBRANCH   3   8
BRANCH   1  18
ATOM     17  C   UNL     1       7.656   7.724  17.666  0.00  0.00    +0.000 C 
ATOM     18  O   UNL     1       7.527   6.753  16.633  0.00  0.00    +0.000 OA
ENDBRANCH   1  18
BRANCH   7  19
ATOM     19  O   UNL     1       7.047   4.410  14.946  0.00  0.00    +0.000 OA
ATOM     20  H   UNL     1       7.956   4.452  15.286  0.00  0.00    +0.000 HD
ENDBRANCH   7  19
TORSDOF 3
ENDMDL
MODEL 2
REMARK VINA RESULT:      -6.7      2.906      4.098
REMARK  Name = 
REMARK  5 active torsions:
REMARK  status: ('A' for Active; 'I' for Inactive)
REMARK    1  A    between atoms: C_1  and  O_2
REMARK    2  A    between atoms: O_2  and  C_3
REMARK    3  A    between atoms: C_5  and  C_6
REMARK    4  A    between atoms: N_11  and  C_12
REMARK    5  A    between atoms: C_18  and  O_19
REMARK                            x       y       z     vdW  Elec       q    Type
REMARK                         _______ _______ _______ _____ _____    ______ ____
ROOT
ATOM      1  C   UNL     1       3.024   3.527  19.554  0.00  0.00    +0.000 A 
ATOM      2  C   UNL     1       2.585   4.782  19.110  0.00  0.00    +0.000 A 
ATOM      3  C   UNL     1       3.473   5.698  18.527  0.00  0.00    +0.000 A 
ATOM      4  C   UNL     1       4.815   5.320  18.360  0.00  0.00    +0.000 A 
ATOM      5 BR   UNL     1       6.108   6.484  17.586  0.00  0.00    +0.000 Br
ATOM      6  C   UNL     1       5.255   4.058  18.770  0.00  0.00    +0.000 A 
ATOM      7  C   UNL     1       4.362   3.166  19.366  0.00  0.00    +0.000 A 
ENDROOT
BRANCH   3   8
ATOM      8  C   UNL     1       2.957   7.017  18.128  0.00  0.00    +0.000 C 
ATOM      9  C   UNL     1       2.271   7.845  18.930  0.00  0.00    +0.000 C 
ATOM     10  S   UNL     1       1.865   7.598  20.584  0.00  0.00    +0.000 S 
ATOM     11  C   UNL     1       0.687   8.890  20.560  0.00  0.00    +0.000 C 
ATOM     12  O   UNL     1      -0.111   9.071  21.470  0.00  0.00    +0.000 OA
ATOM     13  N   UNL     1       0.788   9.596  19.391  0.00  0.00    +0.000 N 
ATOM     14  C   UNL     1      -0.042  10.749  19.133  0.00  0.00    +0.000 C 
ATOM     15  C   UNL     1       1.640   9.096  18.430  0.00  0.00    +0.000 C 
ATOM     16  O   UNL     1       1.830   9.565  17.318  0.00  0.00    +0.000 OA
ENDBRANCH   3   8
BRANCH   1  18
ATOM     17  C   UNL     1       1.799   2.939  21.497  0.00  0.00    +0.000 C 
ATOM     18  O   UNL     1       2.034   2.756  20.106  0.00  0.00    +0.000 OA
ENDBRANCH   1  18
BRANCH   7  19
ATOM     19  O   UNL     1       4.819   1.933  19.741  0.00  0.00    +0.000 OA
ATOM     20  H   UNL     1       5.361   2.017  20.543  0.00  0.00    +0.000 HD
ENDBRANCH   7  19
TORSDOF 3
ENDMDL
MODEL 3
REMARK VINA RESULT:      -6.6      2.709      3.986
REMARK  Name = 
REMARK  5 active torsions:
REMARK  status: ('A' for Active; 'I' for Inactive)
REMARK    1  A    between atoms: C_1  and  O_2
REMARK    2  A    between atoms: O_2  and  C_3
REMARK    3  A    between atoms: C_5  and  C_6
REMARK    4  A    between atoms: N_11  and  C_12
REMARK    5  A    between atoms: C_18  and  O_19
REMARK                            x       y       z     vdW  Elec       q    Type
REMARK                         _______ _______ _______ _____ _____    ______ ____
ROOT
ATOM      1  C   UNL     1       2.451   3.472  18.163  0.00  0.00    +0.000 A 
ATOM      2  C   UNL     1       2.146   4.835  18.043  0.00  0.00    +0.000 A 
ATOM      3  C   UNL     1       3.143   5.782  17.768  0.00  0.00    +0.000 A 
ATOM      4  C   UNL     1       4.461   5.335  17.577  0.00  0.00    +0.000 A 
ATOM      5 BR   UNL     1       5.894   6.530  17.206  0.00  0.00    +0.000 Br
ATOM      6  C   UNL     1       4.769   3.974  17.664  0.00  0.00    +0.000 A 
ATOM      7  C   UNL     1       3.768   3.047  17.958  0.00  0.00    +0.000 A 
ENDROOT
BRANCH   3   8
ATOM      8  C   UNL     1       2.763   7.201  17.703  0.00  0.00    +0.000 C 
ATOM      9  C   UNL     1       2.252   7.904  18.725  0.00  0.00    +0.000 C 
ATOM     10  S   UNL     1       1.956   7.352  20.327  0.00  0.00    +0.000 S 
ATOM     11  C   UNL     1       0.947   8.733  20.692  0.00  0.00    +0.000 C 
ATOM     12  O   UNL     1       0.255   8.796  21.700  0.00  0.00    +0.000 OA
ATOM     13  N   UNL     1       1.039   9.659  19.688  0.00  0.00    +0.000 N 
ATOM     14  C   UNL     1       0.338  10.920  19.760  0.00  0.00    +0.000 C 
ATOM     15  C   UNL     1       1.740   9.292  18.561  0.00  0.00    +0.000 C 
ATOM     16  O   UNL     1       1.895   9.967  17.554  0.00  0.00    +0.000 OA
ENDBRANCH   3   8
BRANCH   1  18
ATOM     17  C   UNL     1       0.808   2.819  19.743  0.00  0.00    +0.000 C 
ATOM     18  O   UNL     1       1.366   2.683  18.441  0.00  0.00    +0.000 OA
ENDBRANCH   1  18
BRANCH   7  19
ATOM     19  O   UNL     1       4.098   1.722  18.019  0.00  0.00    +0.000 OA
ATOM     20  H   UNL     1       5.014   1.629  18.330  0.00  0.00    +0.000 HD
ENDBRANCH   7  19
TORSDOF 3
ENDMDL
MODEL 4
REMARK VINA RESULT:      -6.5      1.049      1.092
REMARK  Name = 
REMARK  5 active torsions:
REMARK  status: ('A' for Active; 'I' for Inactive)
REMARK    1  A    between atoms: C_1  and  O_2
REMARK    2  A    between atoms: O_2  and  C_3
REMARK    3  A    between atoms: C_5  and  C_6
REMARK    4  A    between atoms: N_11  and  C_12
REMARK    5  A    between atoms: C_18  and  O_19
REMARK                            x       y       z     vdW  Elec       q    Type
REMARK                         _______ _______ _______ _____ _____    ______ ____
ROOT
ATOM      1  C   UNL     1       5.950   5.271  17.597  0.00  0.00    +0.000 A 
ATOM      2  C   UNL     1       5.089   5.892  18.512  0.00  0.00    +0.000 A 
ATOM      3  C   UNL     1       3.740   5.522  18.607  0.00  0.00    +0.000 A 
ATOM      4  C   UNL     1       3.268   4.484  17.786  0.00  0.00    +0.000 A 
ATOM      5 BR   UNL     1       1.455   3.905  17.826  0.00  0.00    +0.000 Br
ATOM      6  C   UNL     1       4.126   3.838  16.893  0.00  0.00    +0.000 A 
ATOM      7  C   UNL     1       5.462   4.232  16.798  0.00  0.00    +0.000 A 
ENDROOT
BRANCH   3   8
ATOM      8  C   UNL     1       2.879   6.247  19.554  0.00  0.00    +0.000 C 
ATOM      9  C   UNL     1       2.259   7.407  19.291  0.00  0.00    +0.000 C 
ATOM     10  S   UNL     1       2.281   8.291  17.815  0.00  0.00    +0.000 S 
ATOM     11  C   UNL     1       1.638   9.725  18.584  0.00  0.00    +0.000 C 
ATOM     12  O   UNL     1       1.611  10.815  18.027  0.00  0.00    +0.000 OA
ATOM     13  N   UNL     1       1.231   9.432  19.857  0.00  0.00    +0.000 N 
ATOM     14  C   UNL     1       0.617  10.431  20.700  0.00  0.00    +0.000 C 
ATOM     15  C   UNL     1       1.528   8.175  20.336  0.00  0.00    +0.000 C 
ATOM     16  O   UNL     1       1.279   7.750  21.454  0.00  0.00    +0.000 OA
ENDBRANCH   3   8
BRANCH   1  18
ATOM     17  C   UNL     1       7.813   5.915  18.916  0.00  0.00    +0.000 C 
ATOM     18  O   UNL     1       7.233   5.753  17.626  0.00  0.00    +0.000 OA
ENDBRANCH   1  18
BRANCH   7  19
ATOM     19  O   UNL     1       6.281   3.568  15.927  0.00  0.00    +0.000 OA
ATOM     20  H   UNL     1       6.517   2.702  16.297  0.00  0.00    +0.000 HD
ENDBRANCH   7  19
TORSDOF 3
ENDMDL
MODEL 5
REMARK VINA RESULT:      -6.5      2.815      4.092
REMARK  Name = 
REMARK  5 active torsions:
REMARK  status: ('A' for Active; 'I' for Inactive)
REMARK    1  A    between atoms: C_1  and  O_2
REMARK    2  A    between atoms: O_2  and  C_3
REMARK    3  A    between atoms: C_5  and  C_6
REMARK    4  A    between atoms: N_11  and  C_12
REMARK    5  A    between atoms: C_18  and  O_19
REMARK                            x       y       z     vdW  Elec       q    Type
REMARK                         _______ _______ _______ _____ _____    ______ ____
ROOT
ATOM      1  C   UNL     1       5.971   4.186  13.871  0.00  0.00    +0.000 A 
ATOM      2  C   UNL     1       5.220   3.753  14.973  0.00  0.00    +0.000 A 
ATOM      3  C   UNL     1       5.632   4.024  16.285  0.00  0.00    +0.000 A 
ATOM      4  C   UNL     1       6.804   4.775  16.480  0.00  0.00    +0.000 A 
ATOM      5 BR   UNL     1       7.460   5.197  18.216  0.00  0.00    +0.000 Br
ATOM      6  C   UNL     1       7.542   5.238  15.387  0.00  0.00    +0.000 A 
ATOM      7  C   UNL     1       7.127   4.942  14.088  0.00  0.00    +0.000 A 
ENDROOT
BRANCH   3   8
ATOM      8  C   UNL     1       4.825   3.499  17.397  0.00  0.00    +0.000 C 
ATOM      9  C   UNL     1       3.932   4.212  18.098  0.00  0.00    +0.000 C 
ATOM     10  S   UNL     1       3.493   5.859  17.860  0.00  0.00    +0.000 S 
ATOM     11  C   UNL     1       2.710   5.949  19.421  0.00  0.00    +0.000 C 
ATOM     12  O   UNL     1       2.347   7.008  19.916  0.00  0.00    +0.000 OA
ATOM     13  N   UNL     1       2.615   4.699  19.971  0.00  0.00    +0.000 N 
ATOM     14  C   UNL     1       1.967   4.483  21.243  0.00  0.00    +0.000 C 
ATOM     15  C   UNL     1       3.258   3.675  19.311  0.00  0.00    +0.000 C 
ATOM     16  O   UNL     1       3.316   2.508  19.669  0.00  0.00    +0.000 OA
ENDBRANCH   3   8
BRANCH   1  18
ATOM     17  C   UNL     1       6.029   2.713  12.014  0.00  0.00    +0.000 C 
ATOM     18  O   UNL     1       5.434   3.832  12.660  0.00  0.00    +0.000 OA
ENDBRANCH   1  18
BRANCH   7  19
ATOM     19  O   UNL     1       7.861   5.424  13.039  0.00  0.00    +0.000 OA
ATOM     20  H   UNL     1       8.778   5.568  13.324  0.00  0.00    +0.000 HD
ENDBRANCH   7  19
TORSDOF 3
ENDMDL
MODEL 6
REMARK VINA RESULT:      -6.3      2.404      2.926
REMARK  Name = 
REMARK  5 active torsions:
REMARK  status: ('A' for Active; 'I' for Inactive)
REMARK    1  A    between atoms: C_1  and  O_2
REMARK    2  A    between atoms: O_2  and  C_3
REMARK    3  A    between atoms: C_5  and  C_6
REMARK    4  A    between atoms: N_11  and  C_12
REMARK    5  A    between atoms: C_18  and  O_19
REMARK                            x       y       z     vdW  Elec       q    Type
REMARK                         _______ _______ _______ _____ _____    ______ ____
ROOT
ATOM      1  C   UNL     1       5.480   4.710  19.384  0.00  0.00    +0.000 A 
ATOM      2  C   UNL     1       4.864   5.918  19.030  0.00  0.00    +0.000 A 
ATOM      3  C   UNL     1       3.567   5.944  18.499  0.00  0.00    +0.000 A 
ATOM      4  C   UNL     1       2.873   4.731  18.358  0.00  0.00    +0.000 A 
ATOM      5 BR   UNL     1       1.112   4.647  17.643  0.00  0.00    +0.000 Br
ATOM      6  C   UNL     1       3.468   3.524  18.737  0.00  0.00    +0.000 A 
ATOM      7  C   UNL     1       4.767   3.514  19.247  0.00  0.00    +0.000 A 
ENDROOT
BRANCH   3   8
ATOM      8  C   UNL     1       2.998   7.242  18.103  0.00  0.00    +0.000 C 
ATOM      9  C   UNL     1       2.241   8.018  18.891  0.00  0.00    +0.000 C 
ATOM     10  S   UNL     1       1.790   7.722  20.525  0.00  0.00    +0.000 S 
ATOM     11  C   UNL     1       0.547   8.951  20.479  0.00  0.00    +0.000 C 
ATOM     12  O   UNL     1      -0.291   9.074  21.363  0.00  0.00    +0.000 OA
ATOM     13  N   UNL     1       0.652   9.682  19.326  0.00  0.00    +0.000 N 
ATOM     14  C   UNL     1      -0.228  10.794  19.056  0.00  0.00    +0.000 C 
ATOM     15  C   UNL     1       1.563   9.244  18.389  0.00  0.00    +0.000 C 
ATOM     16  O   UNL     1       1.767   9.742  17.293  0.00  0.00    +0.000 OA
ENDBRANCH   3   8
BRANCH   1  18
ATOM     17  C   UNL     1       7.568   5.823  19.230  0.00  0.00    +0.000 C 
ATOM     18  O   UNL     1       6.749   4.858  19.880  0.00  0.00    +0.000 OA
ENDBRANCH   1  18
BRANCH   7  19
ATOM     19  O   UNL     1       5.315   2.320  19.625  0.00  0.00    +0.000 OA
ATOM     20  H   UNL     1       4.961   2.059  20.491  0.00  0.00    +0.000 HD
ENDBRANCH   7  19
TORSDOF 3
ENDMDL
MODEL 7
REMARK VINA RESULT:      -5.9      2.369      6.242
REMARK  Name = 
REMARK  5 active torsions:
REMARK  status: ('A' for Active; 'I' for Inactive)
REMARK    1  A    between atoms: C_1  and  O_2
REMARK    2  A    between atoms: O_2  and  C_3
REMARK    3  A    between atoms: C_5  and  C_6
REMARK    4  A    between atoms: N_11  and  C_12
REMARK    5  A    between atoms: C_18  and  O_19
REMARK                            x       y       z     vdW  Elec       q    Type
REMARK                         _______ _______ _______ _____ _____    ______ ____
ROOT
ATOM      1  C   UNL     1       1.733   8.536  19.264  0.00  0.00    +0.000 A 
ATOM      2  C   UNL     1       2.300   7.627  18.360  0.00  0.00    +0.000 A 
ATOM      3  C   UNL     1       2.556   6.299  18.728  0.00  0.00    +0.000 A 
ATOM      4  C   UNL     1       2.200   5.879  20.021  0.00  0.00    +0.000 A 
ATOM      5 BR   UNL     1       2.507   4.102  20.630  0.00  0.00    +0.000 Br
ATOM      6  C   UNL     1       1.606   6.770  20.919  0.00  0.00    +0.000 A 
ATOM      7  C   UNL     1       1.375   8.094  20.542  0.00  0.00    +0.000 A 
ENDROOT
BRANCH   3   8
ATOM      8  C   UNL     1       3.198   5.410  17.747  0.00  0.00    +0.000 C 
ATOM      9  C   UNL     1       4.487   5.475  17.384  0.00  0.00    +0.000 C 
ATOM     10  S   UNL     1       5.687   6.555  17.980  0.00  0.00    +0.000 S 
ATOM     11  C   UNL     1       6.776   6.184  16.663  0.00  0.00    +0.000 C 
ATOM     12  O   UNL     1       7.787   6.836  16.441  0.00  0.00    +0.000 OA
ATOM     13  N   UNL     1       6.300   5.118  15.947  0.00  0.00    +0.000 N 
ATOM     14  C   UNL     1       7.034   4.575  14.829  0.00  0.00    +0.000 C 
ATOM     15  C   UNL     1       5.044   4.656  16.274  0.00  0.00    +0.000 C 
ATOM     16  O   UNL     1       4.444   3.745  15.723  0.00  0.00    +0.000 OA
ENDBRANCH   3   8
BRANCH   1  18
ATOM     17  C   UNL     1       0.257  10.089  18.249  0.00  0.00    +0.000 C 
ATOM     18  O   UNL     1       1.556   9.794  18.750  0.00  0.00    +0.000 OA
ENDBRANCH   1  18
BRANCH   7  19
ATOM     19  O   UNL     1       0.777   8.936  21.438  0.00  0.00    +0.000 OA
ATOM     20  H   UNL     1       0.704   9.824  21.051  0.00  0.00    +0.000 HD
ENDBRANCH   7  19
TORSDOF 3
ENDMDL
MODEL 8
REMARK VINA RESULT:      -5.7      3.841      6.486
REMARK  Name = 
REMARK  5 active torsions:
REMARK  status: ('A' for Active; 'I' for Inactive)
REMARK    1  A    between atoms: C_1  and  O_2
REMARK    2  A    between atoms: O_2  and  C_3
REMARK    3  A    between atoms: C_5  and  C_6
REMARK    4  A    between atoms: N_11  and  C_12
REMARK    5  A    between atoms: C_18  and  O_19
REMARK                            x       y       z     vdW  Elec       q    Type
REMARK                         _______ _______ _______ _____ _____    ______ ____
ROOT
ATOM      1  C   UNL     1       3.694   2.313  20.877  0.00  0.00    +0.000 A 
ATOM      2  C   UNL     1       4.278   2.411  19.606  0.00  0.00    +0.000 A 
ATOM      3  C   UNL     1       3.662   3.139  18.578  0.00  0.00    +0.000 A 
ATOM      4  C   UNL     1       2.455   3.804  18.854  0.00  0.00    +0.000 A 
ATOM      5 BR   UNL     1       1.529   4.814  17.533  0.00  0.00    +0.000 Br
ATOM      6  C   UNL     1       1.882   3.737  20.127  0.00  0.00    +0.000 A 
ATOM      7  C   UNL     1       2.499   2.993  21.133  0.00  0.00    +0.000 A 
ENDROOT
BRANCH   3   8
ATOM      8  C   UNL     1       4.302   3.161  17.254  0.00  0.00    +0.000 C 
ATOM      9  C   UNL     1       5.364   3.914  16.930  0.00  0.00    +0.000 C 
ATOM     10  S   UNL     1       6.239   4.982  17.958  0.00  0.00    +0.000 S 
ATOM     11  C   UNL     1       7.031   5.751  16.601  0.00  0.00    +0.000 C 
ATOM     12  O   UNL     1       7.677   6.784  16.715  0.00  0.00    +0.000 OA
ATOM     13  N   UNL     1       6.781   5.049  15.452  0.00  0.00    +0.000 N 
ATOM     14  C   UNL     1       7.356   5.444  14.188  0.00  0.00    +0.000 C 
ATOM     15  C   UNL     1       5.874   4.016  15.536  0.00  0.00    +0.000 C 
ATOM     16  O   UNL     1       5.499   3.307  14.614  0.00  0.00    +0.000 OA
ENDBRANCH   3   8
BRANCH   1  18
ATOM     17  C   UNL     1       5.492   0.804  21.214  0.00  0.00    +0.000 C 
ATOM     18  O   UNL     1       4.419   1.560  21.763  0.00  0.00    +0.000 OA
ENDBRANCH   1  18
BRANCH   7  19
ATOM     19  O   UNL     1       1.922   2.961  22.373  0.00  0.00    +0.000 OA
ATOM     20  H   UNL     1       1.976   2.061  22.734  0.00  0.00    +0.000 HD
ENDBRANCH   7  19
TORSDOF 3
ENDMDL
MODEL 9
REMARK VINA RESULT:      -5.7      3.854      4.958
REMARK  Name = 
REMARK  5 active torsions:
REMARK  status: ('A' for Active; 'I' for Inactive)
REMARK    1  A    between atoms: C_1  and  O_2
REMARK    2  A    between atoms: O_2  and  C_3
REMARK    3  A    between atoms: C_5  and  C_6
REMARK    4  A    between atoms: N_11  and  C_12
REMARK    5  A    between atoms: C_18  and  O_19
REMARK                            x       y       z     vdW  Elec       q    Type
REMARK                         _______ _______ _______ _____ _____    ______ ____
ROOT
ATOM      1  C   UNL     1       6.232   4.135  14.166  0.00  0.00    +0.000 A 
ATOM      2  C   UNL     1       5.109   3.976  14.991  0.00  0.00    +0.000 A 
ATOM      3  C   UNL     1       4.875   4.837  16.073  0.00  0.00    +0.000 A 
ATOM      4  C   UNL     1       5.774   5.893  16.300  0.00  0.00    +0.000 A 
ATOM      5 BR   UNL     1       5.558   7.116  17.741  0.00  0.00    +0.000 Br
ATOM      6  C   UNL     1       6.879   6.077  15.464  0.00  0.00    +0.000 A 
ATOM      7  C   UNL     1       7.107   5.200  14.402  0.00  0.00    +0.000 A 
ENDROOT
BRANCH   3   8
ATOM      8  C   UNL     1       3.705   4.585  16.928  0.00  0.00    +0.000 C 
ATOM      9  C   UNL     1       3.756   4.060  18.161  0.00  0.00    +0.000 C 
ATOM     10  S   UNL     1       5.161   3.596  19.040  0.00  0.00    +0.000 S 
ATOM     11  C   UNL     1       4.220   2.684  20.199  0.00  0.00    +0.000 C 
ATOM     12  O   UNL     1       4.732   1.925  21.012  0.00  0.00    +0.000 OA
ATOM     13  N   UNL     1       2.886   2.931  20.018  0.00  0.00    +0.000 N 
ATOM     14  C   UNL     1       1.887   2.337  20.875  0.00  0.00    +0.000 C 
ATOM     15  C   UNL     1       2.532   3.683  18.919  0.00  0.00    +0.000 C 
ATOM     16  O   UNL     1       1.396   3.971  18.576  0.00  0.00    +0.000 OA
ENDBRANCH   3   8
BRANCH   1  18
ATOM     17  C   UNL     1       5.363   3.332  12.111  0.00  0.00    +0.000 C 
ATOM     18  O   UNL     1       6.316   3.208  13.161  0.00  0.00    +0.000 OA
ENDBRANCH   1  18
BRANCH   7  19
ATOM     19  O   UNL     1       8.187   5.417  13.592  0.00  0.00    +0.000 OA
ATOM     20  H   UNL     1       8.992   5.098  14.032  0.00  0.00    +0.000 HD
ENDBRANCH   7  19
TORSDOF 3
ENDMDL
