MODEL 1
REMARK VINA RESULT:      -7.6      0.000      0.000
REMARK  Name = 
REMARK  7 active torsions:
REMARK  status: ('A' for Active; 'I' for Inactive)
REMARK    1  A    between atoms: C_2  and  C_3
REMARK    2  A    between atoms: N_9  and  C_10
REMARK    3  A    between atoms: N_9  and  C_18
REMARK    4  A    between atoms: C_10  and  C_11
REMARK    5  A    between atoms: C_11  and  C_12
REMARK    6  A    between atoms: C_12  and  N_13
REMARK    7  A    between atoms: C_18  and  C_19
REMARK                            x       y       z     vdW  Elec       q    Type
REMARK                         _______ _______ _______ _____ _____    ______ ____
ROOT
ATOM      1  O   UNL     1       7.328   6.053  16.255  0.00  0.00    +0.000 OA
ATOM      2  C   UNL     1       6.447   5.273  15.898  0.00  0.00    +0.000 C 
ATOM      3  N   UNL     1       5.482   4.785  16.801  0.00  0.00    +0.000 N 
ENDROOT
BRANCH   2   4
ATOM      4  C   UNL     1       6.514   4.808  14.477  0.00  0.00    +0.000 A 
ATOM      5  C   UNL     1       7.567   5.286  13.681  0.00  0.00    +0.000 A 
ATOM      6  C   UNL     1       7.757   4.802  12.382  0.00  0.00    +0.000 A 
ATOM      7  C   UNL     1       6.912   3.818  11.876  0.00  0.00    +0.000 A 
ATOM      8  C   UNL     1       5.830   3.382  12.636  0.00  0.00    +0.000 A 
ATOM      9  C   UNL     1       5.597   3.918  13.907  0.00  0.00    +0.000 A 
ENDBRANCH   2   4
BRANCH   3  10
ATOM     10  C   UNL     1       4.402   3.830  16.515  0.00  0.00    +0.000 C 
BRANCH  10  11
ATOM     11  C   UNL     1       4.161   2.747  17.569  0.00  0.00    +0.000 C 
BRANCH  11  12
ATOM     12  C   UNL     1       2.697   2.359  17.716  0.00  0.00    +0.000 C 
BRANCH  12  13
ATOM     13  N   UNL     1       2.222   2.640  19.059  0.00  0.00    +0.000 N 
ATOM     14  C   UNL     1       2.926   2.464  20.217  0.00  0.00    +0.000 A 
ATOM     15  C   UNL     1       2.073   2.879  21.214  0.00  0.00    +0.000 A 
ATOM     16  N   UNL     1       0.884   3.312  20.687  0.00  0.00    +0.000 NA
ATOM     17  C   UNL     1       1.005   3.165  19.387  0.00  0.00    +0.000 A 
ENDBRANCH  12  13
ENDBRANCH  11  12
ENDBRANCH  10  11
ENDBRANCH   3  10
BRANCH   3  18
ATOM     18  C   UNL     1       5.470   5.381  18.151  0.00  0.00    +0.000 C 
BRANCH  18  19
ATOM     19  C   UNL     1       4.275   6.273  18.428  0.00  0.00    +0.000 A 
ATOM     20  C   UNL     1       3.916   7.306  17.546  0.00  0.00    +0.000 A 
ATOM     21  C   UNL     1       2.791   8.102  17.798  0.00  0.00    +0.000 A 
ATOM     22  C   UNL     1       2.010   7.873  18.928  0.00  0.00    +0.000 A 
ATOM     23  C   UNL     1       2.343   6.839  19.800  0.00  0.00    +0.000 A 
ATOM     24  C   UNL     1       3.465   6.046  19.550  0.00  0.00    +0.000 A 
ENDBRANCH  18  19
ENDBRANCH   3  18
TORSDOF 7
ENDMDL
MODEL 2
REMARK VINA RESULT:      -7.5      3.112      6.484
REMARK  Name = 
REMARK  7 active torsions:
REMARK  status: ('A' for Active; 'I' for Inactive)
REMARK    1  A    between atoms: C_2  and  C_3
REMARK    2  A    between atoms: N_9  and  C_10
REMARK    3  A    between atoms: N_9  and  C_18
REMARK    4  A    between atoms: C_10  and  C_11
REMARK    5  A    between atoms: C_11  and  C_12
REMARK    6  A    between atoms: C_12  and  N_13
REMARK    7  A    between atoms: C_18  and  C_19
REMARK                            x       y       z     vdW  Elec       q    Type
REMARK                         _______ _______ _______ _____ _____    ______ ____
ROOT
ATOM      1  O   UNL     1       2.447   8.249  17.653  0.00  0.00    +0.000 OA
ATOM      2  C   UNL     1       2.247   7.749  18.758  0.00  0.00    +0.000 C 
ATOM      3  N   UNL     1       2.650   6.433  19.058  0.00  0.00    +0.000 N 
ENDROOT
BRANCH   2   4
ATOM      4  C   UNL     1       1.478   8.587  19.732  0.00  0.00    +0.000 A 
ATOM      5  C   UNL     1       0.720   9.653  19.220  0.00  0.00    +0.000 A 
ATOM      6  C   UNL     1      -0.114  10.401  20.058  0.00  0.00    +0.000 A 
ATOM      7  C   UNL     1      -0.218  10.076  21.407  0.00  0.00    +0.000 A 
ATOM      8  C   UNL     1       0.574   9.059  21.934  0.00  0.00    +0.000 A 
ATOM      9  C   UNL     1       1.462   8.358  21.111  0.00  0.00    +0.000 A 
ENDBRANCH   2   4
BRANCH   3  10
ATOM     10  C   UNL     1       2.445   5.708  20.321  0.00  0.00    +0.000 C 
BRANCH  10  11
ATOM     11  C   UNL     1       1.177   4.858  20.413  0.00  0.00    +0.000 C 
BRANCH  11  12
ATOM     12  C   UNL     1       1.451   3.391  20.714  0.00  0.00    +0.000 C 
BRANCH  12  13
ATOM     13  N   UNL     1       2.144   2.759  19.606  0.00  0.00    +0.000 N 
ATOM     14  C   UNL     1       3.391   2.203  19.647  0.00  0.00    +0.000 A 
ATOM     15  C   UNL     1       3.605   1.722  18.375  0.00  0.00    +0.000 A 
ATOM     16  N   UNL     1       2.515   1.961  17.577  0.00  0.00    +0.000 NA
ATOM     17  C   UNL     1       1.648   2.579  18.347  0.00  0.00    +0.000 A 
ENDBRANCH  12  13
ENDBRANCH  11  12
ENDBRANCH  10  11
ENDBRANCH   3  10
BRANCH   3  18
ATOM     18  C   UNL     1       3.472   5.740  18.047  0.00  0.00    +0.000 C 
BRANCH  18  19
ATOM     19  C   UNL     1       4.962   5.990  18.178  0.00  0.00    +0.000 A 
ATOM     20  C   UNL     1       5.732   5.324  19.147  0.00  0.00    +0.000 A 
ATOM     21  C   UNL     1       7.112   5.541  19.236  0.00  0.00    +0.000 A 
ATOM     22  C   UNL     1       7.742   6.420  18.357  0.00  0.00    +0.000 A 
ATOM     23  C   UNL     1       6.994   7.071  17.379  0.00  0.00    +0.000 A 
ATOM     24  C   UNL     1       5.617   6.855  17.290  0.00  0.00    +0.000 A 
ENDBRANCH  18  19
ENDBRANCH   3  18
TORSDOF 7
ENDMDL
MODEL 3
REMARK VINA RESULT:      -7.5      0.841      5.385
REMARK  Name = 
REMARK  7 active torsions:
REMARK  status: ('A' for Active; 'I' for Inactive)
REMARK    1  A    between atoms: C_2  and  C_3
REMARK    2  A    between atoms: N_9  and  C_10
REMARK    3  A    between atoms: N_9  and  C_18
REMARK    4  A    between atoms: C_10  and  C_11
REMARK    5  A    between atoms: C_11  and  C_12
REMARK    6  A    between atoms: C_12  and  N_13
REMARK    7  A    between atoms: C_18  and  C_19
REMARK                            x       y       z     vdW  Elec       q    Type
REMARK                         _______ _______ _______ _____ _____    ______ ____
ROOT
ATOM      1  O   UNL     1       6.127   6.986  16.931  0.00  0.00    +0.000 OA
ATOM      2  C   UNL     1       5.175   6.233  17.125  0.00  0.00    +0.000 C 
ATOM      3  N   UNL     1       5.208   4.881  16.730  0.00  0.00    +0.000 N 
ENDROOT
BRANCH   2   4
ATOM      4  C   UNL     1       3.952   6.857  17.723  0.00  0.00    +0.000 A 
ATOM      5  C   UNL     1       3.456   6.307  18.916  0.00  0.00    +0.000 A 
ATOM      6  C   UNL     1       2.389   6.912  19.591  0.00  0.00    +0.000 A 
ATOM      7  C   UNL     1       1.825   8.083  19.093  0.00  0.00    +0.000 A 
ATOM      8  C   UNL     1       2.273   8.601  17.880  0.00  0.00    +0.000 A 
ATOM      9  C   UNL     1       3.290   7.957  17.169  0.00  0.00    +0.000 A 
ENDBRANCH   2   4
BRANCH   3  10
ATOM     10  C   UNL     1       4.134   3.888  16.873  0.00  0.00    +0.000 C 
BRANCH  10  11
ATOM     11  C   UNL     1       4.297   2.875  18.007  0.00  0.00    +0.000 C 
BRANCH  11  12
ATOM     12  C   UNL     1       3.017   2.121  18.335  0.00  0.00    +0.000 C 
BRANCH  12  13
ATOM     13  N   UNL     1       2.562   2.437  19.677  0.00  0.00    +0.000 N 
ATOM     14  C   UNL     1       1.279   2.730  20.046  0.00  0.00    +0.000 A 
ATOM     15  C   UNL     1       1.343   2.939  21.404  0.00  0.00    +0.000 A 
ATOM     16  N   UNL     1       2.623   2.765  21.863  0.00  0.00    +0.000 NA
ATOM     17  C   UNL     1       3.334   2.455  20.802  0.00  0.00    +0.000 A 
ENDBRANCH  12  13
ENDBRANCH  11  12
ENDBRANCH  10  11
ENDBRANCH   3  10
BRANCH   3  18
ATOM     18  C   UNL     1       6.497   4.365  16.229  0.00  0.00    +0.000 C 
BRANCH  18  19
ATOM     19  C   UNL     1       6.623   4.368  14.717  0.00  0.00    +0.000 A 
ATOM     20  C   UNL     1       7.562   5.187  14.065  0.00  0.00    +0.000 A 
ATOM     21  C   UNL     1       7.689   5.156  12.671  0.00  0.00    +0.000 A 
ATOM     22  C   UNL     1       6.887   4.307  11.912  0.00  0.00    +0.000 A 
ATOM     23  C   UNL     1       5.967   3.476  12.547  0.00  0.00    +0.000 A 
ATOM     24  C   UNL     1       5.839   3.506  13.938  0.00  0.00    +0.000 A 
ENDBRANCH  18  19
ENDBRANCH   3  18
TORSDOF 7
ENDMDL
MODEL 4
REMARK VINA RESULT:      -7.5      0.205      1.001
REMARK  Name = 
REMARK  7 active torsions:
REMARK  status: ('A' for Active; 'I' for Inactive)
REMARK    1  A    between atoms: C_2  and  C_3
REMARK    2  A    between atoms: N_9  and  C_10
REMARK    3  A    between atoms: N_9  and  C_18
REMARK    4  A    between atoms: C_10  and  C_11
REMARK    5  A    between atoms: C_11  and  C_12
REMARK    6  A    between atoms: C_12  and  N_13
REMARK    7  A    between atoms: C_18  and  C_19
REMARK                            x       y       z     vdW  Elec       q    Type
REMARK                         _______ _______ _______ _____ _____    ______ ____
ROOT
ATOM      1  O   UNL     1       7.432   6.079  16.400  0.00  0.00    +0.000 OA
ATOM      2  C   UNL     1       6.579   5.287  16.004  0.00  0.00    +0.000 C 
ATOM      3  N   UNL     1       5.567   4.803  16.858  0.00  0.00    +0.000 N 
ENDROOT
BRANCH   2   4
ATOM      4  C   UNL     1       6.728   4.805  14.595  0.00  0.00    +0.000 A 
ATOM      5  C   UNL     1       5.839   3.815  14.146  0.00  0.00    +0.000 A 
ATOM      6  C   UNL     1       5.845   3.404  12.808  0.00  0.00    +0.000 A 
ATOM      7  C   UNL     1       6.723   3.994  11.903  0.00  0.00    +0.000 A 
ATOM      8  C   UNL     1       7.648   4.933  12.354  0.00  0.00    +0.000 A 
ATOM      9  C   UNL     1       7.690   5.292  13.705  0.00  0.00    +0.000 A 
ENDBRANCH   2   4
BRANCH   3  10
ATOM     10  C   UNL     1       4.512   3.836  16.524  0.00  0.00    +0.000 C 
BRANCH  10  11
ATOM     11  C   UNL     1       4.228   2.758  17.571  0.00  0.00    +0.000 C 
BRANCH  11  12
ATOM     12  C   UNL     1       2.744   2.494  17.782  0.00  0.00    +0.000 C 
BRANCH  12  13
ATOM     13  N   UNL     1       2.367   2.743  19.163  0.00  0.00    +0.000 N 
ATOM     14  C   UNL     1       3.182   2.628  20.253  0.00  0.00    +0.000 A 
ATOM     15  C   UNL     1       2.389   2.979  21.322  0.00  0.00    +0.000 A 
ATOM     16  N   UNL     1       1.128   3.315  20.902  0.00  0.00    +0.000 NA
ATOM     17  C   UNL     1       1.146   3.171  19.596  0.00  0.00    +0.000 A 
ENDBRANCH  12  13
ENDBRANCH  11  12
ENDBRANCH  10  11
ENDBRANCH   3  10
BRANCH   3  18
ATOM     18  C   UNL     1       5.475   5.416  18.197  0.00  0.00    +0.000 C 
BRANCH  18  19
ATOM     19  C   UNL     1       4.271   6.318  18.388  0.00  0.00    +0.000 A 
ATOM     20  C   UNL     1       3.957   7.322  17.457  0.00  0.00    +0.000 A 
ATOM     21  C   UNL     1       2.824   8.127  17.630  0.00  0.00    +0.000 A 
ATOM     22  C   UNL     1       1.989   7.936  18.729  0.00  0.00    +0.000 A 
ATOM     23  C   UNL     1       2.278   6.930  19.648  0.00  0.00    +0.000 A 
ATOM     24  C   UNL     1       3.408   6.127  19.477  0.00  0.00    +0.000 A 
ENDBRANCH  18  19
ENDBRANCH   3  18
TORSDOF 7
ENDMDL
MODEL 5
REMARK VINA RESULT:      -7.5      1.755      2.736
REMARK  Name = 
REMARK  7 active torsions:
REMARK  status: ('A' for Active; 'I' for Inactive)
REMARK    1  A    between atoms: C_2  and  C_3
REMARK    2  A    between atoms: N_9  and  C_10
REMARK    3  A    between atoms: N_9  and  C_18
REMARK    4  A    between atoms: C_10  and  C_11
REMARK    5  A    between atoms: C_11  and  C_12
REMARK    6  A    between atoms: C_12  and  N_13
REMARK    7  A    between atoms: C_18  and  C_19
REMARK                            x       y       z     vdW  Elec       q    Type
REMARK                         _______ _______ _______ _____ _____    ______ ____
ROOT
ATOM      1  O   UNL     1       5.251   5.891  19.109  0.00  0.00    +0.000 OA
ATOM      2  C   UNL     1       4.425   5.589  18.250  0.00  0.00    +0.000 C 
ATOM      3  N   UNL     1       3.042   5.598  18.520  0.00  0.00    +0.000 N 
ENDROOT
BRANCH   2   4
ATOM      4  C   UNL     1       4.976   5.131  16.935  0.00  0.00    +0.000 A 
ATOM      5  C   UNL     1       5.198   6.102  15.946  0.00  0.00    +0.000 A 
ATOM      6  C   UNL     1       5.820   5.762  14.740  0.00  0.00    +0.000 A 
ATOM      7  C   UNL     1       6.246   4.455  14.521  0.00  0.00    +0.000 A 
ATOM      8  C   UNL     1       5.975   3.474  15.471  0.00  0.00    +0.000 A 
ATOM      9  C   UNL     1       5.290   3.800  16.646  0.00  0.00    +0.000 A 
ENDBRANCH   2   4
BRANCH   3  10
ATOM     10  C   UNL     1       1.956   5.230  17.600  0.00  0.00    +0.000 C 
BRANCH  10  11
ATOM     11  C   UNL     1       1.297   3.871  17.842  0.00  0.00    +0.000 C 
BRANCH  11  12
ATOM     12  C   UNL     1       2.264   2.809  18.345  0.00  0.00    +0.000 C 
BRANCH  12  13
ATOM     13  N   UNL     1       2.225   2.722  19.794  0.00  0.00    +0.000 N 
ATOM     14  C   UNL     1       1.107   2.783  20.576  0.00  0.00    +0.000 A 
ATOM     15  C   UNL     1       1.569   2.639  21.864  0.00  0.00    +0.000 A 
ATOM     16  N   UNL     1       2.931   2.478  21.876  0.00  0.00    +0.000 NA
ATOM     17  C   UNL     1       3.298   2.524  20.615  0.00  0.00    +0.000 A 
ENDBRANCH  12  13
ENDBRANCH  11  12
ENDBRANCH  10  11
ENDBRANCH   3  10
BRANCH   3  18
ATOM     18  C   UNL     1       2.620   6.147  19.823  0.00  0.00    +0.000 C 
BRANCH  18  19
ATOM     19  C   UNL     1       2.029   7.543  19.749  0.00  0.00    +0.000 A 
ATOM     20  C   UNL     1       2.096   8.301  18.568  0.00  0.00    +0.000 A 
ATOM     21  C   UNL     1       1.519   9.576  18.504  0.00  0.00    +0.000 A 
ATOM     22  C   UNL     1       0.864  10.105  19.614  0.00  0.00    +0.000 A 
ATOM     23  C   UNL     1       0.774   9.355  20.784  0.00  0.00    +0.000 A 
ATOM     24  C   UNL     1       1.349   8.084  20.849  0.00  0.00    +0.000 A 
ENDBRANCH  18  19
ENDBRANCH   3  18
TORSDOF 7
ENDMDL
MODEL 6
REMARK VINA RESULT:      -7.4      3.154      5.452
REMARK  Name = 
REMARK  7 active torsions:
REMARK  status: ('A' for Active; 'I' for Inactive)
REMARK    1  A    between atoms: C_2  and  C_3
REMARK    2  A    between atoms: N_9  and  C_10
REMARK    3  A    between atoms: N_9  and  C_18
REMARK    4  A    between atoms: C_10  and  C_11
REMARK    5  A    between atoms: C_11  and  C_12
REMARK    6  A    between atoms: C_12  and  N_13
REMARK    7  A    between atoms: C_18  and  C_19
REMARK                            x       y       z     vdW  Elec       q    Type
REMARK                         _______ _______ _______ _____ _____    ______ ____
ROOT
ATOM      1  O   UNL     1       4.566   4.073  17.470  0.00  0.00    +0.000 OA
ATOM      2  C   UNL     1       4.565   5.268  17.759  0.00  0.00    +0.000 C 
ATOM      3  N   UNL     1       3.370   6.012  17.825  0.00  0.00    +0.000 N 
ENDROOT
BRANCH   2   4
ATOM      4  C   UNL     1       5.908   5.902  17.951  0.00  0.00    +0.000 A 
ATOM      5  C   UNL     1       6.221   7.020  17.161  0.00  0.00    +0.000 A 
ATOM      6  C   UNL     1       7.407   7.732  17.370  0.00  0.00    +0.000 A 
ATOM      7  C   UNL     1       8.279   7.348  18.386  0.00  0.00    +0.000 A 
ATOM      8  C   UNL     1       8.005   6.206  19.134  0.00  0.00    +0.000 A 
ATOM      9  C   UNL     1       6.855   5.453  18.877  0.00  0.00    +0.000 A 
ENDBRANCH   2   4
BRANCH   3  10
ATOM     10  C   UNL     1       3.232   7.444  18.125  0.00  0.00    +0.000 C 
BRANCH  10  11
ATOM     11  C   UNL     1       1.868   8.068  17.824  0.00  0.00    +0.000 C 
BRANCH  11  12
ATOM     12  C   UNL     1       1.739   9.506  18.307  0.00  0.00    +0.000 C 
BRANCH  12  13
ATOM     13  N   UNL     1       0.937   9.574  19.516  0.00  0.00    +0.000 N 
ATOM     14  C   UNL     1       1.118   8.828  20.646  0.00  0.00    +0.000 A 
ATOM     15  C   UNL     1       0.137   9.257  21.510  0.00  0.00    +0.000 A 
ATOM     16  N   UNL     1      -0.617  10.248  20.937  0.00  0.00    +0.000 NA
ATOM     17  C   UNL     1      -0.107  10.424  19.739  0.00  0.00    +0.000 A 
ENDBRANCH  12  13
ENDBRANCH  11  12
ENDBRANCH  10  11
ENDBRANCH   3  10
BRANCH   3  18
ATOM     18  C   UNL     1       2.108   5.258  17.698  0.00  0.00    +0.000 C 
BRANCH  18  19
ATOM     19  C   UNL     1       1.796   4.361  18.881  0.00  0.00    +0.000 A 
ATOM     20  C   UNL     1       1.348   3.042  18.698  0.00  0.00    +0.000 A 
ATOM     21  C   UNL     1       1.095   2.215  19.800  0.00  0.00    +0.000 A 
ATOM     22  C   UNL     1       1.291   2.692  21.094  0.00  0.00    +0.000 A 
ATOM     23  C   UNL     1       1.754   3.991  21.288  0.00  0.00    +0.000 A 
ATOM     24  C   UNL     1       2.006   4.816  20.191  0.00  0.00    +0.000 A 
ENDBRANCH  18  19
ENDBRANCH   3  18
TORSDOF 7
ENDMDL
MODEL 7
REMARK VINA RESULT:      -7.4      2.986      6.069
REMARK  Name = 
REMARK  7 active torsions:
REMARK  status: ('A' for Active; 'I' for Inactive)
REMARK    1  A    between atoms: C_2  and  C_3
REMARK    2  A    between atoms: N_9  and  C_10
REMARK    3  A    between atoms: N_9  and  C_18
REMARK    4  A    between atoms: C_10  and  C_11
REMARK    5  A    between atoms: C_11  and  C_12
REMARK    6  A    between atoms: C_12  and  N_13
REMARK    7  A    between atoms: C_18  and  C_19
REMARK                            x       y       z     vdW  Elec       q    Type
REMARK                         _______ _______ _______ _____ _____    ______ ____
ROOT
ATOM      1  O   UNL     1       3.433   8.764  17.582  0.00  0.00    +0.000 OA
ATOM      2  C   UNL     1       2.768   7.956  18.227  0.00  0.00    +0.000 C 
ATOM      3  N   UNL     1       2.899   6.567  18.031  0.00  0.00    +0.000 N 
ENDROOT
BRANCH   2   4
ATOM      4  C   UNL     1       1.755   8.535  19.165  0.00  0.00    +0.000 A 
ATOM      5  C   UNL     1       0.892   9.524  18.666  0.00  0.00    +0.000 A 
ATOM      6  C   UNL     1      -0.154  10.021  19.452  0.00  0.00    +0.000 A 
ATOM      7  C   UNL     1      -0.361   9.519  20.733  0.00  0.00    +0.000 A 
ATOM      8  C   UNL     1       0.526   8.581  21.257  0.00  0.00    +0.000 A 
ATOM      9  C   UNL     1       1.613   8.137  20.498  0.00  0.00    +0.000 A 
ENDBRANCH   2   4
BRANCH   3  10
ATOM     10  C   UNL     1       2.147   5.500  18.707  0.00  0.00    +0.000 C 
BRANCH  10  11
ATOM     11  C   UNL     1       1.725   4.316  17.837  0.00  0.00    +0.000 C 
BRANCH  11  12
ATOM     12  C   UNL     1       2.330   2.992  18.280  0.00  0.00    +0.000 C 
BRANCH  12  13
ATOM     13  N   UNL     1       2.226   2.834  19.720  0.00  0.00    +0.000 N 
ATOM     14  C   UNL     1       1.069   2.791  20.445  0.00  0.00    +0.000 A 
ATOM     15  C   UNL     1       1.477   2.615  21.748  0.00  0.00    +0.000 A 
ATOM     16  N   UNL     1       2.844   2.536  21.823  0.00  0.00    +0.000 NA
ATOM     17  C   UNL     1       3.268   2.663  20.586  0.00  0.00    +0.000 A 
ENDBRANCH  12  13
ENDBRANCH  11  12
ENDBRANCH  10  11
ENDBRANCH   3  10
BRANCH   3  18
ATOM     18  C   UNL     1       3.988   6.119  17.142  0.00  0.00    +0.000 C 
BRANCH  18  19
ATOM     19  C   UNL     1       5.369   6.184  17.766  0.00  0.00    +0.000 A 
ATOM     20  C   UNL     1       5.707   5.387  18.874  0.00  0.00    +0.000 A 
ATOM     21  C   UNL     1       6.995   5.434  19.420  0.00  0.00    +0.000 A 
ATOM     22  C   UNL     1       7.962   6.270  18.866  0.00  0.00    +0.000 A 
ATOM     23  C   UNL     1       7.646   7.049  17.756  0.00  0.00    +0.000 A 
ATOM     24  C   UNL     1       6.361   7.004  17.210  0.00  0.00    +0.000 A 
ENDBRANCH  18  19
ENDBRANCH   3  18
TORSDOF 7
ENDMDL
MODEL 8
REMARK VINA RESULT:      -7.3      1.768      3.030
REMARK  Name = 
REMARK  7 active torsions:
REMARK  status: ('A' for Active; 'I' for Inactive)
REMARK    1  A    between atoms: C_2  and  C_3
REMARK    2  A    between atoms: N_9  and  C_10
REMARK    3  A    between atoms: N_9  and  C_18
REMARK    4  A    between atoms: C_10  and  C_11
REMARK    5  A    between atoms: C_11  and  C_12
REMARK    6  A    between atoms: C_12  and  N_13
REMARK    7  A    between atoms: C_18  and  C_19
REMARK                            x       y       z     vdW  Elec       q    Type
REMARK                         _______ _______ _______ _____ _____    ______ ____
ROOT
ATOM      1  O   UNL     1       5.192   6.086  19.290  0.00  0.00    +0.000 OA
ATOM      2  C   UNL     1       4.392   5.714  18.433  0.00  0.00    +0.000 C 
ATOM      3  N   UNL     1       3.013   5.615  18.703  0.00  0.00    +0.000 N 
ENDROOT
BRANCH   2   4
ATOM      4  C   UNL     1       4.978   5.292  17.122  0.00  0.00    +0.000 A 
ATOM      5  C   UNL     1       5.386   3.955  16.989  0.00  0.00    +0.000 A 
ATOM      6  C   UNL     1       5.832   3.464  15.757  0.00  0.00    +0.000 A 
ATOM      7  C   UNL     1       5.851   4.298  14.642  0.00  0.00    +0.000 A 
ATOM      8  C   UNL     1       5.505   5.639  14.779  0.00  0.00    +0.000 A 
ATOM      9  C   UNL     1       5.128   6.148  16.026  0.00  0.00    +0.000 A 
ENDBRANCH   2   4
BRANCH   3  10
ATOM     10  C   UNL     1       1.960   5.156  17.785  0.00  0.00    +0.000 C 
BRANCH  10  11
ATOM     11  C   UNL     1       1.855   3.644  17.580  0.00  0.00    +0.000 C 
BRANCH  11  12
ATOM     12  C   UNL     1       1.058   2.938  18.668  0.00  0.00    +0.000 C 
BRANCH  12  13
ATOM     13  N   UNL     1       1.877   2.720  19.847  0.00  0.00    +0.000 N 
ATOM     14  C   UNL     1       3.201   2.383  19.857  0.00  0.00    +0.000 A 
ATOM     15  C   UNL     1       3.533   2.304  21.191  0.00  0.00    +0.000 A 
ATOM     16  N   UNL     1       2.451   2.598  21.979  0.00  0.00    +0.000 NA
ATOM     17  C   UNL     1       1.470   2.852  21.143  0.00  0.00    +0.000 A 
ENDBRANCH  12  13
ENDBRANCH  11  12
ENDBRANCH  10  11
ENDBRANCH   3  10
BRANCH   3  18
ATOM     18  C   UNL     1       2.548   6.138  20.002  0.00  0.00    +0.000 C 
BRANCH  18  19
ATOM     19  C   UNL     1       1.912   7.513  19.928  0.00  0.00    +0.000 A 
ATOM     20  C   UNL     1       1.254   8.073  21.037  0.00  0.00    +0.000 A 
ATOM     21  C   UNL     1       0.698   9.356  20.965  0.00  0.00    +0.000 A 
ATOM     22  C   UNL     1       0.797  10.097  19.789  0.00  0.00    +0.000 A 
ATOM     23  C   UNL     1       1.463   9.562  18.690  0.00  0.00    +0.000 A 
ATOM     24  C   UNL     1       2.017   8.282  18.761  0.00  0.00    +0.000 A 
ENDBRANCH  18  19
ENDBRANCH   3  18
TORSDOF 7
ENDMDL
MODEL 9
REMARK VINA RESULT:      -7.3      1.617      2.528
REMARK  Name = 
REMARK  7 active torsions:
REMARK  status: ('A' for Active; 'I' for Inactive)
REMARK    1  A    between atoms: C_2  and  C_3
REMARK    2  A    between atoms: N_9  and  C_10
REMARK    3  A    between atoms: N_9  and  C_18
REMARK    4  A    between atoms: C_10  and  C_11
REMARK    5  A    between atoms: C_11  and  C_12
REMARK    6  A    between atoms: C_12  and  N_13
REMARK    7  A    between atoms: C_18  and  C_19
REMARK                            x       y       z     vdW  Elec       q    Type
REMARK                         _______ _______ _______ _____ _____    ______ ____
ROOT
ATOM      1  O   UNL     1       5.408   6.542  18.952  0.00  0.00    +0.000 OA
ATOM      2  C   UNL     1       4.749   5.872  18.159  0.00  0.00    +0.000 C 
ATOM      3  N   UNL     1       3.434   5.462  18.452  0.00  0.00    +0.000 N 
ENDROOT
BRANCH   2   4
ATOM      4  C   UNL     1       5.454   5.448  16.908  0.00  0.00    +0.000 A 
ATOM      5  C   UNL     1       6.498   4.517  17.030  0.00  0.00    +0.000 A 
ATOM      6  C   UNL     1       7.120   3.989  15.893  0.00  0.00    +0.000 A 
ATOM      7  C   UNL     1       6.688   4.368  14.625  0.00  0.00    +0.000 A 
ATOM      8  C   UNL     1       5.694   5.334  14.496  0.00  0.00    +0.000 A 
ATOM      9  C   UNL     1       5.122   5.915  15.632  0.00  0.00    +0.000 A 
ENDBRANCH   2   4
BRANCH   3  10
ATOM     10  C   UNL     1       2.553   4.637  17.613  0.00  0.00    +0.000 C 
BRANCH  10  11
ATOM     11  C   UNL     1       2.931   3.160  17.484  0.00  0.00    +0.000 C 
BRANCH  11  12
ATOM     12  C   UNL     1       1.999   2.228  18.244  0.00  0.00    +0.000 C 
BRANCH  12  13
ATOM     13  N   UNL     1       2.061   2.487  19.671  0.00  0.00    +0.000 N 
ATOM     14  C   UNL     1       1.013   2.847  20.471  0.00  0.00    +0.000 A 
ATOM     15  C   UNL     1       1.556   2.962  21.731  0.00  0.00    +0.000 A 
ATOM     16  N   UNL     1       2.895   2.666  21.712  0.00  0.00    +0.000 NA
ATOM     17  C   UNL     1       3.169   2.376  20.460  0.00  0.00    +0.000 A 
ENDBRANCH  12  13
ENDBRANCH  11  12
ENDBRANCH  10  11
ENDBRANCH   3  10
BRANCH   3  18
ATOM     18  C   UNL     1       2.821   6.012  19.677  0.00  0.00    +0.000 C 
BRANCH  18  19
ATOM     19  C   UNL     1       2.167   7.368  19.491  0.00  0.00    +0.000 A 
ATOM     20  C   UNL     1       2.152   8.006  18.239  0.00  0.00    +0.000 A 
ATOM     21  C   UNL     1       1.518   9.243  18.075  0.00  0.00    +0.000 A 
ATOM     22  C   UNL     1       0.886   9.856  19.155  0.00  0.00    +0.000 A 
ATOM     23  C   UNL     1       0.877   9.225  20.397  0.00  0.00    +0.000 A 
ATOM     24  C   UNL     1       1.510   7.991  20.562  0.00  0.00    +0.000 A 
ENDBRANCH  18  19
ENDBRANCH   3  18
TORSDOF 7
ENDMDL
