MODEL 1
REMARK VINA RESULT:      -7.2      0.000      0.000
REMARK  Name = 
REMARK  15 active torsions:
REMARK  status: ('A' for Active; 'I' for Inactive)
REMARK    1  A    between atoms: C_1  and  C_2
REMARK    2  A    between atoms: C_2  and  C_3
REMARK    3  A    between atoms: C_3  and  C_4
REMARK    4  A    between atoms: C_3  and  C_31
REMARK    5  A    between atoms: C_4  and  C_5
REMARK    6  A    between atoms: C_5  and  C_6
REMARK    7  A    between atoms: C_6  and  C_7
REMARK    8  A    between atoms: C_6  and  C_8
REMARK    9  A    between atoms: C_17  and  O_18
REMARK   10  A    between atoms: O_18  and  C_19
REMARK   11  A    between atoms: C_19  and  C_20
REMARK   12  A    between atoms: C_24  and  C_25
REMARK   13  A    between atoms: C_29  and  C_30
REMARK   14  A    between atoms: C_31  and  C_32
REMARK   15  A    between atoms: C_31  and  C_33
REMARK                            x       y       z     vdW  Elec       q    Type
REMARK                         _______ _______ _______ _____ _____    ______ ____
ROOT
ATOM      1  C   UNL     1       1.030   8.501  19.916  0.00  0.00    +0.000 C 
ATOM      2  C   UNL     1       1.352   8.133  21.406  0.00  0.00    +0.000 C 
ATOM      3  C   UNL     1       0.779   9.253  22.274  0.00  0.00    +0.000 C 
ATOM      4  C   UNL     1      -0.261   9.886  21.367  0.00  0.00    +0.000 C 
ATOM      5  C   UNL     1      -0.841  11.244  21.766  0.00  0.00    +0.000 C 
ATOM      6  C   UNL     1      -1.452  11.182  23.168  0.00  0.00    +0.000 C 
ATOM      7  C   UNL     1      -2.355  12.332  23.462  0.00  0.00    +0.000 C 
ATOM      8  C   UNL     1      -2.822  13.194  22.542  0.00  0.00    +0.000 C 
ATOM      9  C   UNL     1      -3.758  14.303  22.966  0.00  0.00    +0.000 C 
ATOM     10  C   UNL     1      -5.056  14.214  22.162  0.00  0.00    +0.000 C 
ATOM     11  C   UNL     1      -4.732  14.366  20.665  0.00  0.00    +0.000 C 
ATOM     12  C   UNL     1      -3.809  13.243  20.196  0.00  0.00    +0.000 C 
ATOM     13  C   UNL     1      -2.506  13.088  21.040  0.00  0.00    +0.000 C 
ATOM     14  C   UNL     1      -1.529  14.232  20.682  0.00  0.00    +0.000 C 
ATOM     15  C   UNL     1      -1.899  11.675  20.712  0.00  0.00    +0.000 C 
ATOM     16  C   UNL     1      -1.401  11.539  19.249  0.00  0.00    +0.000 C 
ATOM     17  C   UNL     1      -0.704  10.205  18.966  0.00  0.00    +0.000 C 
ATOM     18  C   UNL     1       0.426   9.935  19.983  0.00  0.00    +0.000 C 
ATOM     19  C   UNL     1       1.508  11.044  19.912  0.00  0.00    +0.000 C 
ENDROOT
BRANCH   1  20
ATOM     20  C   UNL     1       2.212   8.214  18.946  0.00  0.00    +0.000 C 
ATOM     21  C   UNL     1       1.895   8.361  17.452  0.00  0.00    +0.000 C 
BRANCH  20  22
ATOM     22  C   UNL     1       2.775   6.812  19.259  0.00  0.00    +0.000 C 
BRANCH  22  23
ATOM     23  C   UNL     1       2.752   5.826  18.093  0.00  0.00    +0.000 C 
BRANCH  23  24
ATOM     24  C   UNL     1       2.633   4.355  18.560  0.00  0.00    +0.000 C 
BRANCH  24  25
ATOM     25  C   UNL     1       3.045   3.340  17.425  0.00  0.00    +0.000 C 
ATOM     26  C   UNL     1       4.375   3.696  16.731  0.00  0.00    +0.000 C 
ATOM     27  C   UNL     1       3.202   1.910  17.946  0.00  0.00    +0.000 C 
ENDBRANCH  24  25
BRANCH  24  29
ATOM     28  C   UNL     1       1.212   3.638  20.653  0.00  0.00    +0.000 C 
ATOM     29  C   UNL     1       1.238   4.064  19.184  0.00  0.00    +0.000 C 
ENDBRANCH  24  29
ENDBRANCH  23  24
ENDBRANCH  22  23
ENDBRANCH  20  22
ENDBRANCH   1  20
BRANCH  10  30
ATOM     30  O   UNL     1      -5.972  15.284  22.534  0.00  0.00    +0.000 OA
BRANCH  30  31
ATOM     31  C   UNL     1      -7.189  15.370  21.881  0.00  0.00    +0.000 C 
ATOM     32  C   UNL     1      -7.916  14.055  21.714  0.00  0.00    +0.000 C 
ATOM     33  O   UNL     1      -7.667  16.409  21.491  0.00  0.00    +0.000 OA
ENDBRANCH  30  31
ENDBRANCH  10  30
TORSDOF 8
ENDMDL
MODEL 2
REMARK VINA RESULT:      -7.1      0.943      1.775
REMARK  Name = 
REMARK  15 active torsions:
REMARK  status: ('A' for Active; 'I' for Inactive)
REMARK    1  A    between atoms: C_1  and  C_2
REMARK    2  A    between atoms: C_2  and  C_3
REMARK    3  A    between atoms: C_3  and  C_4
REMARK    4  A    between atoms: C_3  and  C_31
REMARK    5  A    between atoms: C_4  and  C_5
REMARK    6  A    between atoms: C_5  and  C_6
REMARK    7  A    between atoms: C_6  and  C_7
REMARK    8  A    between atoms: C_6  and  C_8
REMARK    9  A    between atoms: C_17  and  O_18
REMARK   10  A    between atoms: O_18  and  C_19
REMARK   11  A    between atoms: C_19  and  C_20
REMARK   12  A    between atoms: C_24  and  C_25
REMARK   13  A    between atoms: C_29  and  C_30
REMARK   14  A    between atoms: C_31  and  C_32
REMARK   15  A    between atoms: C_31  and  C_33
REMARK                            x       y       z     vdW  Elec       q    Type
REMARK                         _______ _______ _______ _____ _____    ______ ____
ROOT
ATOM      1  C   UNL     1       0.889   8.734  20.032  0.00  0.00    +0.000 C 
ATOM      2  C   UNL     1       1.223   8.412  21.530  0.00  0.00    +0.000 C 
ATOM      3  C   UNL     1       0.622   9.538  22.370  0.00  0.00    +0.000 C 
ATOM      4  C   UNL     1      -0.437  10.119  21.451  0.00  0.00    +0.000 C 
ATOM      5  C   UNL     1      -1.053  11.470  21.817  0.00  0.00    +0.000 C 
ATOM      6  C   UNL     1      -1.659  11.427  23.221  0.00  0.00    +0.000 C 
ATOM      7  C   UNL     1      -2.593  12.559  23.489  0.00  0.00    +0.000 C 
ATOM      8  C   UNL     1      -3.085  13.384  22.548  0.00  0.00    +0.000 C 
ATOM      9  C   UNL     1      -4.051  14.477  22.947  0.00  0.00    +0.000 C 
ATOM     10  C   UNL     1      -5.347  14.332  22.149  0.00  0.00    +0.000 C 
ATOM     11  C   UNL     1      -5.031  14.455  20.647  0.00  0.00    +0.000 C 
ATOM     12  C   UNL     1      -4.079  13.346  20.205  0.00  0.00    +0.000 C 
ATOM     13  C   UNL     1      -2.770  13.249  21.049  0.00  0.00    +0.000 C 
ATOM     14  C   UNL     1      -1.825  14.410  20.659  0.00  0.00    +0.000 C 
ATOM     15  C   UNL     1      -2.125  11.845  20.755  0.00  0.00    +0.000 C 
ATOM     16  C   UNL     1      -1.626  11.686  19.295  0.00  0.00    +0.000 C 
ATOM     17  C   UNL     1      -0.893  10.364  19.044  0.00  0.00    +0.000 C 
ATOM     18  C   UNL     1       0.245  10.151  20.064  0.00  0.00    +0.000 C 
ATOM     19  C   UNL     1       1.296  11.287  19.961  0.00  0.00    +0.000 C 
ENDROOT
BRANCH   1  20
ATOM     20  C   UNL     1       2.076   8.454  19.066  0.00  0.00    +0.000 C 
ATOM     21  C   UNL     1       1.765   8.605  17.571  0.00  0.00    +0.000 C 
BRANCH  20  22
ATOM     22  C   UNL     1       2.643   7.053  19.377  0.00  0.00    +0.000 C 
BRANCH  22  23
ATOM     23  C   UNL     1       2.902   6.170  18.157  0.00  0.00    +0.000 C 
BRANCH  23  24
ATOM     24  C   UNL     1       2.317   4.746  18.318  0.00  0.00    +0.000 C 
BRANCH  24  25
ATOM     25  C   UNL     1       2.257   4.299  19.829  0.00  0.00    +0.000 C 
ATOM     26  C   UNL     1       0.843   3.899  20.298  0.00  0.00    +0.000 C 
ATOM     27  C   UNL     1       3.162   3.101  20.122  0.00  0.00    +0.000 C 
ENDBRANCH  24  25
BRANCH  24  29
ATOM     28  C   UNL     1       4.350   4.180  16.748  0.00  0.00    +0.000 C 
ATOM     29  C   UNL     1       3.038   3.725  17.391  0.00  0.00    +0.000 C 
ENDBRANCH  24  29
ENDBRANCH  23  24
ENDBRANCH  22  23
ENDBRANCH  20  22
ENDBRANCH   1  20
BRANCH  10  30
ATOM     30  O   UNL     1      -6.292  15.385  22.496  0.00  0.00    +0.000 OA
BRANCH  30  31
ATOM     31  C   UNL     1      -5.797  16.625  22.860  0.00  0.00    +0.000 C 
ATOM     32  C   UNL     1      -5.743  16.876  24.349  0.00  0.00    +0.000 C 
ATOM     33  O   UNL     1      -5.405  17.448  22.067  0.00  0.00    +0.000 OA
ENDBRANCH  30  31
ENDBRANCH  10  30
TORSDOF 8
ENDMDL
MODEL 3
REMARK VINA RESULT:      -7.1      4.644     10.290
REMARK  Name = 
REMARK  15 active torsions:
REMARK  status: ('A' for Active; 'I' for Inactive)
REMARK    1  A    between atoms: C_1  and  C_2
REMARK    2  A    between atoms: C_2  and  C_3
REMARK    3  A    between atoms: C_3  and  C_4
REMARK    4  A    between atoms: C_3  and  C_31
REMARK    5  A    between atoms: C_4  and  C_5
REMARK    6  A    between atoms: C_5  and  C_6
REMARK    7  A    between atoms: C_6  and  C_7
REMARK    8  A    between atoms: C_6  and  C_8
REMARK    9  A    between atoms: C_17  and  O_18
REMARK   10  A    between atoms: O_18  and  C_19
REMARK   11  A    between atoms: C_19  and  C_20
REMARK   12  A    between atoms: C_24  and  C_25
REMARK   13  A    between atoms: C_29  and  C_30
REMARK   14  A    between atoms: C_31  and  C_32
REMARK   15  A    between atoms: C_31  and  C_33
REMARK                            x       y       z     vdW  Elec       q    Type
REMARK                         _______ _______ _______ _____ _____    ______ ____
ROOT
ATOM      1  C   UNL     1      -0.570  12.074  20.686  0.00  0.00    +0.000 C 
ATOM      2  C   UNL     1      -0.908  11.404  22.063  0.00  0.00    +0.000 C 
ATOM      3  C   UNL     1      -0.481   9.940  21.961  0.00  0.00    +0.000 C 
ATOM      4  C   UNL     1       0.524   9.959  20.824  0.00  0.00    +0.000 C 
ATOM      5  C   UNL     1       0.951   8.624  20.212  0.00  0.00    +0.000 C 
ATOM      6  C   UNL     1       1.514   7.690  21.286  0.00  0.00    +0.000 C 
ATOM      7  C   UNL     1       2.288   6.548  20.720  0.00  0.00    +0.000 C 
ATOM      8  C   UNL     1       2.700   6.461  19.443  0.00  0.00    +0.000 C 
ATOM      9  C   UNL     1       3.506   5.260  19.001  0.00  0.00    +0.000 C 
ATOM     10  C   UNL     1       4.835   5.727  18.404  0.00  0.00    +0.000 C 
ATOM     11  C   UNL     1       4.553   6.627  17.188  0.00  0.00    +0.000 C 
ATOM     12  C   UNL     1       3.763   7.866  17.607  0.00  0.00    +0.000 C 
ATOM     13  C   UNL     1       2.452   7.556  18.393  0.00  0.00    +0.000 C 
ATOM     14  C   UNL     1       1.380   7.031  17.408  0.00  0.00    +0.000 C 
ATOM     15  C   UNL     1       1.999   8.888  19.095  0.00  0.00    +0.000 C 
ATOM     16  C   UNL     1       1.572   9.999  18.100  0.00  0.00    +0.000 C 
ATOM     17  C   UNL     1       1.021  11.252  18.788  0.00  0.00    +0.000 C 
ATOM     18  C   UNL     1      -0.113  10.898  19.774  0.00  0.00    +0.000 C 
ATOM     19  C   UNL     1      -1.296  10.222  19.033  0.00  0.00    +0.000 C 
ENDROOT
BRANCH   1  20
ATOM     20  C   UNL     1      -1.682  13.042  20.188  0.00  0.00    +0.000 C 
ATOM     21  C   UNL     1      -1.316  14.532  20.197  0.00  0.00    +0.000 C 
BRANCH  20  22
ATOM     22  C   UNL     1      -2.964  12.780  21.005  0.00  0.00    +0.000 C 
BRANCH  22  23
ATOM     23  C   UNL     1      -4.257  13.287  20.368  0.00  0.00    +0.000 C 
BRANCH  23  24
ATOM     24  C   UNL     1      -5.213  12.138  19.967  0.00  0.00    +0.000 C 
BRANCH  24  25
ATOM     25  C   UNL     1      -5.562  12.169  18.429  0.00  0.00    +0.000 C 
ATOM     26  C   UNL     1      -4.457  11.572  17.533  0.00  0.00    +0.000 C 
ATOM     27  C   UNL     1      -6.843  11.398  18.103  0.00  0.00    +0.000 C 
ENDBRANCH  24  25
BRANCH  24  29
ATOM     28  C   UNL     1      -7.071  13.427  21.309  0.00  0.00    +0.000 C 
ATOM     29  C   UNL     1      -6.463  12.086  20.892  0.00  0.00    +0.000 C 
ENDBRANCH  24  29
ENDBRANCH  23  24
ENDBRANCH  22  23
ENDBRANCH  20  22
ENDBRANCH   1  20
BRANCH  10  30
ATOM     30  O   UNL     1       5.626   4.592  17.949  0.00  0.00    +0.000 OA
BRANCH  30  31
ATOM     31  C   UNL     1       6.973   4.784  17.694  0.00  0.00    +0.000 C 
ATOM     32  C   UNL     1       7.720   5.547  18.763  0.00  0.00    +0.000 C 
ATOM     33  O   UNL     1       7.536   4.358  16.714  0.00  0.00    +0.000 OA
ENDBRANCH  30  31
ENDBRANCH  10  30
TORSDOF 8
ENDMDL
MODEL 4
REMARK VINA RESULT:      -7.1      4.634     10.669
REMARK  Name = 
REMARK  15 active torsions:
REMARK  status: ('A' for Active; 'I' for Inactive)
REMARK    1  A    between atoms: C_1  and  C_2
REMARK    2  A    between atoms: C_2  and  C_3
REMARK    3  A    between atoms: C_3  and  C_4
REMARK    4  A    between atoms: C_3  and  C_31
REMARK    5  A    between atoms: C_4  and  C_5
REMARK    6  A    between atoms: C_5  and  C_6
REMARK    7  A    between atoms: C_6  and  C_7
REMARK    8  A    between atoms: C_6  and  C_8
REMARK    9  A    between atoms: C_17  and  O_18
REMARK   10  A    between atoms: O_18  and  C_19
REMARK   11  A    between atoms: C_19  and  C_20
REMARK   12  A    between atoms: C_24  and  C_25
REMARK   13  A    between atoms: C_29  and  C_30
REMARK   14  A    between atoms: C_31  and  C_32
REMARK   15  A    between atoms: C_31  and  C_33
REMARK                            x       y       z     vdW  Elec       q    Type
REMARK                         _______ _______ _______ _____ _____    ______ ____
ROOT
ATOM      1  C   UNL     1      -0.580  11.906  20.811  0.00  0.00    +0.000 C 
ATOM      2  C   UNL     1      -0.885  11.187  22.171  0.00  0.00    +0.000 C 
ATOM      3  C   UNL     1      -0.425   9.737  22.019  0.00  0.00    +0.000 C 
ATOM      4  C   UNL     1       0.565   9.814  20.871  0.00  0.00    +0.000 C 
ATOM      5  C   UNL     1       1.016   8.509  20.214  0.00  0.00    +0.000 C 
ATOM      6  C   UNL     1       1.613   7.557  21.253  0.00  0.00    +0.000 C 
ATOM      7  C   UNL     1       2.407   6.451  20.643  0.00  0.00    +0.000 C 
ATOM      8  C   UNL     1       2.805   6.412  19.360  0.00  0.00    +0.000 C 
ATOM      9  C   UNL     1       3.634   5.245  18.871  0.00  0.00    +0.000 C 
ATOM     10  C   UNL     1       4.943   5.761  18.274  0.00  0.00    +0.000 C 
ATOM     11  C   UNL     1       4.625   6.690  17.089  0.00  0.00    +0.000 C 
ATOM     12  C   UNL     1       3.812   7.897  17.554  0.00  0.00    +0.000 C 
ATOM     13  C   UNL     1       2.518   7.532  18.346  0.00  0.00    +0.000 C 
ATOM     14  C   UNL     1       1.447   7.012  17.358  0.00  0.00    +0.000 C 
ATOM     15  C   UNL     1       2.043   8.832  19.094  0.00  0.00    +0.000 C 
ATOM     16  C   UNL     1       1.577   9.961  18.138  0.00  0.00    +0.000 C 
ATOM     17  C   UNL     1       1.006  11.180  18.870  0.00  0.00    +0.000 C 
ATOM     18  C   UNL     1      -0.107  10.769  19.858  0.00  0.00    +0.000 C 
ATOM     19  C   UNL     1      -1.283  10.087  19.111  0.00  0.00    +0.000 C 
ENDROOT
BRANCH   1  20
ATOM     20  C   UNL     1      -1.720  12.862  20.356  0.00  0.00    +0.000 C 
ATOM     21  C   UNL     1      -1.344  14.347  20.264  0.00  0.00    +0.000 C 
BRANCH  20  22
ATOM     22  C   UNL     1      -2.936  12.653  21.282  0.00  0.00    +0.000 C 
BRANCH  22  23
ATOM     23  C   UNL     1      -3.617  13.934  21.761  0.00  0.00    +0.000 C 
BRANCH  23  24
ATOM     24  C   UNL     1      -3.600  14.076  23.303  0.00  0.00    +0.000 C 
BRANCH  24  25
ATOM     25  C   UNL     1      -2.450  15.036  23.795  0.00  0.00    +0.000 C 
ATOM     26  C   UNL     1      -2.595  16.485  23.286  0.00  0.00    +0.000 C 
ATOM     27  C   UNL     1      -2.371  15.122  25.321  0.00  0.00    +0.000 C 
ENDBRANCH  24  25
BRANCH  24  29
ATOM     28  C   UNL     1      -4.877  12.287  24.746  0.00  0.00    +0.000 C 
ATOM     29  C   UNL     1      -3.601  12.687  24.004  0.00  0.00    +0.000 C 
ENDBRANCH  24  29
ENDBRANCH  23  24
ENDBRANCH  22  23
ENDBRANCH  20  22
ENDBRANCH   1  20
BRANCH  10  30
ATOM     30  O   UNL     1       5.756   4.660  17.775  0.00  0.00    +0.000 OA
BRANCH  30  31
ATOM     31  C   UNL     1       7.132   4.805  17.761  0.00  0.00    +0.000 C 
ATOM     32  C   UNL     1       7.696   5.624  18.899  0.00  0.00    +0.000 C 
ATOM     33  O   UNL     1       7.850   4.301  16.930  0.00  0.00    +0.000 OA
ENDBRANCH  30  31
ENDBRANCH  10  30
TORSDOF 8
ENDMDL
MODEL 5
REMARK VINA RESULT:      -7.1      4.674     10.426
REMARK  Name = 
REMARK  15 active torsions:
REMARK  status: ('A' for Active; 'I' for Inactive)
REMARK    1  A    between atoms: C_1  and  C_2
REMARK    2  A    between atoms: C_2  and  C_3
REMARK    3  A    between atoms: C_3  and  C_4
REMARK    4  A    between atoms: C_3  and  C_31
REMARK    5  A    between atoms: C_4  and  C_5
REMARK    6  A    between atoms: C_5  and  C_6
REMARK    7  A    between atoms: C_6  and  C_7
REMARK    8  A    between atoms: C_6  and  C_8
REMARK    9  A    between atoms: C_17  and  O_18
REMARK   10  A    between atoms: O_18  and  C_19
REMARK   11  A    between atoms: C_19  and  C_20
REMARK   12  A    between atoms: C_24  and  C_25
REMARK   13  A    between atoms: C_29  and  C_30
REMARK   14  A    between atoms: C_31  and  C_32
REMARK   15  A    between atoms: C_31  and  C_33
REMARK                            x       y       z     vdW  Elec       q    Type
REMARK                         _______ _______ _______ _____ _____    ______ ____
ROOT
ATOM      1  C   UNL     1      -0.619  11.930  20.523  0.00  0.00    +0.000 C 
ATOM      2  C   UNL     1      -0.971  11.275  21.904  0.00  0.00    +0.000 C 
ATOM      3  C   UNL     1      -0.510   9.819  21.835  0.00  0.00    +0.000 C 
ATOM      4  C   UNL     1       0.517   9.841  20.718  0.00  0.00    +0.000 C 
ATOM      5  C   UNL     1       0.986   8.506  20.137  0.00  0.00    +0.000 C 
ATOM      6  C   UNL     1       1.546   7.603  21.237  0.00  0.00    +0.000 C 
ATOM      7  C   UNL     1       2.356   6.468  20.706  0.00  0.00    +0.000 C 
ATOM      8  C   UNL     1       2.796   6.370  19.439  0.00  0.00    +0.000 C 
ATOM      9  C   UNL     1       3.637   5.180  19.033  0.00  0.00    +0.000 C 
ATOM     10  C   UNL     1       4.967   5.666  18.455  0.00  0.00    +0.000 C 
ATOM     11  C   UNL     1       4.690   6.540  17.219  0.00  0.00    +0.000 C 
ATOM     12  C   UNL     1       3.866   7.768  17.601  0.00  0.00    +0.000 C 
ATOM     13  C   UNL     1       2.545   7.442  18.366  0.00  0.00    +0.000 C 
ATOM     14  C   UNL     1       1.506   6.879  17.369  0.00  0.00    +0.000 C 
ATOM     15  C   UNL     1       2.050   8.776  19.037  0.00  0.00    +0.000 C 
ATOM     16  C   UNL     1       1.619   9.860  18.015  0.00  0.00    +0.000 C 
ATOM     17  C   UNL     1       1.027  11.112  18.671  0.00  0.00    +0.000 C 
ATOM     18  C   UNL     1      -0.119  10.749  19.640  0.00  0.00    +0.000 C 
ATOM     19  C   UNL     1      -1.271  10.035  18.886  0.00  0.00    +0.000 C 
ENDROOT
BRANCH   1  20
ATOM     20  C   UNL     1      -1.741  12.865  19.987  0.00  0.00    +0.000 C 
ATOM     21  C   UNL     1      -1.452  14.369  20.082  0.00  0.00    +0.000 C 
BRANCH  20  22
ATOM     22  C   UNL     1      -3.062  12.507  20.699  0.00  0.00    +0.000 C 
BRANCH  22  23
ATOM     23  C   UNL     1      -4.267  13.356  20.300  0.00  0.00    +0.000 C 
BRANCH  23  24
ATOM     24  C   UNL     1      -5.431  12.508  19.731  0.00  0.00    +0.000 C 
BRANCH  24  25
ATOM     25  C   UNL     1      -6.381  11.969  20.869  0.00  0.00    +0.000 C 
ATOM     26  C   UNL     1      -7.199  13.075  21.566  0.00  0.00    +0.000 C 
ATOM     27  C   UNL     1      -7.394  10.946  20.350  0.00  0.00    +0.000 C 
ENDBRANCH  24  25
BRANCH  24  29
ATOM     28  C   UNL     1      -4.584  11.824  17.337  0.00  0.00    +0.000 C 
ATOM     29  C   UNL     1      -4.912  11.400  18.770  0.00  0.00    +0.000 C 
ENDBRANCH  24  29
ENDBRANCH  23  24
ENDBRANCH  22  23
ENDBRANCH  20  22
ENDBRANCH   1  20
BRANCH  10  30
ATOM     30  O   UNL     1       5.792   4.542  18.035  0.00  0.00    +0.000 OA
BRANCH  30  31
ATOM     31  C   UNL     1       7.142   4.755  17.820  0.00  0.00    +0.000 C 
ATOM     32  C   UNL     1       7.834   5.574  18.886  0.00  0.00    +0.000 C 
ATOM     33  O   UNL     1       7.749   4.307  16.877  0.00  0.00    +0.000 OA
ENDBRANCH  30  31
ENDBRANCH  10  30
TORSDOF 8
ENDMDL
MODEL 6
REMARK VINA RESULT:      -7.0      0.942      1.259
REMARK  Name = 
REMARK  15 active torsions:
REMARK  status: ('A' for Active; 'I' for Inactive)
REMARK    1  A    between atoms: C_1  and  C_2
REMARK    2  A    between atoms: C_2  and  C_3
REMARK    3  A    between atoms: C_3  and  C_4
REMARK    4  A    between atoms: C_3  and  C_31
REMARK    5  A    between atoms: C_4  and  C_5
REMARK    6  A    between atoms: C_5  and  C_6
REMARK    7  A    between atoms: C_6  and  C_7
REMARK    8  A    between atoms: C_6  and  C_8
REMARK    9  A    between atoms: C_17  and  O_18
REMARK   10  A    between atoms: O_18  and  C_19
REMARK   11  A    between atoms: C_19  and  C_20
REMARK   12  A    between atoms: C_24  and  C_25
REMARK   13  A    between atoms: C_29  and  C_30
REMARK   14  A    between atoms: C_31  and  C_32
REMARK   15  A    between atoms: C_31  and  C_33
REMARK                            x       y       z     vdW  Elec       q    Type
REMARK                         _______ _______ _______ _____ _____    ______ ____
ROOT
ATOM      1  C   UNL     1       0.913   8.733  19.987  0.00  0.00    +0.000 C 
ATOM      2  C   UNL     1       1.266   8.417  21.482  0.00  0.00    +0.000 C 
ATOM      3  C   UNL     1       0.655   9.533  22.328  0.00  0.00    +0.000 C 
ATOM      4  C   UNL     1      -0.421  10.097  21.419  0.00  0.00    +0.000 C 
ATOM      5  C   UNL     1      -1.054  11.439  21.790  0.00  0.00    +0.000 C 
ATOM      6  C   UNL     1      -1.647  11.387  23.200  0.00  0.00    +0.000 C 
ATOM      7  C   UNL     1      -2.596  12.504  23.476  0.00  0.00    +0.000 C 
ATOM      8  C   UNL     1      -3.109  13.321  22.540  0.00  0.00    +0.000 C 
ATOM      9  C   UNL     1      -4.088  14.400  22.948  0.00  0.00    +0.000 C 
ATOM     10  C   UNL     1      -5.388  14.235  22.161  0.00  0.00    +0.000 C 
ATOM     11  C   UNL     1      -5.087  14.362  20.657  0.00  0.00    +0.000 C 
ATOM     12  C   UNL     1      -4.122  13.268  20.206  0.00  0.00    +0.000 C 
ATOM     13  C   UNL     1      -2.805  13.191  21.038  0.00  0.00    +0.000 C 
ATOM     14  C   UNL     1      -1.882  14.367  20.640  0.00  0.00    +0.000 C 
ATOM     15  C   UNL     1      -2.141  11.798  20.739  0.00  0.00    +0.000 C 
ATOM     16  C   UNL     1      -1.653  11.646  19.274  0.00  0.00    +0.000 C 
ATOM     17  C   UNL     1      -0.902  10.335  19.016  0.00  0.00    +0.000 C 
ATOM     18  C   UNL     1       0.249  10.141  20.026  0.00  0.00    +0.000 C 
ATOM     19  C   UNL     1       1.281  11.293  19.914  0.00  0.00    +0.000 C 
ENDROOT
BRANCH   1  20
ATOM     20  C   UNL     1       2.096   8.471  19.012  0.00  0.00    +0.000 C 
ATOM     21  C   UNL     1       1.747   8.517  17.518  0.00  0.00    +0.000 C 
BRANCH  20  22
ATOM     22  C   UNL     1       2.756   7.128  19.386  0.00  0.00    +0.000 C 
BRANCH  22  23
ATOM     23  C   UNL     1       2.072   5.886  18.817  0.00  0.00    +0.000 C 
BRANCH  23  24
ATOM     24  C   UNL     1       2.392   4.606  19.628  0.00  0.00    +0.000 C 
BRANCH  24  25
ATOM     25  C   UNL     1       3.251   3.579  18.795  0.00  0.00    +0.000 C 
ATOM     26  C   UNL     1       3.063   3.710  17.270  0.00  0.00    +0.000 C 
ATOM     27  C   UNL     1       4.751   3.721  19.058  0.00  0.00    +0.000 C 
ENDBRANCH  24  25
BRANCH  24  29
ATOM     28  C   UNL     1       1.303   2.877  21.283  0.00  0.00    +0.000 C 
ATOM     29  C   UNL     1       1.106   3.989  20.250  0.00  0.00    +0.000 C 
ENDBRANCH  24  29
ENDBRANCH  23  24
ENDBRANCH  22  23
ENDBRANCH  20  22
ENDBRANCH   1  20
BRANCH  10  30
ATOM     30  O   UNL     1      -6.346  15.274  22.517  0.00  0.00    +0.000 OA
BRANCH  30  31
ATOM     31  C   UNL     1      -5.892  16.386  23.203  0.00  0.00    +0.000 C 
ATOM     32  C   UNL     1      -5.479  17.548  22.330  0.00  0.00    +0.000 C 
ATOM     33  O   UNL     1      -5.847  16.456  24.409  0.00  0.00    +0.000 OA
ENDBRANCH  30  31
ENDBRANCH  10  30
TORSDOF 8
ENDMDL
MODEL 7
REMARK VINA RESULT:      -7.0      4.447     10.321
REMARK  Name = 
REMARK  15 active torsions:
REMARK  status: ('A' for Active; 'I' for Inactive)
REMARK    1  A    between atoms: C_1  and  C_2
REMARK    2  A    between atoms: C_2  and  C_3
REMARK    3  A    between atoms: C_3  and  C_4
REMARK    4  A    between atoms: C_3  and  C_31
REMARK    5  A    between atoms: C_4  and  C_5
REMARK    6  A    between atoms: C_5  and  C_6
REMARK    7  A    between atoms: C_6  and  C_7
REMARK    8  A    between atoms: C_6  and  C_8
REMARK    9  A    between atoms: C_17  and  O_18
REMARK   10  A    between atoms: O_18  and  C_19
REMARK   11  A    between atoms: C_19  and  C_20
REMARK   12  A    between atoms: C_24  and  C_25
REMARK   13  A    between atoms: C_29  and  C_30
REMARK   14  A    between atoms: C_31  and  C_32
REMARK   15  A    between atoms: C_31  and  C_33
REMARK                            x       y       z     vdW  Elec       q    Type
REMARK                         _______ _______ _______ _____ _____    ______ ____
ROOT
ATOM      1  C   UNL     1       0.005  12.357  20.284  0.00  0.00    +0.000 C 
ATOM      2  C   UNL     1      -0.521  11.854  21.673  0.00  0.00    +0.000 C 
ATOM      3  C   UNL     1      -0.353  10.334  21.688  0.00  0.00    +0.000 C 
ATOM      4  C   UNL     1       0.701  10.100  20.621  0.00  0.00    +0.000 C 
ATOM      5  C   UNL     1       0.921   8.672  20.120  0.00  0.00    +0.000 C 
ATOM      6  C   UNL     1       1.250   7.734  21.284  0.00  0.00    +0.000 C 
ATOM      7  C   UNL     1       1.841   6.438  20.840  0.00  0.00    +0.000 C 
ATOM      8  C   UNL     1       2.302   6.192  19.601  0.00  0.00    +0.000 C 
ATOM      9  C   UNL     1       2.908   4.843  19.286  0.00  0.00    +0.000 C 
ATOM     10  C   UNL     1       4.329   5.031  18.753  0.00  0.00    +0.000 C 
ATOM     11  C   UNL     1       4.277   5.878  17.469  0.00  0.00    +0.000 C 
ATOM     12  C   UNL     1       3.696   7.260  17.759  0.00  0.00    +0.000 C 
ATOM     13  C   UNL     1       2.308   7.237  18.473  0.00  0.00    +0.000 C 
ATOM     14  C   UNL     1       1.218   6.835  17.452  0.00  0.00    +0.000 C 
ATOM     15  C   UNL     1       2.059   8.673  19.062  0.00  0.00    +0.000 C 
ATOM     16  C   UNL     1       1.889   9.767  17.976  0.00  0.00    +0.000 C 
ATOM     17  C   UNL     1       1.529  11.142  18.549  0.00  0.00    +0.000 C 
ATOM     18  C   UNL     1       0.298  11.058  19.476  0.00  0.00    +0.000 C 
ATOM     19  C   UNL     1      -0.943  10.544  18.700  0.00  0.00    +0.000 C 
ENDROOT
BRANCH   1  20
ATOM     20  C   UNL     1      -0.890  13.463  19.656  0.00  0.00    +0.000 C 
ATOM     21  C   UNL     1      -0.192  14.801  19.375  0.00  0.00    +0.000 C 
BRANCH  20  22
ATOM     22  C   UNL     1      -2.130  13.661  20.552  0.00  0.00    +0.000 C 
BRANCH  22  23
ATOM     23  C   UNL     1      -3.367  12.868  20.138  0.00  0.00    +0.000 C 
BRANCH  23  24
ATOM     24  C   UNL     1      -4.373  12.682  21.300  0.00  0.00    +0.000 C 
BRANCH  24  25
ATOM     25  C   UNL     1      -5.836  13.102  20.887  0.00  0.00    +0.000 C 
ATOM     26  C   UNL     1      -6.930  12.495  21.790  0.00  0.00    +0.000 C 
ATOM     27  C   UNL     1      -6.042  14.617  20.920  0.00  0.00    +0.000 C 
ENDBRANCH  24  25
BRANCH  24  29
ATOM     28  C   UNL     1      -3.468  12.442  23.757  0.00  0.00    +0.000 C 
ATOM     29  C   UNL     1      -3.870  13.365  22.604  0.00  0.00    +0.000 C 
ENDBRANCH  24  29
ENDBRANCH  23  24
ENDBRANCH  22  23
ENDBRANCH  20  22
ENDBRANCH   1  20
BRANCH  10  30
ATOM     30  O   UNL     1       4.933   3.748  18.420  0.00  0.00    +0.000 OA
BRANCH  30  31
ATOM     31  C   UNL     1       4.506   2.619  19.098  0.00  0.00    +0.000 C 
ATOM     32  C   UNL     1       3.567   1.727  18.319  0.00  0.00    +0.000 C 
ATOM     33  O   UNL     1       4.866   2.334  20.215  0.00  0.00    +0.000 OA
ENDBRANCH  30  31
ENDBRANCH  10  30
TORSDOF 8
ENDMDL
MODEL 8
REMARK VINA RESULT:      -6.9      1.220      1.789
REMARK  Name = 
REMARK  15 active torsions:
REMARK  status: ('A' for Active; 'I' for Inactive)
REMARK    1  A    between atoms: C_1  and  C_2
REMARK    2  A    between atoms: C_2  and  C_3
REMARK    3  A    between atoms: C_3  and  C_4
REMARK    4  A    between atoms: C_3  and  C_31
REMARK    5  A    between atoms: C_4  and  C_5
REMARK    6  A    between atoms: C_5  and  C_6
REMARK    7  A    between atoms: C_6  and  C_7
REMARK    8  A    between atoms: C_6  and  C_8
REMARK    9  A    between atoms: C_17  and  O_18
REMARK   10  A    between atoms: O_18  and  C_19
REMARK   11  A    between atoms: C_19  and  C_20
REMARK   12  A    between atoms: C_24  and  C_25
REMARK   13  A    between atoms: C_29  and  C_30
REMARK   14  A    between atoms: C_31  and  C_32
REMARK   15  A    between atoms: C_31  and  C_33
REMARK                            x       y       z     vdW  Elec       q    Type
REMARK                         _______ _______ _______ _____ _____    ______ ____
ROOT
ATOM      1  C   UNL     1       1.065   8.440  19.963  0.00  0.00    +0.000 C 
ATOM      2  C   UNL     1       1.426   8.172  21.466  0.00  0.00    +0.000 C 
ATOM      3  C   UNL     1       0.829   9.321  22.277  0.00  0.00    +0.000 C 
ATOM      4  C   UNL     1      -0.250   9.862  21.356  0.00  0.00    +0.000 C 
ATOM      5  C   UNL     1      -0.870  11.220  21.686  0.00  0.00    +0.000 C 
ATOM      6  C   UNL     1      -1.454  11.220  23.100  0.00  0.00    +0.000 C 
ATOM      7  C   UNL     1      -2.393  12.354  23.344  0.00  0.00    +0.000 C 
ATOM      8  C   UNL     1      -2.906  13.142  22.384  0.00  0.00    +0.000 C 
ATOM      9  C   UNL     1      -3.875  14.241  22.761  0.00  0.00    +0.000 C 
ATOM     10  C   UNL     1      -5.182  14.060  21.989  0.00  0.00    +0.000 C 
ATOM     11  C   UNL     1      -4.890  14.134  20.480  0.00  0.00    +0.000 C 
ATOM     12  C   UNL     1      -3.936  13.017  20.060  0.00  0.00    +0.000 C 
ATOM     13  C   UNL     1      -2.613  12.959  20.886  0.00  0.00    +0.000 C 
ATOM     14  C   UNL     1      -1.685  14.113  20.442  0.00  0.00    +0.000 C 
ATOM     15  C   UNL     1      -1.961  11.551  20.629  0.00  0.00    +0.000 C 
ATOM     16  C   UNL     1      -1.485  11.346  19.167  0.00  0.00    +0.000 C 
ATOM     17  C   UNL     1      -0.745  10.022  18.949  0.00  0.00    +0.000 C 
ATOM     18  C   UNL     1       0.411   9.853  19.958  0.00  0.00    +0.000 C 
ATOM     19  C   UNL     1       1.451  10.993  19.800  0.00  0.00    +0.000 C 
ENDROOT
BRANCH   1  20
ATOM     20  C   UNL     1       2.240   8.137  18.989  0.00  0.00    +0.000 C 
ATOM     21  C   UNL     1       2.127   8.771  17.596  0.00  0.00    +0.000 C 
BRANCH  20  22
ATOM     22  C   UNL     1       2.415   6.607  18.890  0.00  0.00    +0.000 C 
BRANCH  22  23
ATOM     23  C   UNL     1       3.848   6.104  19.049  0.00  0.00    +0.000 C 
BRANCH  23  24
ATOM     24  C   UNL     1       4.585   5.968  17.695  0.00  0.00    +0.000 C 
BRANCH  24  25
ATOM     25  C   UNL     1       4.202   4.635  16.944  0.00  0.00    +0.000 C 
ATOM     26  C   UNL     1       5.248   4.191  15.902  0.00  0.00    +0.000 C 
ATOM     27  C   UNL     1       4.020   3.455  17.901  0.00  0.00    +0.000 C 
ENDBRANCH  24  25
BRANCH  24  29
ATOM     28  C   UNL     1       6.775   5.560  19.093  0.00  0.00    +0.000 C 
ATOM     29  C   UNL     1       6.119   6.177  17.856  0.00  0.00    +0.000 C 
ENDBRANCH  24  29
ENDBRANCH  23  24
ENDBRANCH  22  23
ENDBRANCH  20  22
ENDBRANCH   1  20
BRANCH  10  30
ATOM     30  O   UNL     1      -6.130  15.117  22.315  0.00  0.00    +0.000 OA
BRANCH  30  31
ATOM     31  C   UNL     1      -6.558  15.241  23.625  0.00  0.00    +0.000 C 
ATOM     32  C   UNL     1      -7.500  14.155  24.092  0.00  0.00    +0.000 C 
ATOM     33  O   UNL     1      -6.197  16.124  24.366  0.00  0.00    +0.000 OA
ENDBRANCH  30  31
ENDBRANCH  10  30
TORSDOF 8
ENDMDL
MODEL 9
REMARK VINA RESULT:      -6.9      4.551     10.421
REMARK  Name = 
REMARK  15 active torsions:
REMARK  status: ('A' for Active; 'I' for Inactive)
REMARK    1  A    between atoms: C_1  and  C_2
REMARK    2  A    between atoms: C_2  and  C_3
REMARK    3  A    between atoms: C_3  and  C_4
REMARK    4  A    between atoms: C_3  and  C_31
REMARK    5  A    between atoms: C_4  and  C_5
REMARK    6  A    between atoms: C_5  and  C_6
REMARK    7  A    between atoms: C_6  and  C_7
REMARK    8  A    between atoms: C_6  and  C_8
REMARK    9  A    between atoms: C_17  and  O_18
REMARK   10  A    between atoms: O_18  and  C_19
REMARK   11  A    between atoms: C_19  and  C_20
REMARK   12  A    between atoms: C_24  and  C_25
REMARK   13  A    between atoms: C_29  and  C_30
REMARK   14  A    between atoms: C_31  and  C_32
REMARK   15  A    between atoms: C_31  and  C_33
REMARK                            x       y       z     vdW  Elec       q    Type
REMARK                         _______ _______ _______ _____ _____    ______ ____
ROOT
ATOM      1  C   UNL     1       0.058  12.004  19.934  0.00  0.00    +0.000 C 
ATOM      2  C   UNL     1      -0.507  11.588  21.337  0.00  0.00    +0.000 C 
ATOM      3  C   UNL     1      -0.327  10.075  21.457  0.00  0.00    +0.000 C 
ATOM      4  C   UNL     1       0.762   9.781  20.440  0.00  0.00    +0.000 C 
ATOM      5  C   UNL     1       1.008   8.325  20.042  0.00  0.00    +0.000 C 
ATOM      6  C   UNL     1       1.309   7.470  21.275  0.00  0.00    +0.000 C 
ATOM      7  C   UNL     1       1.924   6.153  20.936  0.00  0.00    +0.000 C 
ATOM      8  C   UNL     1       2.424   5.830  19.731  0.00  0.00    +0.000 C 
ATOM      9  C   UNL     1       3.051   4.469  19.524  0.00  0.00    +0.000 C 
ATOM     10  C   UNL     1       4.486   4.636  19.023  0.00  0.00    +0.000 C 
ATOM     11  C   UNL     1       4.467   5.396  17.685  0.00  0.00    +0.000 C 
ATOM     12  C   UNL     1       3.866   6.789  17.865  0.00  0.00    +0.000 C 
ATOM     13  C   UNL     1       2.457   6.799  18.536  0.00  0.00    +0.000 C 
ATOM     14  C   UNL     1       1.402   6.320  17.512  0.00  0.00    +0.000 C 
ATOM     15  C   UNL     1       2.179   8.268  19.021  0.00  0.00    +0.000 C 
ATOM     16  C   UNL     1       2.033   9.287  17.860  0.00  0.00    +0.000 C 
ATOM     17  C   UNL     1       1.645  10.692  18.331  0.00  0.00    +0.000 C 
ATOM     18  C   UNL     1       0.386  10.658  19.223  0.00  0.00    +0.000 C 
ATOM     19  C   UNL     1      -0.825  10.081  18.445  0.00  0.00    +0.000 C 
ENDROOT
BRANCH   1  20
ATOM     20  C   UNL     1      -0.825  13.058  19.207  0.00  0.00    +0.000 C 
ATOM     21  C   UNL     1      -0.253  14.480  19.154  0.00  0.00    +0.000 C 
BRANCH  20  22
ATOM     22  C   UNL     1      -2.229  13.047  19.846  0.00  0.00    +0.000 C 
BRANCH  22  23
ATOM     23  C   UNL     1      -2.546  14.244  20.741  0.00  0.00    +0.000 C 
BRANCH  23  24
ATOM     24  C   UNL     1      -3.617  13.920  21.811  0.00  0.00    +0.000 C 
BRANCH  24  25
ATOM     25  C   UNL     1      -2.984  13.742  23.245  0.00  0.00    +0.000 C 
ATOM     26  C   UNL     1      -3.581  14.690  24.305  0.00  0.00    +0.000 C 
ATOM     27  C   UNL     1      -3.159  12.323  23.790  0.00  0.00    +0.000 C 
ENDBRANCH  24  25
BRANCH  24  29
ATOM     28  C   UNL     1      -6.027  12.996  21.309  0.00  0.00    +0.000 C 
ATOM     29  C   UNL     1      -4.521  12.732  21.373  0.00  0.00    +0.000 C 
ENDBRANCH  24  29
ENDBRANCH  23  24
ENDBRANCH  22  23
ENDBRANCH  20  22
ENDBRANCH   1  20
BRANCH  10  30
ATOM     30  O   UNL     1       5.110   3.340  18.794  0.00  0.00    +0.000 OA
BRANCH  30  31
ATOM     31  C   UNL     1       4.589   2.231  19.437  0.00  0.00    +0.000 C 
ATOM     32  C   UNL     1       3.604   1.427  18.620  0.00  0.00    +0.000 C 
ATOM     33  O   UNL     1       4.903   1.896  20.554  0.00  0.00    +0.000 OA
ENDBRANCH  30  31
ENDBRANCH  10  30
TORSDOF 8
ENDMDL
