MODEL 1
REMARK VINA RESULT:      -7.4      0.000      0.000
REMARK  Name = 
REMARK  7 active torsions:
REMARK  status: ('A' for Active; 'I' for Inactive)
REMARK    1  A    between atoms: C_1  and  O_2
REMARK    2  A    between atoms: O_2  and  C_3
REMARK    3  A    between atoms: C_6  and  C_7
REMARK    4  A    between atoms: C_13  and  C_14
REMARK    5  A    between atoms: C_14  and  N_15
REMARK    6  A    between atoms: N_15  and  C_16
REMARK    7  A    between atoms: N_15  and  C_17
REMARK                            x       y       z     vdW  Elec       q    Type
REMARK                         _______ _______ _______ _____ _____    ______ ____
ROOT
ATOM      1  C   UNL     1       1.660   8.580  19.576  0.00  0.00    +0.000 A 
ATOM      2  C   UNL     1       1.157   9.516  18.764  0.00  0.00    +0.000 A 
ATOM      3  C   UNL     1       0.514  10.704  19.320  0.00  0.00    +0.000 A 
ATOM      4  O   UNL     1       0.316  11.680  18.622  0.00  0.00    +0.000 OA
ATOM      5  C   UNL     1       0.134  10.619  20.717  0.00  0.00    +0.000 A 
ATOM      6  C   UNL     1      -0.711  11.598  21.236  0.00  0.00    +0.000 A 
ATOM      7  C   UNL     1      -1.270  11.443  22.505  0.00  0.00    +0.000 A 
ATOM      8  C   UNL     1      -0.922  10.292  23.239  0.00  0.00    +0.000 A 
ATOM      9  C   UNL     1      -0.005   9.344  22.736  0.00  0.00    +0.000 A 
ATOM     10  C   UNL     1       0.536   9.505  21.459  0.00  0.00    +0.000 A 
ATOM     11  O   UNL     1       1.418   8.559  20.959  0.00  0.00    +0.000 OA
ENDROOT
BRANCH   1  15
ATOM     12  C   UNL     1       4.211   5.402  18.170  0.00  0.00    +0.000 A 
ATOM     13  C   UNL     1       3.383   5.226  19.267  0.00  0.00    +0.000 A 
ATOM     14  C   UNL     1       2.485   6.224  19.629  0.00  0.00    +0.000 A 
ATOM     15  C   UNL     1       2.441   7.471  18.967  0.00  0.00    +0.000 A 
ATOM     16  C   UNL     1       3.206   7.596  17.802  0.00  0.00    +0.000 A 
ATOM     17  C   UNL     1       4.090   6.567  17.408  0.00  0.00    +0.000 A 
BRANCH  12  19
ATOM     18  C   UNL     1       6.475   4.726  17.956  0.00  0.00    +0.000 C 
ATOM     19  O   UNL     1       5.098   4.383  17.988  0.00  0.00    +0.000 OA
ENDBRANCH  12  19
ENDBRANCH   1  15
BRANCH   7  20
ATOM     20  C   UNL     1      -2.160  12.529  23.077  0.00  0.00    +0.000 C 
BRANCH  20  21
ATOM     21  N   UNL     1      -3.587  12.170  23.210  0.00  0.00    +0.000 NA
ATOM     22  C   UNL     1      -4.136  12.545  24.513  0.00  0.00    +0.000 C 
ATOM     23  C   UNL     1      -4.363  12.824  22.149  0.00  0.00    +0.000 C 
ENDBRANCH  20  21
ENDBRANCH   7  20
TORSDOF 4
ENDMDL
MODEL 2
REMARK VINA RESULT:      -7.3      3.353      8.727
REMARK  Name = 
REMARK  7 active torsions:
REMARK  status: ('A' for Active; 'I' for Inactive)
REMARK    1  A    between atoms: C_1  and  O_2
REMARK    2  A    between atoms: O_2  and  C_3
REMARK    3  A    between atoms: C_6  and  C_7
REMARK    4  A    between atoms: C_13  and  C_14
REMARK    5  A    between atoms: C_14  and  N_15
REMARK    6  A    between atoms: N_15  and  C_16
REMARK    7  A    between atoms: N_15  and  C_17
REMARK                            x       y       z     vdW  Elec       q    Type
REMARK                         _______ _______ _______ _____ _____    ______ ____
ROOT
ATOM      1  C   UNL     1       1.214   8.361  20.171  0.00  0.00    +0.000 A 
ATOM      2  C   UNL     1       1.762   8.934  19.093  0.00  0.00    +0.000 A 
ATOM      3  C   UNL     1       2.451   8.118  18.097  0.00  0.00    +0.000 A 
ATOM      4  O   UNL     1       2.696   8.568  16.995  0.00  0.00    +0.000 OA
ATOM      5  C   UNL     1       2.816   6.780  18.522  0.00  0.00    +0.000 A 
ATOM      6  C   UNL     1       3.699   6.049  17.729  0.00  0.00    +0.000 A 
ATOM      7  C   UNL     1       4.240   4.852  18.200  0.00  0.00    +0.000 A 
ATOM      8  C   UNL     1       3.839   4.406  19.475  0.00  0.00    +0.000 A 
ATOM      9  C   UNL     1       2.886   5.115  20.238  0.00  0.00    +0.000 A 
ATOM     10  C   UNL     1       2.362   6.318  19.761  0.00  0.00    +0.000 A 
ATOM     11  O   UNL     1       1.444   7.023  20.525  0.00  0.00    +0.000 OA
ENDROOT
BRANCH   1  15
ATOM     12  C   UNL     1      -0.832  11.135  22.761  0.00  0.00    +0.000 A 
ATOM     13  C   UNL     1      -0.709  11.378  21.402  0.00  0.00    +0.000 A 
ATOM     14  C   UNL     1      -0.151  10.414  20.570  0.00  0.00    +0.000 A 
ATOM     15  C   UNL     1       0.391   9.211  21.072  0.00  0.00    +0.000 A 
ATOM     16  C   UNL     1       0.168   8.933  22.426  0.00  0.00    +0.000 A 
ATOM     17  C   UNL     1      -0.437   9.894  23.267  0.00  0.00    +0.000 A 
BRANCH  12  19
ATOM     18  C   UNL     1      -2.616  12.655  23.124  0.00  0.00    +0.000 C 
ATOM     19  O   UNL     1      -1.315  12.199  23.462  0.00  0.00    +0.000 OA
ENDBRANCH  12  19
ENDBRANCH   1  15
BRANCH   7  20
ATOM     20  C   UNL     1       5.171   4.044  17.316  0.00  0.00    +0.000 C 
BRANCH  20  21
ATOM     21  N   UNL     1       6.306   4.797  16.742  0.00  0.00    +0.000 NA
ATOM     22  C   UNL     1       7.535   4.631  17.520  0.00  0.00    +0.000 C 
ATOM     23  C   UNL     1       6.542   4.361  15.361  0.00  0.00    +0.000 C 
ENDBRANCH  20  21
ENDBRANCH   7  20
TORSDOF 4
ENDMDL
MODEL 3
REMARK VINA RESULT:      -7.3      0.668      1.198
REMARK  Name = 
REMARK  7 active torsions:
REMARK  status: ('A' for Active; 'I' for Inactive)
REMARK    1  A    between atoms: C_1  and  O_2
REMARK    2  A    between atoms: O_2  and  C_3
REMARK    3  A    between atoms: C_6  and  C_7
REMARK    4  A    between atoms: C_13  and  C_14
REMARK    5  A    between atoms: C_14  and  N_15
REMARK    6  A    between atoms: N_15  and  C_16
REMARK    7  A    between atoms: N_15  and  C_17
REMARK                            x       y       z     vdW  Elec       q    Type
REMARK                         _______ _______ _______ _____ _____    ______ ____
ROOT
ATOM      1  C   UNL     1       1.749   8.289  19.719  0.00  0.00    +0.000 A 
ATOM      2  C   UNL     1       1.331   9.237  18.872  0.00  0.00    +0.000 A 
ATOM      3  C   UNL     1       0.727  10.465  19.382  0.00  0.00    +0.000 A 
ATOM      4  O   UNL     1       0.610  11.438  18.663  0.00  0.00    +0.000 OA
ATOM      5  C   UNL     1       0.282  10.423  20.762  0.00  0.00    +0.000 A 
ATOM      6  C   UNL     1      -0.533  11.452  21.229  0.00  0.00    +0.000 A 
ATOM      7  C   UNL     1      -1.154  11.346  22.475  0.00  0.00    +0.000 A 
ATOM      8  C   UNL     1      -0.899  10.190  23.239  0.00  0.00    +0.000 A 
ATOM      9  C   UNL     1      -0.012   9.189  22.790  0.00  0.00    +0.000 A 
ATOM     10  C   UNL     1       0.592   9.301  21.537  0.00  0.00    +0.000 A 
ATOM     11  O   UNL     1       1.446   8.303  21.090  0.00  0.00    +0.000 OA
ENDROOT
BRANCH   1  15
ATOM     12  C   UNL     1       3.648   4.970  17.729  0.00  0.00    +0.000 A 
ATOM     13  C   UNL     1       3.854   6.274  17.306  0.00  0.00    +0.000 A 
ATOM     14  C   UNL     1       3.326   7.333  18.036  0.00  0.00    +0.000 A 
ATOM     15  C   UNL     1       2.497   7.132  19.161  0.00  0.00    +0.000 A 
ATOM     16  C   UNL     1       2.383   5.820  19.636  0.00  0.00    +0.000 A 
ATOM     17  C   UNL     1       2.953   4.744  18.920  0.00  0.00    +0.000 A 
BRANCH  12  19
ATOM     18  C   UNL     1       5.241   4.428  16.058  0.00  0.00    +0.000 C 
ATOM     19  O   UNL     1       4.146   4.035  16.871  0.00  0.00    +0.000 OA
ENDBRANCH  12  19
ENDBRANCH   1  15
BRANCH   7  20
ATOM     20  C   UNL     1      -2.010  12.486  22.991  0.00  0.00    +0.000 C 
BRANCH  20  21
ATOM     21  N   UNL     1      -3.445  12.174  23.152  0.00  0.00    +0.000 NA
ATOM     22  C   UNL     1      -3.974  12.632  24.437  0.00  0.00    +0.000 C 
ATOM     23  C   UNL     1      -4.212  12.791  22.063  0.00  0.00    +0.000 C 
ENDBRANCH  20  21
ENDBRANCH   7  20
TORSDOF 4
ENDMDL
MODEL 4
REMARK VINA RESULT:      -7.2      3.326      8.607
REMARK  Name = 
REMARK  7 active torsions:
REMARK  status: ('A' for Active; 'I' for Inactive)
REMARK    1  A    between atoms: C_1  and  O_2
REMARK    2  A    between atoms: O_2  and  C_3
REMARK    3  A    between atoms: C_6  and  C_7
REMARK    4  A    between atoms: C_13  and  C_14
REMARK    5  A    between atoms: C_14  and  N_15
REMARK    6  A    between atoms: N_15  and  C_16
REMARK    7  A    between atoms: N_15  and  C_17
REMARK                            x       y       z     vdW  Elec       q    Type
REMARK                         _______ _______ _______ _____ _____    ______ ____
ROOT
ATOM      1  C   UNL     1       1.227   8.720  20.294  0.00  0.00    +0.000 A 
ATOM      2  C   UNL     1       1.745   9.185  19.151  0.00  0.00    +0.000 A 
ATOM      3  C   UNL     1       2.305   8.262  18.168  0.00  0.00    +0.000 A 
ATOM      4  O   UNL     1       2.510   8.628  17.027  0.00  0.00    +0.000 OA
ATOM      5  C   UNL     1       2.596   6.926  18.652  0.00  0.00    +0.000 A 
ATOM      6  C   UNL     1       3.367   6.083  17.853  0.00  0.00    +0.000 A 
ATOM      7  C   UNL     1       3.847   4.877  18.365  0.00  0.00    +0.000 A 
ATOM      8  C   UNL     1       3.497   4.538  19.686  0.00  0.00    +0.000 A 
ATOM      9  C   UNL     1       2.653   5.362  20.461  0.00  0.00    +0.000 A 
ATOM     10  C   UNL     1       2.190   6.572  19.942  0.00  0.00    +0.000 A 
ATOM     11  O   UNL     1       1.379   7.390  20.715  0.00  0.00    +0.000 OA
ENDROOT
BRANCH   1  15
ATOM     12  C   UNL     1      -1.176  11.266  22.809  0.00  0.00    +0.000 A 
ATOM     13  C   UNL     1      -0.839   9.980  23.202  0.00  0.00    +0.000 A 
ATOM     14  C   UNL     1       0.033   9.222  22.428  0.00  0.00    +0.000 A 
ATOM     15  C   UNL     1       0.531   9.682  21.189  0.00  0.00    +0.000 A 
ATOM     16  C   UNL     1       0.268  11.016  20.857  0.00  0.00    +0.000 A 
ATOM     17  C   UNL     1      -0.585  11.803  21.662  0.00  0.00    +0.000 A 
BRANCH  12  19
ATOM     18  C   UNL     1      -3.247  12.409  22.979  0.00  0.00    +0.000 C 
ATOM     19  O   UNL     1      -2.105  11.855  23.614  0.00  0.00    +0.000 OA
ENDBRANCH  12  19
ENDBRANCH   1  15
BRANCH   7  20
ATOM     20  C   UNL     1       4.655   3.949  17.478  0.00  0.00    +0.000 C 
BRANCH  20  21
ATOM     21  N   UNL     1       5.763   4.590  16.739  0.00  0.00    +0.000 NA
ATOM     22  C   UNL     1       6.996   4.649  17.526  0.00  0.00    +0.000 C 
ATOM     23  C   UNL     1       6.017   3.858  15.492  0.00  0.00    +0.000 C 
ENDBRANCH  20  21
ENDBRANCH   7  20
TORSDOF 4
ENDMDL
MODEL 5
REMARK VINA RESULT:      -7.2      0.963      1.105
REMARK  Name = 
REMARK  7 active torsions:
REMARK  status: ('A' for Active; 'I' for Inactive)
REMARK    1  A    between atoms: C_1  and  O_2
REMARK    2  A    between atoms: O_2  and  C_3
REMARK    3  A    between atoms: C_6  and  C_7
REMARK    4  A    between atoms: C_13  and  C_14
REMARK    5  A    between atoms: C_14  and  N_15
REMARK    6  A    between atoms: N_15  and  C_16
REMARK    7  A    between atoms: N_15  and  C_17
REMARK                            x       y       z     vdW  Elec       q    Type
REMARK                         _______ _______ _______ _____ _____    ______ ____
ROOT
ATOM      1  C   UNL     1       1.697   8.072  19.961  0.00  0.00    +0.000 A 
ATOM      2  C   UNL     1       1.445   9.029  19.061  0.00  0.00    +0.000 A 
ATOM      3  C   UNL     1       0.951  10.334  19.493  0.00  0.00    +0.000 A 
ATOM      4  O   UNL     1       0.992  11.288  18.740  0.00  0.00    +0.000 OA
ATOM      5  C   UNL     1       0.417  10.391  20.840  0.00  0.00    +0.000 A 
ATOM      6  C   UNL     1      -0.305  11.520  21.221  0.00  0.00    +0.000 A 
ATOM      7  C   UNL     1      -1.012  11.529  22.424  0.00  0.00    +0.000 A 
ATOM      8  C   UNL     1      -0.939  10.381  23.238  0.00  0.00    +0.000 A 
ATOM      9  C   UNL     1      -0.144   9.272  22.879  0.00  0.00    +0.000 A 
ATOM     10  C   UNL     1       0.548   9.271  21.666  0.00  0.00    +0.000 A 
ATOM     11  O   UNL     1       1.310   8.169  21.307  0.00  0.00    +0.000 OA
ENDROOT
BRANCH   1  15
ATOM     12  C   UNL     1       3.848   4.473  18.960  0.00  0.00    +0.000 A 
ATOM     13  C   UNL     1       2.963   4.507  20.025  0.00  0.00    +0.000 A 
ATOM     14  C   UNL     1       2.194   5.643  20.255  0.00  0.00    +0.000 A 
ATOM     15  C   UNL     1       2.344   6.819  19.489  0.00  0.00    +0.000 A 
ATOM     16  C   UNL     1       3.162   6.736  18.356  0.00  0.00    +0.000 A 
ATOM     17  C   UNL     1       3.914   5.569  18.096  0.00  0.00    +0.000 A 
BRANCH  12  19
ATOM     18  C   UNL     1       4.375   2.375  19.933  0.00  0.00    +0.000 C 
ATOM     19  O   UNL     1       4.595   3.334  18.910  0.00  0.00    +0.000 OA
ENDBRANCH  12  19
ENDBRANCH   1  15
BRANCH   7  20
ATOM     20  C   UNL     1      -1.766  12.775  22.848  0.00  0.00    +0.000 C 
BRANCH  20  21
ATOM     21  N   UNL     1      -3.239  12.672  22.788  0.00  0.00    +0.000 NA
ATOM     22  C   UNL     1      -3.845  12.579  24.117  0.00  0.00    +0.000 C 
ATOM     23  C   UNL     1      -3.789  13.836  22.083  0.00  0.00    +0.000 C 
ENDBRANCH  20  21
ENDBRANCH   7  20
TORSDOF 4
ENDMDL
MODEL 6
REMARK VINA RESULT:      -7.2      1.699      2.710
REMARK  Name = 
REMARK  7 active torsions:
REMARK  status: ('A' for Active; 'I' for Inactive)
REMARK    1  A    between atoms: C_1  and  O_2
REMARK    2  A    between atoms: O_2  and  C_3
REMARK    3  A    between atoms: C_6  and  C_7
REMARK    4  A    between atoms: C_13  and  C_14
REMARK    5  A    between atoms: C_14  and  N_15
REMARK    6  A    between atoms: N_15  and  C_16
REMARK    7  A    between atoms: N_15  and  C_17
REMARK                            x       y       z     vdW  Elec       q    Type
REMARK                         _______ _______ _______ _____ _____    ______ ____
ROOT
ATOM      1  C   UNL     1       2.852   7.349  18.416  0.00  0.00    +0.000 A 
ATOM      2  C   UNL     1       2.551   8.355  17.587  0.00  0.00    +0.000 A 
ATOM      3  C   UNL     1       1.924   9.569  18.101  0.00  0.00    +0.000 A 
ATOM      4  O   UNL     1       1.909  10.585  17.433  0.00  0.00    +0.000 OA
ATOM      5  C   UNL     1       1.330   9.462  19.420  0.00  0.00    +0.000 A 
ATOM      6  C   UNL     1       0.493  10.487  19.857  0.00  0.00    +0.000 A 
ATOM      7  C   UNL     1      -0.263  10.329  21.019  0.00  0.00    +0.000 A 
ATOM      8  C   UNL     1      -0.120   9.125  21.737  0.00  0.00    +0.000 A 
ATOM      9  C   UNL     1       0.788   8.125  21.327  0.00  0.00    +0.000 A 
ATOM     10  C   UNL     1       1.527   8.290  20.155  0.00  0.00    +0.000 A 
ATOM     11  O   UNL     1       2.401   7.294  19.744  0.00  0.00    +0.000 OA
ENDROOT
BRANCH   1  15
ATOM     12  C   UNL     1       5.023   4.202  16.425  0.00  0.00    +0.000 A 
ATOM     13  C   UNL     1       5.534   5.488  16.504  0.00  0.00    +0.000 A 
ATOM     14  C   UNL     1       4.872   6.455  17.252  0.00  0.00    +0.000 A 
ATOM     15  C   UNL     1       3.629   6.203  17.874  0.00  0.00    +0.000 A 
ATOM     16  C   UNL     1       3.179   4.878  17.874  0.00  0.00    +0.000 A 
ATOM     17  C   UNL     1       3.871   3.883  17.149  0.00  0.00    +0.000 A 
BRANCH  12  19
ATOM     18  C   UNL     1       6.322   3.993  14.452  0.00  0.00    +0.000 C 
ATOM     19  O   UNL     1       5.727   3.387  15.590  0.00  0.00    +0.000 OA
ENDBRANCH  12  19
ENDBRANCH   1  15
BRANCH   7  20
ATOM     20  C   UNL     1      -1.144  11.463  21.507  0.00  0.00    +0.000 C 
BRANCH  20  21
ATOM     21  N   UNL     1      -0.484  12.430  22.410  0.00  0.00    +0.000 NA
ATOM     22  C   UNL     1       0.145  13.532  21.681  0.00  0.00    +0.000 C 
ATOM     23  C   UNL     1      -1.465  12.972  23.358  0.00  0.00    +0.000 C 
ENDBRANCH  20  21
ENDBRANCH   7  20
TORSDOF 4
ENDMDL
MODEL 7
REMARK VINA RESULT:      -7.2      7.575      9.650
REMARK  Name = 
REMARK  7 active torsions:
REMARK  status: ('A' for Active; 'I' for Inactive)
REMARK    1  A    between atoms: C_1  and  O_2
REMARK    2  A    between atoms: O_2  and  C_3
REMARK    3  A    between atoms: C_6  and  C_7
REMARK    4  A    between atoms: C_13  and  C_14
REMARK    5  A    between atoms: C_14  and  N_15
REMARK    6  A    between atoms: N_15  and  C_16
REMARK    7  A    between atoms: N_15  and  C_17
REMARK                            x       y       z     vdW  Elec       q    Type
REMARK                         _______ _______ _______ _____ _____    ______ ____
ROOT
ATOM      1  C   UNL     1       8.053   8.404  18.138  0.00  0.00    +0.000 A 
ATOM      2  C   UNL     1       8.376   7.472  19.041  0.00  0.00    +0.000 A 
ATOM      3  C   UNL     1       7.924   6.094  18.869  0.00  0.00    +0.000 A 
ATOM      4  O   UNL     1       8.436   5.194  19.506  0.00  0.00    +0.000 OA
ATOM      5  C   UNL     1       6.846   5.898  17.919  0.00  0.00    +0.000 A 
ATOM      6  C   UNL     1       6.192   4.667  17.900  0.00  0.00    +0.000 A 
ATOM      7  C   UNL     1       5.021   4.505  17.159  0.00  0.00    +0.000 A 
ATOM      8  C   UNL     1       4.555   5.609  16.418  0.00  0.00    +0.000 A 
ATOM      9  C   UNL     1       5.265   6.828  16.384  0.00  0.00    +0.000 A 
ATOM     10  C   UNL     1       6.428   6.981  17.140  0.00  0.00    +0.000 A 
ATOM     11  O   UNL     1       7.110   8.188  17.121  0.00  0.00    +0.000 OA
ENDROOT
BRANCH   1  15
ATOM     12  C   UNL     1       9.594  12.352  18.929  0.00  0.00    +0.000 A 
ATOM     13  C   UNL     1      10.015  11.256  19.665  0.00  0.00    +0.000 A 
ATOM     14  C   UNL     1       9.594   9.979  19.314  0.00  0.00    +0.000 A 
ATOM     15  C   UNL     1       8.665   9.753  18.274  0.00  0.00    +0.000 A 
ATOM     16  C   UNL     1       8.330  10.852  17.476  0.00  0.00    +0.000 A 
ATOM     17  C   UNL     1       8.790  12.147  17.805  0.00  0.00    +0.000 A 
BRANCH  12  19
ATOM     18  C   UNL     1      10.512  14.500  18.515  0.00  0.00    +0.000 C 
ATOM     19  O   UNL     1      10.013  13.544  19.440  0.00  0.00    +0.000 OA
ENDBRANCH  12  19
ENDBRANCH   1  15
BRANCH   7  20
ATOM     20  C   UNL     1       4.337   3.152  17.115  0.00  0.00    +0.000 C 
BRANCH  20  21
ATOM     21  N   UNL     1       3.461   2.851  18.267  0.00  0.00    +0.000 NA
ATOM     22  C   UNL     1       2.071   3.242  18.027  0.00  0.00    +0.000 C 
ATOM     23  C   UNL     1       3.517   1.416  18.570  0.00  0.00    +0.000 C 
ENDBRANCH  20  21
ENDBRANCH   7  20
TORSDOF 4
ENDMDL
MODEL 8
REMARK VINA RESULT:      -7.1      4.221      9.712
REMARK  Name = 
REMARK  7 active torsions:
REMARK  status: ('A' for Active; 'I' for Inactive)
REMARK    1  A    between atoms: C_1  and  O_2
REMARK    2  A    between atoms: O_2  and  C_3
REMARK    3  A    between atoms: C_6  and  C_7
REMARK    4  A    between atoms: C_13  and  C_14
REMARK    5  A    between atoms: C_14  and  N_15
REMARK    6  A    between atoms: N_15  and  C_16
REMARK    7  A    between atoms: N_15  and  C_17
REMARK                            x       y       z     vdW  Elec       q    Type
REMARK                         _______ _______ _______ _____ _____    ______ ____
ROOT
ATOM      1  C   UNL     1       2.644   6.831  18.854  0.00  0.00    +0.000 A 
ATOM      2  C   UNL     1       2.290   5.541  18.874  0.00  0.00    +0.000 A 
ATOM      3  C   UNL     1       3.110   4.543  18.194  0.00  0.00    +0.000 A 
ATOM      4  O   UNL     1       2.970   3.360  18.439  0.00  0.00    +0.000 OA
ATOM      5  C   UNL     1       4.062   5.060  17.229  0.00  0.00    +0.000 A 
ATOM      6  C   UNL     1       4.682   4.163  16.361  0.00  0.00    +0.000 A 
ATOM      7  C   UNL     1       5.437   4.634  15.286  0.00  0.00    +0.000 A 
ATOM      8  C   UNL     1       5.570   6.029  15.138  0.00  0.00    +0.000 A 
ATOM      9  C   UNL     1       5.001   6.927  16.066  0.00  0.00    +0.000 A 
ATOM     10  C   UNL     1       4.237   6.443  17.130  0.00  0.00    +0.000 A 
ATOM     11  O   UNL     1       3.661   7.331  18.026  0.00  0.00    +0.000 OA
ENDROOT
BRANCH   1  15
ATOM     12  C   UNL     1       0.752   9.874  21.251  0.00  0.00    +0.000 A 
ATOM     13  C   UNL     1       0.941  10.048  19.890  0.00  0.00    +0.000 A 
ATOM     14  C   UNL     1       1.445   9.006  19.119  0.00  0.00    +0.000 A 
ATOM     15  C   UNL     1       1.865   7.784  19.689  0.00  0.00    +0.000 A 
ATOM     16  C   UNL     1       1.573   7.585  21.043  0.00  0.00    +0.000 A 
ATOM     17  C   UNL     1       1.022   8.627  21.822  0.00  0.00    +0.000 A 
BRANCH  12  19
ATOM     18  C   UNL     1      -0.782  10.878  22.757  0.00  0.00    +0.000 C 
ATOM     19  O   UNL     1       0.336  11.004  21.891  0.00  0.00    +0.000 OA
ENDBRANCH  12  19
ENDBRANCH   1  15
BRANCH   7  20
ATOM     20  C   UNL     1       6.138   3.652  14.368  0.00  0.00    +0.000 C 
BRANCH  20  21
ATOM     21  N   UNL     1       6.093   3.991  12.930  0.00  0.00    +0.000 NA
ATOM     22  C   UNL     1       7.406   4.373  12.407  0.00  0.00    +0.000 C 
ATOM     23  C   UNL     1       5.581   2.846  12.167  0.00  0.00    +0.000 C 
ENDBRANCH  20  21
ENDBRANCH   7  20
TORSDOF 4
ENDMDL
MODEL 9
REMARK VINA RESULT:      -7.1      3.397      9.001
REMARK  Name = 
REMARK  7 active torsions:
REMARK  status: ('A' for Active; 'I' for Inactive)
REMARK    1  A    between atoms: C_1  and  O_2
REMARK    2  A    between atoms: O_2  and  C_3
REMARK    3  A    between atoms: C_6  and  C_7
REMARK    4  A    between atoms: C_13  and  C_14
REMARK    5  A    between atoms: C_14  and  N_15
REMARK    6  A    between atoms: N_15  and  C_16
REMARK    7  A    between atoms: N_15  and  C_17
REMARK                            x       y       z     vdW  Elec       q    Type
REMARK                         _______ _______ _______ _____ _____    ______ ____
ROOT
ATOM      1  C   UNL     1       1.172   7.987  20.657  0.00  0.00    +0.000 A 
ATOM      2  C   UNL     1       1.054   6.722  21.078  0.00  0.00    +0.000 A 
ATOM      3  C   UNL     1       1.999   5.705  20.625  0.00  0.00    +0.000 A 
ATOM      4  O   UNL     1       2.084   4.641  21.207  0.00  0.00    +0.000 OA
ATOM      5  C   UNL     1       2.788   6.052  19.458  0.00  0.00    +0.000 A 
ATOM      6  C   UNL     1       3.507   5.044  18.819  0.00  0.00    +0.000 A 
ATOM      7  C   UNL     1       4.104   5.285  17.581  0.00  0.00    +0.000 A 
ATOM      8  C   UNL     1       3.979   6.576  17.031  0.00  0.00    +0.000 A 
ATOM      9  C   UNL     1       3.313   7.611  17.722  0.00  0.00    +0.000 A 
ATOM     10  C   UNL     1       2.709   7.353  18.954  0.00  0.00    +0.000 A 
ATOM     11  O   UNL     1       2.036   8.368  19.618  0.00  0.00    +0.000 OA
ENDROOT
BRANCH   1  15
ATOM     12  C   UNL     1      -1.040  11.252  22.398  0.00  0.00    +0.000 A 
ATOM     13  C   UNL     1      -0.711  11.245  21.052  0.00  0.00    +0.000 A 
ATOM     14  C   UNL     1      -0.102  10.128  20.490  0.00  0.00    +0.000 A 
ATOM     15  C   UNL     1       0.285   9.013  21.266  0.00  0.00    +0.000 A 
ATOM     16  C   UNL     1      -0.146   8.989  22.597  0.00  0.00    +0.000 A 
ATOM     17  C   UNL     1      -0.802  10.106  23.161  0.00  0.00    +0.000 A 
BRANCH  12  19
ATOM     18  C   UNL     1      -2.849  12.415  23.399  0.00  0.00    +0.000 C 
ATOM     19  O   UNL     1      -1.549  12.441  22.827  0.00  0.00    +0.000 OA
ENDBRANCH  12  19
ENDBRANCH   1  15
BRANCH   7  20
ATOM     20  C   UNL     1       4.916   4.194  16.909  0.00  0.00    +0.000 C 
BRANCH  20  21
ATOM     21  N   UNL     1       6.111   4.659  16.175  0.00  0.00    +0.000 NA
ATOM     22  C   UNL     1       7.333   4.544  16.972  0.00  0.00    +0.000 C 
ATOM     23  C   UNL     1       6.264   3.886  14.936  0.00  0.00    +0.000 C 
ENDBRANCH  20  21
ENDBRANCH   7  20
TORSDOF 4
ENDMDL
