MODEL 1
REMARK VINA RESULT:      -6.3      0.000      0.000
REMARK  Name = 
REMARK  12 active torsions:
REMARK  status: ('A' for Active; 'I' for Inactive)
REMARK    1  A    between atoms: C_1  and  C_2
REMARK    2  A    between atoms: C_2  and  C_3
REMARK    3  A    between atoms: C_2  and  N_7
REMARK    4  A    between atoms: C_3  and  C_4
REMARK    5  A    between atoms: C_4  and  C_5
REMARK    6  A    between atoms: C_5  and  O_6
REMARK    7  A    between atoms: N_7  and  C_8
REMARK    8  A    between atoms: C_8  and  C_9
REMARK    9  A    between atoms: C_9  and  O_10
REMARK   10  A    between atoms: C_9  and  C_11
REMARK   11  A    between atoms: C_14  and  O_15
REMARK   12  A    between atoms: C_16  and  O_17
REMARK                            x       y       z     vdW  Elec       q    Type
REMARK                         _______ _______ _______ _____ _____    ______ ____
ROOT
ATOM      1  C   UNL     1       4.520   3.469  18.305  0.00  0.00    +0.000 C 
ENDROOT
BRANCH   1   2
ATOM      2  C   UNL     1       5.397   4.078  17.217  0.00  0.00    +0.000 A 
ATOM      3  C   UNL     1       5.409   3.456  15.951  0.00  0.00    +0.000 A 
ATOM      4  C   UNL     1       6.200   3.945  14.906  0.00  0.00    +0.000 A 
ATOM      5  C   UNL     1       6.983   5.069  15.117  0.00  0.00    +0.000 A 
ATOM      6  C   UNL     1       6.957   5.719  16.355  0.00  0.00    +0.000 A 
ATOM      7  C   UNL     1       6.173   5.238  17.399  0.00  0.00    +0.000 A 
BRANCH   5   8
ATOM      8  O   UNL     1       7.779   5.595  14.136  0.00  0.00    +0.000 OA
ATOM      9  H   UNL     1       7.437   5.289  13.281  0.00  0.00    +0.000 HD
ENDBRANCH   5   8
BRANCH   6  10
ATOM     10  O   UNL     1       7.724   6.819  16.539  0.00  0.00    +0.000 OA
ATOM     11  H   UNL     1       7.907   6.849  17.495  0.00  0.00    +0.000 HD
ENDBRANCH   6  10
ENDBRANCH   1   2
BRANCH   1  12
ATOM     12  O   UNL     1       5.344   3.062  19.397  0.00  0.00    +0.000 OA
ATOM     13  H   UNL     1       5.770   3.862  19.752  0.00  0.00    +0.000 HD
ENDBRANCH   1  12
BRANCH   1  14
ATOM     14  C   UNL     1       3.601   2.286  17.912  0.00  0.00    +0.000 C 
BRANCH  14  15
ATOM     15  N   UNL     1       2.317   2.395  18.595  0.00  0.00    +0.000 NA
ATOM     16  H   UNL     1       2.408   1.923  19.501  0.00  0.00    +0.000 HD
BRANCH  15  18
ATOM     17  C   UNL     1       1.374   4.625  17.622  0.00  0.00    +0.000 C 
ATOM     18  C   UNL     1       1.762   3.719  18.794  0.00  0.00    +0.000 C 
BRANCH  18  19
ATOM     19  C   UNL     1       0.703   3.656  19.906  0.00  0.00    +0.000 C 
BRANCH  19  20
ATOM     20  C   UNL     1       1.118   2.841  21.126  0.00  0.00    +0.000 C 
BRANCH  20  21
ATOM     21  C   UNL     1       2.411   3.314  21.779  0.00  0.00    +0.000 C 
BRANCH  21  22
ATOM     22  O   UNL     1       3.423   2.333  21.591  0.00  0.00    +0.000 OA
ATOM     23  H   UNL     1       4.276   2.796  21.604  0.00  0.00    +0.000 HD
ENDBRANCH  21  22
ENDBRANCH  20  21
ENDBRANCH  19  20
ENDBRANCH  18  19
ENDBRANCH  15  18
ENDBRANCH  14  15
ENDBRANCH   1  14
TORSDOF 11
ENDMDL
MODEL 2
REMARK VINA RESULT:      -6.2      0.983      1.763
REMARK  Name = 
REMARK  12 active torsions:
REMARK  status: ('A' for Active; 'I' for Inactive)
REMARK    1  A    between atoms: C_1  and  C_2
REMARK    2  A    between atoms: C_2  and  C_3
REMARK    3  A    between atoms: C_2  and  N_7
REMARK    4  A    between atoms: C_3  and  C_4
REMARK    5  A    between atoms: C_4  and  C_5
REMARK    6  A    between atoms: C_5  and  O_6
REMARK    7  A    between atoms: N_7  and  C_8
REMARK    8  A    between atoms: C_8  and  C_9
REMARK    9  A    between atoms: C_9  and  O_10
REMARK   10  A    between atoms: C_9  and  C_11
REMARK   11  A    between atoms: C_14  and  O_15
REMARK   12  A    between atoms: C_16  and  O_17
REMARK                            x       y       z     vdW  Elec       q    Type
REMARK                         _______ _______ _______ _____ _____    ______ ____
ROOT
ATOM      1  C   UNL     1       4.399   3.089  18.872  0.00  0.00    +0.000 C 
ENDROOT
BRANCH   1   2
ATOM      2  C   UNL     1       5.280   4.142  18.210  0.00  0.00    +0.000 A 
ATOM      3  C   UNL     1       6.175   4.865  19.026  0.00  0.00    +0.000 A 
ATOM      4  C   UNL     1       7.004   5.859  18.496  0.00  0.00    +0.000 A 
ATOM      5  C   UNL     1       6.952   6.133  17.138  0.00  0.00    +0.000 A 
ATOM      6  C   UNL     1       6.097   5.402  16.308  0.00  0.00    +0.000 A 
ATOM      7  C   UNL     1       5.268   4.413  16.829  0.00  0.00    +0.000 A 
BRANCH   5   8
ATOM      8  O   UNL     1       7.737   7.093  16.560  0.00  0.00    +0.000 OA
ATOM      9  H   UNL     1       7.517   7.944  16.971  0.00  0.00    +0.000 HD
ENDBRANCH   5   8
BRANCH   6  10
ATOM     10  O   UNL     1       6.064   5.681  14.984  0.00  0.00    +0.000 OA
ATOM     11  H   UNL     1       5.280   5.217  14.641  0.00  0.00    +0.000 HD
ENDBRANCH   6  10
ENDBRANCH   1   2
BRANCH   1  12
ATOM     12  O   UNL     1       5.148   2.420  19.885  0.00  0.00    +0.000 OA
ATOM     13  H   UNL     1       4.832   2.750  20.744  0.00  0.00    +0.000 HD
ENDBRANCH   1  12
BRANCH   1  14
ATOM     14  C   UNL     1       3.740   2.024  17.959  0.00  0.00    +0.000 C 
BRANCH  14  15
ATOM     15  N   UNL     1       2.290   2.173  17.975  0.00  0.00    +0.000 NA
ATOM     16  H   UNL     1       1.904   1.380  18.499  0.00  0.00    +0.000 HD
BRANCH  15  18
ATOM     17  C   UNL     1       1.489   4.628  17.601  0.00  0.00    +0.000 C 
ATOM     18  C   UNL     1       1.737   3.409  18.493  0.00  0.00    +0.000 C 
BRANCH  18  19
ATOM     19  C   UNL     1       0.566   3.079  19.432  0.00  0.00    +0.000 C 
BRANCH  19  20
ATOM     20  C   UNL     1       0.986   2.565  20.805  0.00  0.00    +0.000 C 
BRANCH  20  21
ATOM     21  C   UNL     1       2.080   3.390  21.471  0.00  0.00    +0.000 C 
BRANCH  21  22
ATOM     22  O   UNL     1       3.056   2.519  22.029  0.00  0.00    +0.000 OA
ATOM     23  H   UNL     1       3.165   1.778  21.412  0.00  0.00    +0.000 HD
ENDBRANCH  21  22
ENDBRANCH  20  21
ENDBRANCH  19  20
ENDBRANCH  18  19
ENDBRANCH  15  18
ENDBRANCH  14  15
ENDBRANCH   1  14
TORSDOF 11
ENDMDL
MODEL 3
REMARK VINA RESULT:      -6.1      1.270      1.320
REMARK  Name = 
REMARK  12 active torsions:
REMARK  status: ('A' for Active; 'I' for Inactive)
REMARK    1  A    between atoms: C_1  and  C_2
REMARK    2  A    between atoms: C_2  and  C_3
REMARK    3  A    between atoms: C_2  and  N_7
REMARK    4  A    between atoms: C_3  and  C_4
REMARK    5  A    between atoms: C_4  and  C_5
REMARK    6  A    between atoms: C_5  and  O_6
REMARK    7  A    between atoms: N_7  and  C_8
REMARK    8  A    between atoms: C_8  and  C_9
REMARK    9  A    between atoms: C_9  and  O_10
REMARK   10  A    between atoms: C_9  and  C_11
REMARK   11  A    between atoms: C_14  and  O_15
REMARK   12  A    between atoms: C_16  and  O_17
REMARK                            x       y       z     vdW  Elec       q    Type
REMARK                         _______ _______ _______ _____ _____    ______ ____
ROOT
ATOM      1  C   UNL     1       4.070   3.686  17.951  0.00  0.00    +0.000 C 
ENDROOT
BRANCH   1   2
ATOM      2  C   UNL     1       5.115   4.228  16.982  0.00  0.00    +0.000 A 
ATOM      3  C   UNL     1       5.265   3.580  15.738  0.00  0.00    +0.000 A 
ATOM      4  C   UNL     1       6.213   4.008  14.804  0.00  0.00    +0.000 A 
ATOM      5  C   UNL     1       7.018   5.097  15.102  0.00  0.00    +0.000 A 
ATOM      6  C   UNL     1       6.858   5.773  16.316  0.00  0.00    +0.000 A 
ATOM      7  C   UNL     1       5.918   5.353  17.252  0.00  0.00    +0.000 A 
BRANCH   5   8
ATOM      8  O   UNL     1       7.963   5.563  14.231  0.00  0.00    +0.000 OA
ATOM      9  H   UNL     1       8.017   6.525  14.338  0.00  0.00    +0.000 HD
ENDBRANCH   5   8
BRANCH   6  10
ATOM     10  O   UNL     1       7.649   6.837  16.587  0.00  0.00    +0.000 OA
ATOM     11  H   UNL     1       7.513   7.027  17.532  0.00  0.00    +0.000 HD
ENDBRANCH   6  10
ENDBRANCH   1   2
BRANCH   1  12
ATOM     12  O   UNL     1       4.478   2.396  18.406  0.00  0.00    +0.000 OA
ATOM     13  H   UNL     1       4.713   1.872  17.621  0.00  0.00    +0.000 HD
ENDBRANCH   1  12
BRANCH   1  14
ATOM     14  C   UNL     1       2.606   3.593  17.453  0.00  0.00    +0.000 C 
BRANCH  14  15
ATOM     15  N   UNL     1       1.800   4.649  18.055  0.00  0.00    +0.000 NA
ATOM     16  H   UNL     1       0.903   4.236  18.327  0.00  0.00    +0.000 HD
BRANCH  15  18
ATOM     17  C   UNL     1       2.710   6.864  19.094  0.00  0.00    +0.000 C 
ATOM     18  C   UNL     1       2.358   5.376  19.178  0.00  0.00    +0.000 C 
BRANCH  18  19
ATOM     19  C   UNL     1       1.594   4.990  20.454  0.00  0.00    +0.000 C 
BRANCH  19  20
ATOM     20  C   UNL     1       0.935   3.616  20.402  0.00  0.00    +0.000 C 
BRANCH  20  21
ATOM     21  C   UNL     1       1.638   2.557  21.243  0.00  0.00    +0.000 C 
BRANCH  21  22
ATOM     22  O   UNL     1       2.439   3.192  22.232  0.00  0.00    +0.000 OA
ATOM     23  H   UNL     1       2.456   2.607  23.006  0.00  0.00    +0.000 HD
ENDBRANCH  21  22
ENDBRANCH  20  21
ENDBRANCH  19  20
ENDBRANCH  18  19
ENDBRANCH  15  18
ENDBRANCH  14  15
ENDBRANCH   1  14
TORSDOF 11
ENDMDL
MODEL 4
REMARK VINA RESULT:      -6.0      2.590      6.338
REMARK  Name = 
REMARK  12 active torsions:
REMARK  status: ('A' for Active; 'I' for Inactive)
REMARK    1  A    between atoms: C_1  and  C_2
REMARK    2  A    between atoms: C_2  and  C_3
REMARK    3  A    between atoms: C_2  and  N_7
REMARK    4  A    between atoms: C_3  and  C_4
REMARK    5  A    between atoms: C_4  and  C_5
REMARK    6  A    between atoms: C_5  and  O_6
REMARK    7  A    between atoms: N_7  and  C_8
REMARK    8  A    between atoms: C_8  and  C_9
REMARK    9  A    between atoms: C_9  and  O_10
REMARK   10  A    between atoms: C_9  and  C_11
REMARK   11  A    between atoms: C_14  and  O_15
REMARK   12  A    between atoms: C_16  and  O_17
REMARK                            x       y       z     vdW  Elec       q    Type
REMARK                         _______ _______ _______ _____ _____    ______ ____
ROOT
ATOM      1  C   UNL     1       4.157   6.338  17.771  0.00  0.00    +0.000 C 
ENDROOT
BRANCH   1   2
ATOM      2  C   UNL     1       3.466   4.999  18.001  0.00  0.00    +0.000 A 
ATOM      3  C   UNL     1       2.060   4.952  17.900  0.00  0.00    +0.000 A 
ATOM      4  C   UNL     1       1.353   3.765  18.113  0.00  0.00    +0.000 A 
ATOM      5  C   UNL     1       2.049   2.606  18.423  0.00  0.00    +0.000 A 
ATOM      6  C   UNL     1       3.445   2.626  18.492  0.00  0.00    +0.000 A 
ATOM      7  C   UNL     1       4.156   3.804  18.282  0.00  0.00    +0.000 A 
BRANCH   5   8
ATOM      8  O   UNL     1       1.415   1.414  18.643  0.00  0.00    +0.000 OA
ATOM      9  H   UNL     1       2.081   0.711  18.593  0.00  0.00    +0.000 HD
ENDBRANCH   5   8
BRANCH   6  10
ATOM     10  O   UNL     1       4.107   1.483  18.790  0.00  0.00    +0.000 OA
ATOM     11  H   UNL     1       3.435   0.884  19.160  0.00  0.00    +0.000 HD
ENDBRANCH   6  10
ENDBRANCH   1   2
BRANCH   1  12
ATOM     12  O   UNL     1       3.212   7.391  17.962  0.00  0.00    +0.000 OA
ATOM     13  H   UNL     1       3.614   8.032  18.574  0.00  0.00    +0.000 HD
ENDBRANCH   1  12
BRANCH   1  14
ATOM     14  C   UNL     1       4.873   6.556  16.415  0.00  0.00    +0.000 C 
BRANCH  14  15
ATOM     15  N   UNL     1       6.276   6.890  16.633  0.00  0.00    +0.000 NA
ATOM     16  H   UNL     1       6.314   7.598  17.373  0.00  0.00    +0.000 HD
BRANCH  15  18
ATOM     17  C   UNL     1       7.616   5.496  18.386  0.00  0.00    +0.000 C 
ATOM     18  C   UNL     1       7.191   5.811  16.949  0.00  0.00    +0.000 C 
BRANCH  18  19
ATOM     19  C   UNL     1       6.805   4.570  16.130  0.00  0.00    +0.000 C 
BRANCH  19  20
ATOM     20  C   UNL     1       7.014   4.717  14.626  0.00  0.00    +0.000 C 
BRANCH  20  21
ATOM     21  C   UNL     1       5.906   4.102  13.781  0.00  0.00    +0.000 C 
BRANCH  21  22
ATOM     22  O   UNL     1       6.451   3.077  12.958  0.00  0.00    +0.000 OA
ATOM     23  H   UNL     1       5.965   3.097  12.118  0.00  0.00    +0.000 HD
ENDBRANCH  21  22
ENDBRANCH  20  21
ENDBRANCH  19  20
ENDBRANCH  18  19
ENDBRANCH  15  18
ENDBRANCH  14  15
ENDBRANCH   1  14
TORSDOF 11
ENDMDL
MODEL 5
REMARK VINA RESULT:      -6.0      1.116      1.116
REMARK  Name = 
REMARK  12 active torsions:
REMARK  status: ('A' for Active; 'I' for Inactive)
REMARK    1  A    between atoms: C_1  and  C_2
REMARK    2  A    between atoms: C_2  and  C_3
REMARK    3  A    between atoms: C_2  and  N_7
REMARK    4  A    between atoms: C_3  and  C_4
REMARK    5  A    between atoms: C_4  and  C_5
REMARK    6  A    between atoms: C_5  and  O_6
REMARK    7  A    between atoms: N_7  and  C_8
REMARK    8  A    between atoms: C_8  and  C_9
REMARK    9  A    between atoms: C_9  and  O_10
REMARK   10  A    between atoms: C_9  and  C_11
REMARK   11  A    between atoms: C_14  and  O_15
REMARK   12  A    between atoms: C_16  and  O_17
REMARK                            x       y       z     vdW  Elec       q    Type
REMARK                         _______ _______ _______ _____ _____    ______ ____
ROOT
ATOM      1  C   UNL     1       4.418   3.048  18.633  0.00  0.00    +0.000 C 
ENDROOT
BRANCH   1   2
ATOM      2  C   UNL     1       5.282   3.775  17.609  0.00  0.00    +0.000 A 
ATOM      3  C   UNL     1       5.144   3.418  16.252  0.00  0.00    +0.000 A 
ATOM      4  C   UNL     1       5.914   4.028  15.256  0.00  0.00    +0.000 A 
ATOM      5  C   UNL     1       6.826   5.010  15.609  0.00  0.00    +0.000 A 
ATOM      6  C   UNL     1       6.951   5.401  16.946  0.00  0.00    +0.000 A 
ATOM      7  C   UNL     1       6.189   4.799  17.943  0.00  0.00    +0.000 A 
BRANCH   5   8
ATOM      8  O   UNL     1       7.608   5.643  14.682  0.00  0.00    +0.000 OA
ATOM      9  H   UNL     1       7.050   5.855  13.918  0.00  0.00    +0.000 HD
ENDBRANCH   5   8
BRANCH   6  10
ATOM     10  O   UNL     1       7.844   6.366  17.270  0.00  0.00    +0.000 OA
ATOM     11  H   UNL     1       8.719   5.982  17.083  0.00  0.00    +0.000 HD
ENDBRANCH   6  10
ENDBRANCH   1   2
BRANCH   1  12
ATOM     12  O   UNL     1       5.210   2.733  19.777  0.00  0.00    +0.000 OA
ATOM     13  H   UNL     1       5.401   3.570  20.236  0.00  0.00    +0.000 HD
ENDBRANCH   1  12
BRANCH   1  14
ATOM     14  C   UNL     1       3.683   1.764  18.173  0.00  0.00    +0.000 C 
BRANCH  14  15
ATOM     15  N   UNL     1       2.278   2.052  17.911  0.00  0.00    +0.000 NA
ATOM     16  H   UNL     1       1.729   1.260  18.260  0.00  0.00    +0.000 HD
BRANCH  15  18
ATOM     17  C   UNL     1       1.281   4.432  17.517  0.00  0.00    +0.000 C 
ATOM     18  C   UNL     1       1.727   3.288  18.432  0.00  0.00    +0.000 C 
BRANCH  18  19
ATOM     19  C   UNL     1       0.723   2.958  19.547  0.00  0.00    +0.000 C 
BRANCH  19  20
ATOM     20  C   UNL     1       1.239   3.220  20.957  0.00  0.00    +0.000 C 
BRANCH  20  21
ATOM     21  C   UNL     1       2.196   4.401  21.061  0.00  0.00    +0.000 C 
BRANCH  21  22
ATOM     22  O   UNL     1       1.473   5.614  20.885  0.00  0.00    +0.000 OA
ATOM     23  H   UNL     1       0.539   5.375  20.767  0.00  0.00    +0.000 HD
ENDBRANCH  21  22
ENDBRANCH  20  21
ENDBRANCH  19  20
ENDBRANCH  18  19
ENDBRANCH  15  18
ENDBRANCH  14  15
ENDBRANCH   1  14
TORSDOF 11
ENDMDL
MODEL 6
REMARK VINA RESULT:      -6.0      2.012      2.361
REMARK  Name = 
REMARK  12 active torsions:
REMARK  status: ('A' for Active; 'I' for Inactive)
REMARK    1  A    between atoms: C_1  and  C_2
REMARK    2  A    between atoms: C_2  and  C_3
REMARK    3  A    between atoms: C_2  and  N_7
REMARK    4  A    between atoms: C_3  and  C_4
REMARK    5  A    between atoms: C_4  and  C_5
REMARK    6  A    between atoms: C_5  and  O_6
REMARK    7  A    between atoms: N_7  and  C_8
REMARK    8  A    between atoms: C_8  and  C_9
REMARK    9  A    between atoms: C_9  and  O_10
REMARK   10  A    between atoms: C_9  and  C_11
REMARK   11  A    between atoms: C_14  and  O_15
REMARK   12  A    between atoms: C_16  and  O_17
REMARK                            x       y       z     vdW  Elec       q    Type
REMARK                         _______ _______ _______ _____ _____    ______ ____
ROOT
ATOM      1  C   UNL     1       4.369   3.775  18.650  0.00  0.00    +0.000 C 
ENDROOT
BRANCH   1   2
ATOM      2  C   UNL     1       5.261   4.276  17.520  0.00  0.00    +0.000 A 
ATOM      3  C   UNL     1       5.216   3.592  16.287  0.00  0.00    +0.000 A 
ATOM      4  C   UNL     1       6.016   3.980  15.208  0.00  0.00    +0.000 A 
ATOM      5  C   UNL     1       6.868   5.066  15.351  0.00  0.00    +0.000 A 
ATOM      6  C   UNL     1       6.900   5.777  16.554  0.00  0.00    +0.000 A 
ATOM      7  C   UNL     1       6.107   5.396  17.633  0.00  0.00    +0.000 A 
BRANCH   5   8
ATOM      8  O   UNL     1       7.676   5.494  14.334  0.00  0.00    +0.000 OA
ATOM      9  H   UNL     1       7.113   5.914  13.665  0.00  0.00    +0.000 HD
ENDBRANCH   5   8
BRANCH   6  10
ATOM     10  O   UNL     1       7.733   6.837  16.672  0.00  0.00    +0.000 OA
ATOM     11  H   UNL     1       7.678   7.107  17.606  0.00  0.00    +0.000 HD
ENDBRANCH   6  10
ENDBRANCH   1   2
BRANCH   1  12
ATOM     12  O   UNL     1       5.075   2.789  19.403  0.00  0.00    +0.000 OA
ATOM     13  H   UNL     1       5.650   2.309  18.783  0.00  0.00    +0.000 HD
ENDBRANCH   1  12
BRANCH   1  14
ATOM     14  C   UNL     1       2.979   3.206  18.272  0.00  0.00    +0.000 C 
BRANCH  14  15
ATOM     15  N   UNL     1       1.930   4.150  18.638  0.00  0.00    +0.000 NA
ATOM     16  H   UNL     1       1.198   4.093  17.922  0.00  0.00    +0.000 HD
BRANCH  15  18
ATOM     17  C   UNL     1       1.589   2.818  20.856  0.00  0.00    +0.000 C 
ATOM     18  C   UNL     1       1.329   4.026  19.952  0.00  0.00    +0.000 C 
BRANCH  18  19
ATOM     19  C   UNL     1       1.429   5.377  20.678  0.00  0.00    +0.000 C 
BRANCH  19  20
ATOM     20  C   UNL     1       2.266   6.423  19.950  0.00  0.00    +0.000 C 
BRANCH  20  21
ATOM     21  C   UNL     1       1.819   7.858  20.195  0.00  0.00    +0.000 C 
BRANCH  21  22
ATOM     22  O   UNL     1       1.761   8.105  21.594  0.00  0.00    +0.000 OA
ATOM     23  H   UNL     1       1.704   9.067  21.713  0.00  0.00    +0.000 HD
ENDBRANCH  21  22
ENDBRANCH  20  21
ENDBRANCH  19  20
ENDBRANCH  18  19
ENDBRANCH  15  18
ENDBRANCH  14  15
ENDBRANCH   1  14
TORSDOF 11
ENDMDL
MODEL 7
REMARK VINA RESULT:      -5.9      2.197      3.270
REMARK  Name = 
REMARK  12 active torsions:
REMARK  status: ('A' for Active; 'I' for Inactive)
REMARK    1  A    between atoms: C_1  and  C_2
REMARK    2  A    between atoms: C_2  and  C_3
REMARK    3  A    between atoms: C_2  and  N_7
REMARK    4  A    between atoms: C_3  and  C_4
REMARK    5  A    between atoms: C_4  and  C_5
REMARK    6  A    between atoms: C_5  and  O_6
REMARK    7  A    between atoms: N_7  and  C_8
REMARK    8  A    between atoms: C_8  and  C_9
REMARK    9  A    between atoms: C_9  and  O_10
REMARK   10  A    between atoms: C_9  and  C_11
REMARK   11  A    between atoms: C_14  and  O_15
REMARK   12  A    between atoms: C_16  and  O_17
REMARK                            x       y       z     vdW  Elec       q    Type
REMARK                         _______ _______ _______ _____ _____    ______ ____
ROOT
ATOM      1  C   UNL     1       2.787   6.210  18.598  0.00  0.00    +0.000 C 
ENDROOT
BRANCH   1   2
ATOM      2  C   UNL     1       4.158   5.756  18.112  0.00  0.00    +0.000 A 
ATOM      3  C   UNL     1       5.029   5.159  19.047  0.00  0.00    +0.000 A 
ATOM      4  C   UNL     1       6.309   4.732  18.683  0.00  0.00    +0.000 A 
ATOM      5  C   UNL     1       6.730   4.891  17.371  0.00  0.00    +0.000 A 
ATOM      6  C   UNL     1       5.867   5.448  16.422  0.00  0.00    +0.000 A 
ATOM      7  C   UNL     1       4.591   5.876  16.778  0.00  0.00    +0.000 A 
BRANCH   5   8
ATOM      8  O   UNL     1       7.970   4.495  16.952  0.00  0.00    +0.000 OA
ATOM      9  H   UNL     1       8.564   5.258  17.020  0.00  0.00    +0.000 HD
ENDBRANCH   5   8
BRANCH   6  10
ATOM     10  O   UNL     1       6.294   5.590  15.145  0.00  0.00    +0.000 OA
ATOM     11  H   UNL     1       6.592   6.514  15.073  0.00  0.00    +0.000 HD
ENDBRANCH   6  10
ENDBRANCH   1   2
BRANCH   1  12
ATOM     12  O   UNL     1       2.629   7.601  18.324  0.00  0.00    +0.000 OA
ATOM     13  H   UNL     1       1.676   7.770  18.221  0.00  0.00    +0.000 HD
ENDBRANCH   1  12
BRANCH   1  14
ATOM     14  C   UNL     1       2.428   5.955  20.084  0.00  0.00    +0.000 C 
BRANCH  14  15
ATOM     15  N   UNL     1       1.337   4.993  20.183  0.00  0.00    +0.000 NA
ATOM     16  H   UNL     1       0.717   5.145  19.380  0.00  0.00    +0.000 HD
BRANCH  15  18
ATOM     17  C   UNL     1       1.573   2.803  21.583  0.00  0.00    +0.000 C 
ATOM     18  C   UNL     1       1.676   3.586  20.271  0.00  0.00    +0.000 C 
BRANCH  18  19
ATOM     19  C   UNL     1       1.079   2.850  19.061  0.00  0.00    +0.000 C 
BRANCH  19  20
ATOM     20  C   UNL     1       2.079   2.551  17.949  0.00  0.00    +0.000 C 
BRANCH  20  21
ATOM     21  C   UNL     1       3.324   1.808  18.415  0.00  0.00    +0.000 C 
BRANCH  21  22
ATOM     22  O   UNL     1       4.399   2.079  17.524  0.00  0.00    +0.000 OA
ATOM     23  H   UNL     1       4.859   2.864  17.861  0.00  0.00    +0.000 HD
ENDBRANCH  21  22
ENDBRANCH  20  21
ENDBRANCH  19  20
ENDBRANCH  18  19
ENDBRANCH  15  18
ENDBRANCH  14  15
ENDBRANCH   1  14
TORSDOF 11
ENDMDL
MODEL 8
REMARK VINA RESULT:      -5.9      2.315      5.907
REMARK  Name = 
REMARK  12 active torsions:
REMARK  status: ('A' for Active; 'I' for Inactive)
REMARK    1  A    between atoms: C_1  and  C_2
REMARK    2  A    between atoms: C_2  and  C_3
REMARK    3  A    between atoms: C_2  and  N_7
REMARK    4  A    between atoms: C_3  and  C_4
REMARK    5  A    between atoms: C_4  and  C_5
REMARK    6  A    between atoms: C_5  and  O_6
REMARK    7  A    between atoms: N_7  and  C_8
REMARK    8  A    between atoms: C_8  and  C_9
REMARK    9  A    between atoms: C_9  and  O_10
REMARK   10  A    between atoms: C_9  and  C_11
REMARK   11  A    between atoms: C_14  and  O_15
REMARK   12  A    between atoms: C_16  and  O_17
REMARK                            x       y       z     vdW  Elec       q    Type
REMARK                         _______ _______ _______ _____ _____    ______ ____
ROOT
ATOM      1  C   UNL     1       3.479   6.313  18.375  0.00  0.00    +0.000 C 
ENDROOT
BRANCH   1   2
ATOM      2  C   UNL     1       3.595   4.794  18.414  0.00  0.00    +0.000 A 
ATOM      3  C   UNL     1       2.858   4.048  17.471  0.00  0.00    +0.000 A 
ATOM      4  C   UNL     1       2.898   2.650  17.455  0.00  0.00    +0.000 A 
ATOM      5  C   UNL     1       3.686   1.983  18.380  0.00  0.00    +0.000 A 
ATOM      6  C   UNL     1       4.451   2.707  19.299  0.00  0.00    +0.000 A 
ATOM      7  C   UNL     1       4.416   4.098  19.323  0.00  0.00    +0.000 A 
BRANCH   5   8
ATOM      8  O   UNL     1       3.767   0.618  18.416  0.00  0.00    +0.000 OA
ATOM      9  H   UNL     1       4.587   0.357  17.968  0.00  0.00    +0.000 HD
ENDBRANCH   5   8
BRANCH   6  10
ATOM     10  O   UNL     1       5.219   2.037  20.191  0.00  0.00    +0.000 OA
ATOM     11  H   UNL     1       4.596   1.670  20.844  0.00  0.00    +0.000 HD
ENDBRANCH   6  10
ENDBRANCH   1   2
BRANCH   1  12
ATOM     12  O   UNL     1       2.176   6.672  17.918  0.00  0.00    +0.000 OA
ATOM     13  H   UNL     1       2.217   7.600  17.627  0.00  0.00    +0.000 HD
ENDBRANCH   1  12
BRANCH   1  14
ATOM     14  C   UNL     1       4.527   7.093  17.542  0.00  0.00    +0.000 C 
BRANCH  14  15
ATOM     15  N   UNL     1       5.241   6.186  16.650  0.00  0.00    +0.000 NA
ATOM     16  H   UNL     1       5.113   6.530  15.693  0.00  0.00    +0.000 HD
BRANCH  15  18
ATOM     17  C   UNL     1       7.310   6.301  18.236  0.00  0.00    +0.000 C 
ATOM     18  C   UNL     1       6.651   5.959  16.897  0.00  0.00    +0.000 C 
BRANCH  18  19
ATOM     19  C   UNL     1       7.038   4.576  16.351  0.00  0.00    +0.000 C 
BRANCH  19  20
ATOM     20  C   UNL     1       6.009   3.959  15.410  0.00  0.00    +0.000 C 
BRANCH  20  21
ATOM     21  C   UNL     1       6.379   4.052  13.936  0.00  0.00    +0.000 C 
BRANCH  21  22
ATOM     22  O   UNL     1       7.257   5.153  13.735  0.00  0.00    +0.000 OA
ATOM     23  H   UNL     1       7.995   4.835  13.192  0.00  0.00    +0.000 HD
ENDBRANCH  21  22
ENDBRANCH  20  21
ENDBRANCH  19  20
ENDBRANCH  18  19
ENDBRANCH  15  18
ENDBRANCH  14  15
ENDBRANCH   1  14
TORSDOF 11
ENDMDL
MODEL 9
REMARK VINA RESULT:      -5.9      2.022      2.691
REMARK  Name = 
REMARK  12 active torsions:
REMARK  status: ('A' for Active; 'I' for Inactive)
REMARK    1  A    between atoms: C_1  and  C_2
REMARK    2  A    between atoms: C_2  and  C_3
REMARK    3  A    between atoms: C_2  and  N_7
REMARK    4  A    between atoms: C_3  and  C_4
REMARK    5  A    between atoms: C_4  and  C_5
REMARK    6  A    between atoms: C_5  and  O_6
REMARK    7  A    between atoms: N_7  and  C_8
REMARK    8  A    between atoms: C_8  and  C_9
REMARK    9  A    between atoms: C_9  and  O_10
REMARK   10  A    between atoms: C_9  and  C_11
REMARK   11  A    between atoms: C_14  and  O_15
REMARK   12  A    between atoms: C_16  and  O_17
REMARK                            x       y       z     vdW  Elec       q    Type
REMARK                         _______ _______ _______ _____ _____    ______ ____
ROOT
ATOM      1  C   UNL     1       2.733   5.787  17.781  0.00  0.00    +0.000 C 
ENDROOT
BRANCH   1   2
ATOM      2  C   UNL     1       4.199   5.368  17.800  0.00  0.00    +0.000 A 
ATOM      3  C   UNL     1       4.756   4.850  16.613  0.00  0.00    +0.000 A 
ATOM      4  C   UNL     1       6.088   4.429  16.556  0.00  0.00    +0.000 A 
ATOM      5  C   UNL     1       6.881   4.530  17.689  0.00  0.00    +0.000 A 
ATOM      6  C   UNL     1       6.355   5.073  18.865  0.00  0.00    +0.000 A 
ATOM      7  C   UNL     1       5.030   5.494  18.930  0.00  0.00    +0.000 A 
BRANCH   5   8
ATOM      8  O   UNL     1       8.190   4.134  17.698  0.00  0.00    +0.000 OA
ATOM      9  H   UNL     1       8.471   4.017  16.777  0.00  0.00    +0.000 HD
ENDBRANCH   5   8
BRANCH   6  10
ATOM     10  O   UNL     1       7.147   5.169  19.959  0.00  0.00    +0.000 OA
ATOM     11  H   UNL     1       7.081   4.303  20.402  0.00  0.00    +0.000 HD
ENDBRANCH   6  10
ENDBRANCH   1   2
BRANCH   1  12
ATOM     12  O   UNL     1       2.472   6.632  18.900  0.00  0.00    +0.000 OA
ATOM     13  H   UNL     1       3.008   7.437  18.787  0.00  0.00    +0.000 HD
ENDBRANCH   1  12
BRANCH   1  14
ATOM     14  C   UNL     1       1.664   4.666  17.748  0.00  0.00    +0.000 C 
BRANCH  14  15
ATOM     15  N   UNL     1       2.246   3.427  17.245  0.00  0.00    +0.000 NA
ATOM     16  H   UNL     1       3.214   3.629  16.973  0.00  0.00    +0.000 HD
BRANCH  15  18
ATOM     17  C   UNL     1       3.499   1.562  18.572  0.00  0.00    +0.000 C 
ATOM     18  C   UNL     1       2.219   2.262  18.107  0.00  0.00    +0.000 C 
BRANCH  18  19
ATOM     19  C   UNL     1       1.194   2.492  19.228  0.00  0.00    +0.000 C 
BRANCH  19  20
ATOM     20  C   UNL     1       1.784   2.469  20.634  0.00  0.00    +0.000 C 
BRANCH  20  21
ATOM     21  C   UNL     1       2.490   3.759  21.034  0.00  0.00    +0.000 C 
BRANCH  21  22
ATOM     22  O   UNL     1       1.551   4.826  21.057  0.00  0.00    +0.000 OA
ATOM     23  H   UNL     1       1.590   5.261  20.190  0.00  0.00    +0.000 HD
ENDBRANCH  21  22
ENDBRANCH  20  21
ENDBRANCH  19  20
ENDBRANCH  18  19
ENDBRANCH  15  18
ENDBRANCH  14  15
ENDBRANCH   1  14
TORSDOF 11
ENDMDL
