MODEL 1
REMARK VINA RESULT:      -8.3      0.000      0.000
REMARK  Name = 
REMARK  6 active torsions:
REMARK  status: ('A' for Active; 'I' for Inactive)
REMARK    1  A    between atoms: C_4  and  C_5
REMARK    2  A    between atoms: C_8  and  O_9
REMARK    3  A    between atoms: O_9  and  C_10
REMARK    4  A    between atoms: C_10  and  C_11
REMARK    5  A    between atoms: C_11  and  C_12
REMARK    6  A    between atoms: C_12  and  N_13
REMARK                            x       y       z     vdW  Elec       q    Type
REMARK                         _______ _______ _______ _____ _____    ______ ____
ROOT
ATOM      1  C   UNL     1       1.384   8.836  19.336  0.00  0.00    +0.000 A 
ATOM      2  C   UNL     1       1.849   7.701  19.999  0.00  0.00    +0.000 A 
ATOM      3  C   UNL     1       2.741   6.842  19.367  0.00  0.00    +0.000 A 
ATOM      4  C   UNL     1       3.187   7.105  18.067  0.00  0.00    +0.000 A 
ATOM      5  C   UNL     1       2.693   8.222  17.391  0.00  0.00    +0.000 A 
ATOM      6  C   UNL     1       1.795   9.089  18.023  0.00  0.00    +0.000 A 
ENDROOT
BRANCH   1  10
ATOM      7  O   UNL     1      -0.318  10.586  23.377  0.00  0.00    +0.000 OA
ATOM      8  C   UNL     1      -0.401  10.658  22.154  0.00  0.00    +0.000 A 
ATOM      9  C   UNL     1       0.519   9.780  21.398  0.00  0.00    +0.000 A 
ATOM     10  C   UNL     1       0.526   9.757  20.064  0.00  0.00    +0.000 A 
ATOM     11  C   UNL     1      -0.454  10.620  19.397  0.00  0.00    +0.000 A 
ATOM     12  N   UNL     1      -1.282  11.415  19.987  0.00  0.00    +0.000 NA
ATOM     13  N   UNL     1      -1.250  11.456  21.379  0.00  0.00    +0.000 N 
ATOM     14  C   UNL     1      -2.127  12.417  21.979  0.00  0.00    +0.000 A 
ATOM     15  C   UNL     1      -2.935  13.226  21.173  0.00  0.00    +0.000 A 
ATOM     16  C   UNL     1      -3.730  14.215  21.752  0.00  0.00    +0.000 A 
ATOM     17  C   UNL     1      -3.718  14.376  23.129  0.00  0.00    +0.000 A 
ATOM     18  C   UNL     1      -2.920  13.526  23.867  0.00  0.00    +0.000 A 
ATOM     19  N   UNL     1      -2.138  12.569  23.324  0.00  0.00    +0.000 NA
ENDBRANCH   1  10
BRANCH   4  20
ATOM     20  O   UNL     1       4.113   6.347  17.389  0.00  0.00    +0.000 OA
BRANCH  20  21
ATOM     21  C   UNL     1       5.083   5.734  18.241  0.00  0.00    +0.000 C 
BRANCH  21  22
ATOM     22  C   UNL     1       5.565   4.406  17.681  0.00  0.00    +0.000 C 
BRANCH  22  23
ATOM     23  C   UNL     1       4.396   3.408  17.600  0.00  0.00    +0.000 C 
BRANCH  23  24
ATOM     24  N   UNL     1       3.488   3.433  18.767  0.00  0.00    +0.000 NA
ATOM     25  C   UNL     1       2.154   2.906  18.468  0.00  0.00    +0.000 C 
ATOM     26  C   UNL     1       1.078   3.637  19.278  0.00  0.00    +0.000 C 
ATOM     27  C   UNL     1       0.918   3.159  20.716  0.00  0.00    +0.000 C 
ATOM     28  C   UNL     1       2.184   3.241  21.559  0.00  0.00    +0.000 C 
ATOM     29  C   UNL     1       3.271   2.288  21.075  0.00  0.00    +0.000 C 
ATOM     30  C   UNL     1       4.144   2.831  19.937  0.00  0.00    +0.000 C 
ENDBRANCH  23  24
ENDBRANCH  22  23
ENDBRANCH  21  22
ENDBRANCH  20  21
ENDBRANCH   4  20
TORSDOF 6
ENDMDL
MODEL 2
REMARK VINA RESULT:      -8.2      6.618      8.512
REMARK  Name = 
REMARK  6 active torsions:
REMARK  status: ('A' for Active; 'I' for Inactive)
REMARK    1  A    between atoms: C_4  and  C_5
REMARK    2  A    between atoms: C_8  and  O_9
REMARK    3  A    between atoms: O_9  and  C_10
REMARK    4  A    between atoms: C_10  and  C_11
REMARK    5  A    between atoms: C_11  and  C_12
REMARK    6  A    between atoms: C_12  and  N_13
REMARK                            x       y       z     vdW  Elec       q    Type
REMARK                         _______ _______ _______ _____ _____    ______ ____
ROOT
ATOM      1  C   UNL     1       8.128   8.564  18.275  0.00  0.00    +0.000 A 
ATOM      2  C   UNL     1       8.544   7.534  19.119  0.00  0.00    +0.000 A 
ATOM      3  C   UNL     1       8.080   6.239  18.916  0.00  0.00    +0.000 A 
ATOM      4  C   UNL     1       7.200   5.951  17.867  0.00  0.00    +0.000 A 
ATOM      5  C   UNL     1       6.756   6.990  17.046  0.00  0.00    +0.000 A 
ATOM      6  C   UNL     1       7.221   8.294  17.246  0.00  0.00    +0.000 A 
ENDROOT
BRANCH   1  10
ATOM      7  O   UNL     1      10.709  11.634  20.767  0.00  0.00    +0.000 OA
ATOM      8  C   UNL     1      10.017  11.509  19.760  0.00  0.00    +0.000 A 
ATOM      9  C   UNL     1       9.480  10.153  19.516  0.00  0.00    +0.000 A 
ATOM     10  C   UNL     1       8.709   9.884  18.462  0.00  0.00    +0.000 A 
ATOM     11  C   UNL     1       8.394  11.018  17.586  0.00  0.00    +0.000 A 
ATOM     12  N   UNL     1       8.828  12.225  17.730  0.00  0.00    +0.000 NA
ATOM     13  N   UNL     1       9.664  12.479  18.814  0.00  0.00    +0.000 N 
ATOM     14  C   UNL     1      10.188  13.811  18.878  0.00  0.00    +0.000 A 
ATOM     15  C   UNL     1       9.845  14.746  17.894  0.00  0.00    +0.000 A 
ATOM     16  C   UNL     1      10.416  16.018  17.913  0.00  0.00    +0.000 A 
ATOM     17  C   UNL     1      11.310  16.347  18.919  0.00  0.00    +0.000 A 
ATOM     18  C   UNL     1      11.583  15.388  19.873  0.00  0.00    +0.000 A 
ATOM     19  N   UNL     1      11.047  14.149  19.867  0.00  0.00    +0.000 NA
ENDBRANCH   1  10
BRANCH   4  20
ATOM     20  O   UNL     1       6.739   4.693  17.555  0.00  0.00    +0.000 OA
BRANCH  20  21
ATOM     21  C   UNL     1       6.049   4.633  16.304  0.00  0.00    +0.000 C 
BRANCH  21  22
ATOM     22  C   UNL     1       4.568   4.349  16.492  0.00  0.00    +0.000 C 
BRANCH  22  23
ATOM     23  C   UNL     1       4.374   3.120  17.398  0.00  0.00    +0.000 C 
BRANCH  23  24
ATOM     24  N   UNL     1       3.362   3.298  18.462  0.00  0.00    +0.000 NA
ATOM     25  C   UNL     1       2.915   4.685  18.604  0.00  0.00    +0.000 C 
ATOM     26  C   UNL     1       2.593   5.014  20.065  0.00  0.00    +0.000 C 
ATOM     27  C   UNL     1       1.223   4.550  20.543  0.00  0.00    +0.000 C 
ATOM     28  C   UNL     1       0.971   3.054  20.400  0.00  0.00    +0.000 C 
ATOM     29  C   UNL     1       0.918   2.607  18.944  0.00  0.00    +0.000 C 
ATOM     30  C   UNL     1       2.283   2.311  18.310  0.00  0.00    +0.000 C 
ENDBRANCH  23  24
ENDBRANCH  22  23
ENDBRANCH  21  22
ENDBRANCH  20  21
ENDBRANCH   4  20
TORSDOF 6
ENDMDL
MODEL 3
REMARK VINA RESULT:      -8.2      1.925      3.530
REMARK  Name = 
REMARK  6 active torsions:
REMARK  status: ('A' for Active; 'I' for Inactive)
REMARK    1  A    between atoms: C_4  and  C_5
REMARK    2  A    between atoms: C_8  and  O_9
REMARK    3  A    between atoms: O_9  and  C_10
REMARK    4  A    between atoms: C_10  and  C_11
REMARK    5  A    between atoms: C_11  and  C_12
REMARK    6  A    between atoms: C_12  and  N_13
REMARK                            x       y       z     vdW  Elec       q    Type
REMARK                         _______ _______ _______ _____ _____    ______ ____
ROOT
ATOM      1  C   UNL     1       1.608   7.287  20.207  0.00  0.00    +0.000 A 
ATOM      2  C   UNL     1       2.304   7.279  18.999  0.00  0.00    +0.000 A 
ATOM      3  C   UNL     1       2.751   6.077  18.461  0.00  0.00    +0.000 A 
ATOM      4  C   UNL     1       2.506   4.866  19.117  0.00  0.00    +0.000 A 
ATOM      5  C   UNL     1       1.841   4.878  20.345  0.00  0.00    +0.000 A 
ATOM      6  C   UNL     1       1.389   6.085  20.889  0.00  0.00    +0.000 A 
ENDROOT
BRANCH   1  10
ATOM      7  O   UNL     1      -0.004  10.042  23.686  0.00  0.00    +0.000 OA
ATOM      8  C   UNL     1       0.199   9.991  22.476  0.00  0.00    +0.000 A 
ATOM      9  C   UNL     1       0.810   8.738  21.981  0.00  0.00    +0.000 A 
ATOM     10  C   UNL     1       1.076   8.552  20.688  0.00  0.00    +0.000 A 
ATOM     11  C   UNL     1       0.692   9.642  19.785  0.00  0.00    +0.000 A 
ATOM     12  N   UNL     1       0.161  10.763  20.142  0.00  0.00    +0.000 NA
ATOM     13  N   UNL     1      -0.074  10.958  21.501  0.00  0.00    +0.000 N 
ATOM     14  C   UNL     1      -0.581  12.251  21.851  0.00  0.00    +0.000 A 
ATOM     15  C   UNL     1      -0.807  13.207  20.855  0.00  0.00    +0.000 A 
ATOM     16  C   UNL     1      -1.226  14.491  21.203  0.00  0.00    +0.000 A 
ATOM     17  C   UNL     1      -1.427  14.800  22.539  0.00  0.00    +0.000 A 
ATOM     18  C   UNL     1      -1.213  13.803  23.468  0.00  0.00    +0.000 A 
ATOM     19  N   UNL     1      -0.800  12.557  23.151  0.00  0.00    +0.000 NA
ENDBRANCH   1  10
BRANCH   4  20
ATOM     20  O   UNL     1       2.856   3.627  18.631  0.00  0.00    +0.000 OA
BRANCH  20  21
ATOM     21  C   UNL     1       2.998   3.592  17.208  0.00  0.00    +0.000 C 
BRANCH  21  22
ATOM     22  C   UNL     1       4.426   3.281  16.793  0.00  0.00    +0.000 C 
BRANCH  22  23
ATOM     23  C   UNL     1       5.067   4.512  16.129  0.00  0.00    +0.000 C 
BRANCH  23  24
ATOM     24  N   UNL     1       6.112   5.172  16.942  0.00  0.00    +0.000 NA
ATOM     25  C   UNL     1       6.010   6.633  16.931  0.00  0.00    +0.000 C 
ATOM     26  C   UNL     1       7.396   7.283  17.009  0.00  0.00    +0.000 C 
ATOM     27  C   UNL     1       7.993   7.360  18.408  0.00  0.00    +0.000 C 
ATOM     28  C   UNL     1       8.136   6.017  19.115  0.00  0.00    +0.000 C 
ATOM     29  C   UNL     1       6.789   5.377  19.428  0.00  0.00    +0.000 C 
ATOM     30  C   UNL     1       6.178   4.566  18.279  0.00  0.00    +0.000 C 
ENDBRANCH  23  24
ENDBRANCH  22  23
ENDBRANCH  21  22
ENDBRANCH  20  21
ENDBRANCH   4  20
TORSDOF 6
ENDMDL
MODEL 4
REMARK VINA RESULT:      -8.1      1.227      1.941
REMARK  Name = 
REMARK  6 active torsions:
REMARK  status: ('A' for Active; 'I' for Inactive)
REMARK    1  A    between atoms: C_4  and  C_5
REMARK    2  A    between atoms: C_8  and  O_9
REMARK    3  A    between atoms: O_9  and  C_10
REMARK    4  A    between atoms: C_10  and  C_11
REMARK    5  A    between atoms: C_11  and  C_12
REMARK    6  A    between atoms: C_12  and  N_13
REMARK                            x       y       z     vdW  Elec       q    Type
REMARK                         _______ _______ _______ _____ _____    ______ ____
ROOT
ATOM      1  C   UNL     1       1.459   8.814  19.374  0.00  0.00    +0.000 A 
ATOM      2  C   UNL     1       1.970   9.141  18.118  0.00  0.00    +0.000 A 
ATOM      3  C   UNL     1       2.838   8.269  17.472  0.00  0.00    +0.000 A 
ATOM      4  C   UNL     1       3.206   7.056  18.065  0.00  0.00    +0.000 A 
ATOM      5  C   UNL     1       2.722   6.746  19.338  0.00  0.00    +0.000 A 
ATOM      6  C   UNL     1       1.848   7.621  19.992  0.00  0.00    +0.000 A 
ENDROOT
BRANCH   1  10
ATOM      7  O   UNL     1      -1.500  12.484  19.114  0.00  0.00    +0.000 OA
ATOM      8  C   UNL     1      -1.037  11.637  19.873  0.00  0.00    +0.000 A 
ATOM      9  C   UNL     1      -0.097  10.673  19.260  0.00  0.00    +0.000 A 
ATOM     10  C   UNL     1       0.481   9.707  19.974  0.00  0.00    +0.000 A 
ATOM     11  C   UNL     1       0.161   9.682  21.406  0.00  0.00    +0.000 A 
ATOM     12  N   UNL     1      -0.651  10.483  22.010  0.00  0.00    +0.000 NA
ATOM     13  N   UNL     1      -1.276  11.461  21.241  0.00  0.00    +0.000 N 
ATOM     14  C   UNL     1      -2.232  12.266  21.942  0.00  0.00    +0.000 A 
ATOM     15  C   UNL     1      -2.475  12.039  23.301  0.00  0.00    +0.000 A 
ATOM     16  C   UNL     1      -3.462  12.769  23.965  0.00  0.00    +0.000 A 
ATOM     17  C   UNL     1      -4.183  13.725  23.267  0.00  0.00    +0.000 A 
ATOM     18  C   UNL     1      -3.874  13.917  21.936  0.00  0.00    +0.000 A 
ATOM     19  N   UNL     1      -2.929  13.215  21.276  0.00  0.00    +0.000 NA
ENDBRANCH   1  10
BRANCH   4  20
ATOM     20  O   UNL     1       4.009   6.107  17.474  0.00  0.00    +0.000 OA
BRANCH  20  21
ATOM     21  C   UNL     1       5.228   5.871  18.183  0.00  0.00    +0.000 C 
BRANCH  21  22
ATOM     22  C   UNL     1       5.638   4.409  18.124  0.00  0.00    +0.000 C 
BRANCH  22  23
ATOM     23  C   UNL     1       5.115   3.661  19.363  0.00  0.00    +0.000 C 
BRANCH  23  24
ATOM     24  N   UNL     1       3.643   3.527  19.422  0.00  0.00    +0.000 NA
ATOM     25  C   UNL     1       3.107   2.633  18.393  0.00  0.00    +0.000 C 
ATOM     26  C   UNL     1       1.726   3.103  17.921  0.00  0.00    +0.000 C 
ATOM     27  C   UNL     1       0.567   2.713  18.829  0.00  0.00    +0.000 C 
ATOM     28  C   UNL     1       0.691   3.203  20.266  0.00  0.00    +0.000 C 
ATOM     29  C   UNL     1       1.851   2.550  21.008  0.00  0.00    +0.000 C 
ATOM     30  C   UNL     1       3.213   3.221  20.794  0.00  0.00    +0.000 C 
ENDBRANCH  23  24
ENDBRANCH  22  23
ENDBRANCH  21  22
ENDBRANCH  20  21
ENDBRANCH   4  20
TORSDOF 6
ENDMDL
MODEL 5
REMARK VINA RESULT:      -8.1      6.297      8.352
REMARK  Name = 
REMARK  6 active torsions:
REMARK  status: ('A' for Active; 'I' for Inactive)
REMARK    1  A    between atoms: C_4  and  C_5
REMARK    2  A    between atoms: C_8  and  O_9
REMARK    3  A    between atoms: O_9  and  C_10
REMARK    4  A    between atoms: C_10  and  C_11
REMARK    5  A    between atoms: C_11  and  C_12
REMARK    6  A    between atoms: C_12  and  N_13
REMARK                            x       y       z     vdW  Elec       q    Type
REMARK                         _______ _______ _______ _____ _____    ______ ____
ROOT
ATOM      1  C   UNL     1       8.199   8.213  18.235  0.00  0.00    +0.000 A 
ATOM      2  C   UNL     1       7.588   7.919  17.016  0.00  0.00    +0.000 A 
ATOM      3  C   UNL     1       7.136   6.630  16.758  0.00  0.00    +0.000 A 
ATOM      4  C   UNL     1       7.283   5.616  17.711  0.00  0.00    +0.000 A 
ATOM      5  C   UNL     1       7.927   5.903  18.916  0.00  0.00    +0.000 A 
ATOM      6  C   UNL     1       8.382   7.199  19.181  0.00  0.00    +0.000 A 
ENDROOT
BRANCH   1  10
ATOM      7  O   UNL     1       8.300  12.780  17.040  0.00  0.00    +0.000 OA
ATOM      8  C   UNL     1       8.669  11.968  17.885  0.00  0.00    +0.000 A 
ATOM      9  C   UNL     1       8.234  10.572  17.665  0.00  0.00    +0.000 A 
ATOM     10  C   UNL     1       8.572   9.592  18.504  0.00  0.00    +0.000 A 
ATOM     11  C   UNL     1       9.429   9.974  19.632  0.00  0.00    +0.000 A 
ATOM     12  N   UNL     1       9.843  11.169  19.892  0.00  0.00    +0.000 NA
ATOM     13  N   UNL     1       9.448  12.186  19.028  0.00  0.00    +0.000 N 
ATOM     14  C   UNL     1       9.861  13.503  19.410  0.00  0.00    +0.000 A 
ATOM     15  C   UNL     1      10.608  13.690  20.579  0.00  0.00    +0.000 A 
ATOM     16  C   UNL     1      10.943  14.980  20.994  0.00  0.00    +0.000 A 
ATOM     17  C   UNL     1      10.540  16.064  20.230  0.00  0.00    +0.000 A 
ATOM     18  C   UNL     1       9.831  15.808  19.075  0.00  0.00    +0.000 A 
ATOM     19  N   UNL     1       9.491  14.568  18.662  0.00  0.00    +0.000 NA
ENDBRANCH   1  10
BRANCH   4  20
ATOM     20  O   UNL     1       6.813   4.331  17.566  0.00  0.00    +0.000 OA
BRANCH  20  21
ATOM     21  C   UNL     1       6.106   4.117  16.342  0.00  0.00    +0.000 C 
BRANCH  21  22
ATOM     22  C   UNL     1       4.601   4.118  16.554  0.00  0.00    +0.000 C 
BRANCH  22  23
ATOM     23  C   UNL     1       4.188   2.921  17.430  0.00  0.00    +0.000 C 
BRANCH  23  24
ATOM     24  N   UNL     1       3.287   3.265  18.551  0.00  0.00    +0.000 NA
ATOM     25  C   UNL     1       2.912   4.681  18.573  0.00  0.00    +0.000 C 
ATOM     26  C   UNL     1       2.739   5.184  20.010  0.00  0.00    +0.000 C 
ATOM     27  C   UNL     1       1.401   4.844  20.656  0.00  0.00    +0.000 C 
ATOM     28  C   UNL     1       1.077   3.356  20.706  0.00  0.00    +0.000 C 
ATOM     29  C   UNL     1       0.872   2.756  19.320  0.00  0.00    +0.000 C 
ATOM     30  C   UNL     1       2.159   2.324  18.608  0.00  0.00    +0.000 C 
ENDBRANCH  23  24
ENDBRANCH  22  23
ENDBRANCH  21  22
ENDBRANCH  20  21
ENDBRANCH   4  20
TORSDOF 6
ENDMDL
MODEL 6
REMARK VINA RESULT:      -8.0      0.648      1.494
REMARK  Name = 
REMARK  6 active torsions:
REMARK  status: ('A' for Active; 'I' for Inactive)
REMARK    1  A    between atoms: C_4  and  C_5
REMARK    2  A    between atoms: C_8  and  O_9
REMARK    3  A    between atoms: O_9  and  C_10
REMARK    4  A    between atoms: C_10  and  C_11
REMARK    5  A    between atoms: C_11  and  C_12
REMARK    6  A    between atoms: C_12  and  N_13
REMARK                            x       y       z     vdW  Elec       q    Type
REMARK                         _______ _______ _______ _____ _____    ______ ____
ROOT
ATOM      1  C   UNL     1       1.356   9.065  19.524  0.00  0.00    +0.000 A 
ATOM      2  C   UNL     1       1.747   9.445  18.240  0.00  0.00    +0.000 A 
ATOM      3  C   UNL     1       2.566   8.611  17.487  0.00  0.00    +0.000 A 
ATOM      4  C   UNL     1       3.001   7.384  17.999  0.00  0.00    +0.000 A 
ATOM      5  C   UNL     1       2.639   7.021  19.298  0.00  0.00    +0.000 A 
ATOM      6  C   UNL     1       1.815   7.857  20.059  0.00  0.00    +0.000 A 
ENDROOT
BRANCH   1  10
ATOM      7  O   UNL     1      -0.689  10.511  23.527  0.00  0.00    +0.000 OA
ATOM      8  C   UNL     1      -0.679  10.662  22.308  0.00  0.00    +0.000 A 
ATOM      9  C   UNL     1       0.315   9.854  21.570  0.00  0.00    +0.000 A 
ATOM     10  C   UNL     1       0.425   9.920  20.242  0.00  0.00    +0.000 A 
ATOM     11  C   UNL     1      -0.522  10.808  19.559  0.00  0.00    +0.000 A 
ATOM     12  N   UNL     1      -1.411  11.546  20.133  0.00  0.00    +0.000 NA
ATOM     13  N   UNL     1      -1.486  11.495  21.523  0.00  0.00    +0.000 N 
ATOM     14  C   UNL     1      -2.428  12.397  22.115  0.00  0.00    +0.000 A 
ATOM     15  C   UNL     1      -3.191  13.244  21.302  0.00  0.00    +0.000 A 
ATOM     16  C   UNL     1      -4.051  14.177  21.882  0.00  0.00    +0.000 A 
ATOM     17  C   UNL     1      -4.148  14.245  23.262  0.00  0.00    +0.000 A 
ATOM     18  C   UNL     1      -3.388  13.363  24.004  0.00  0.00    +0.000 A 
ATOM     19  N   UNL     1      -2.545  12.459  23.461  0.00  0.00    +0.000 NA
ENDBRANCH   1  10
BRANCH   4  20
ATOM     20  O   UNL     1       3.760   6.470  17.304  0.00  0.00    +0.000 OA
BRANCH  20  21
ATOM     21  C   UNL     1       4.948   6.074  17.994  0.00  0.00    +0.000 C 
BRANCH  21  22
ATOM     22  C   UNL     1       5.289   4.616  17.734  0.00  0.00    +0.000 C 
BRANCH  22  23
ATOM     23  C   UNL     1       5.125   3.794  19.025  0.00  0.00    +0.000 C 
BRANCH  23  24
ATOM     24  N   UNL     1       3.739   3.364  19.306  0.00  0.00    +0.000 NA
ATOM     25  C   UNL     1       3.129   4.087  20.424  0.00  0.00    +0.000 C 
ATOM     26  C   UNL     1       2.168   3.185  21.206  0.00  0.00    +0.000 C 
ATOM     27  C   UNL     1       0.786   3.025  20.586  0.00  0.00    +0.000 C 
ATOM     28  C   UNL     1       0.783   2.481  19.163  0.00  0.00    +0.000 C 
ATOM     29  C   UNL     1       1.419   3.445  18.169  0.00  0.00    +0.000 C 
ATOM     30  C   UNL     1       2.946   3.354  18.068  0.00  0.00    +0.000 C 
ENDBRANCH  23  24
ENDBRANCH  22  23
ENDBRANCH  21  22
ENDBRANCH  20  21
ENDBRANCH   4  20
TORSDOF 6
ENDMDL
MODEL 7
REMARK VINA RESULT:      -8.0      2.330     10.417
REMARK  Name = 
REMARK  6 active torsions:
REMARK  status: ('A' for Active; 'I' for Inactive)
REMARK    1  A    between atoms: C_4  and  C_5
REMARK    2  A    between atoms: C_8  and  O_9
REMARK    3  A    between atoms: O_9  and  C_10
REMARK    4  A    between atoms: C_10  and  C_11
REMARK    5  A    between atoms: C_11  and  C_12
REMARK    6  A    between atoms: C_12  and  N_13
REMARK                            x       y       z     vdW  Elec       q    Type
REMARK                         _______ _______ _______ _____ _____    ______ ____
ROOT
ATOM      1  C   UNL     1       1.203   8.747  20.284  0.00  0.00    +0.000 A 
ATOM      2  C   UNL     1       1.261   8.610  21.671  0.00  0.00    +0.000 A 
ATOM      3  C   UNL     1       0.410   9.354  22.480  0.00  0.00    +0.000 A 
ATOM      4  C   UNL     1      -0.515  10.241  21.919  0.00  0.00    +0.000 A 
ATOM      5  C   UNL     1      -0.549  10.403  20.532  0.00  0.00    +0.000 A 
ATOM      6  C   UNL     1       0.306   9.656  19.714  0.00  0.00    +0.000 A 
ENDROOT
BRANCH   1  10
ATOM      7  O   UNL     1       3.540   4.702  19.598  0.00  0.00    +0.000 OA
ATOM      8  C   UNL     1       3.297   5.801  19.108  0.00  0.00    +0.000 A 
ATOM      9  C   UNL     1       2.383   6.663  19.888  0.00  0.00    +0.000 A 
ATOM     10  C   UNL     1       2.043   7.883  19.470  0.00  0.00    +0.000 A 
ATOM     11  C   UNL     1       2.658   8.331  18.216  0.00  0.00    +0.000 A 
ATOM     12  N   UNL     1       3.458   7.636  17.479  0.00  0.00    +0.000 NA
ATOM     13  N   UNL     1       3.771   6.350  17.910  0.00  0.00    +0.000 N 
ATOM     14  C   UNL     1       4.591   5.591  17.013  0.00  0.00    +0.000 A 
ATOM     15  C   UNL     1       5.016   6.157  15.806  0.00  0.00    +0.000 A 
ATOM     16  C   UNL     1       5.748   5.392  14.897  0.00  0.00    +0.000 A 
ATOM     17  C   UNL     1       6.057   4.078  15.210  0.00  0.00    +0.000 A 
ATOM     18  C   UNL     1       5.631   3.591  16.429  0.00  0.00    +0.000 A 
ATOM     19  N   UNL     1       4.915   4.313  17.317  0.00  0.00    +0.000 NA
ENDBRANCH   1  10
BRANCH   4  20
ATOM     20  O   UNL     1      -1.436  10.970  22.636  0.00  0.00    +0.000 OA
BRANCH  20  21
ATOM     21  C   UNL     1      -1.100  12.354  22.754  0.00  0.00    +0.000 C 
BRANCH  21  22
ATOM     22  C   UNL     1      -2.333  13.239  22.691  0.00  0.00    +0.000 C 
BRANCH  22  23
ATOM     23  C   UNL     1      -3.376  12.772  23.721  0.00  0.00    +0.000 C 
BRANCH  23  24
ATOM     24  N   UNL     1      -4.725  12.537  23.164  0.00  0.00    +0.000 NA
ATOM     25  C   UNL     1      -5.774  13.280  23.867  0.00  0.00    +0.000 C 
ATOM     26  C   UNL     1      -7.086  12.489  23.896  0.00  0.00    +0.000 C 
ATOM     27  C   UNL     1      -7.916  12.570  22.622  0.00  0.00    +0.000 C 
ATOM     28  C   UNL     1      -7.195  12.111  21.361  0.00  0.00    +0.000 C 
ATOM     29  C   UNL     1      -6.033  13.024  20.988  0.00  0.00    +0.000 C 
ATOM     30  C   UNL     1      -4.713  12.713  21.705  0.00  0.00    +0.000 C 
ENDBRANCH  23  24
ENDBRANCH  22  23
ENDBRANCH  21  22
ENDBRANCH  20  21
ENDBRANCH   4  20
TORSDOF 6
ENDMDL
MODEL 8
REMARK VINA RESULT:      -8.0      1.164      1.555
REMARK  Name = 
REMARK  6 active torsions:
REMARK  status: ('A' for Active; 'I' for Inactive)
REMARK    1  A    between atoms: C_4  and  C_5
REMARK    2  A    between atoms: C_8  and  O_9
REMARK    3  A    between atoms: O_9  and  C_10
REMARK    4  A    between atoms: C_10  and  C_11
REMARK    5  A    between atoms: C_11  and  C_12
REMARK    6  A    between atoms: C_12  and  N_13
REMARK                            x       y       z     vdW  Elec       q    Type
REMARK                         _______ _______ _______ _____ _____    ______ ____
ROOT
ATOM      1  C   UNL     1       1.330   8.959  19.300  0.00  0.00    +0.000 A 
ATOM      2  C   UNL     1       1.745   7.858  20.048  0.00  0.00    +0.000 A 
ATOM      3  C   UNL     1       2.597   6.915  19.485  0.00  0.00    +0.000 A 
ATOM      4  C   UNL     1       3.053   7.058  18.170  0.00  0.00    +0.000 A 
ATOM      5  C   UNL     1       2.608   8.142  17.409  0.00  0.00    +0.000 A 
ATOM      6  C   UNL     1       1.751   9.093  17.973  0.00  0.00    +0.000 A 
ENDROOT
BRANCH   1  10
ATOM      7  O   UNL     1      -2.340  11.929  19.336  0.00  0.00    +0.000 OA
ATOM      8  C   UNL     1      -1.366  11.550  19.981  0.00  0.00    +0.000 A 
ATOM      9  C   UNL     1      -0.570  10.468  19.362  0.00  0.00    +0.000 A 
ATOM     10  C   UNL     1       0.516   9.971  19.955  0.00  0.00    +0.000 A 
ATOM     11  C   UNL     1       0.894  10.585  21.232  0.00  0.00    +0.000 A 
ATOM     12  N   UNL     1       0.249  11.525  21.835  0.00  0.00    +0.000 NA
ATOM     13  N   UNL     1      -0.905  12.006  21.222  0.00  0.00    +0.000 N 
ATOM     14  C   UNL     1      -1.630  12.986  21.974  0.00  0.00    +0.000 A 
ATOM     15  C   UNL     1      -1.162  13.392  23.228  0.00  0.00    +0.000 A 
ATOM     16  C   UNL     1      -1.908  14.288  23.995  0.00  0.00    +0.000 A 
ATOM     17  C   UNL     1      -3.105  14.775  23.495  0.00  0.00    +0.000 A 
ATOM     18  C   UNL     1      -3.495  14.355  22.240  0.00  0.00    +0.000 A 
ATOM     19  N   UNL     1      -2.790  13.484  21.487  0.00  0.00    +0.000 NA
ENDBRANCH   1  10
BRANCH   4  20
ATOM     20  O   UNL     1       3.943   6.210  17.552  0.00  0.00    +0.000 OA
BRANCH  20  21
ATOM     21  C   UNL     1       5.031   5.816  18.392  0.00  0.00    +0.000 C 
BRANCH  21  22
ATOM     22  C   UNL     1       5.696   4.545  17.891  0.00  0.00    +0.000 C 
BRANCH  22  23
ATOM     23  C   UNL     1       4.657   3.415  17.771  0.00  0.00    +0.000 C 
BRANCH  23  24
ATOM     24  N   UNL     1       3.566   3.477  18.766  0.00  0.00    +0.000 NA
ATOM     25  C   UNL     1       2.306   2.916  18.273  0.00  0.00    +0.000 C 
ATOM     26  C   UNL     1       1.103   3.666  18.855  0.00  0.00    +0.000 C 
ATOM     27  C   UNL     1       0.706   3.251  20.266  0.00  0.00    +0.000 C 
ATOM     28  C   UNL     1       1.811   3.390  21.306  0.00  0.00    +0.000 C 
ATOM     29  C   UNL     1       2.972   2.435  21.056  0.00  0.00    +0.000 C 
ATOM     30  C   UNL     1       4.020   2.940  20.057  0.00  0.00    +0.000 C 
ENDBRANCH  23  24
ENDBRANCH  22  23
ENDBRANCH  21  22
ENDBRANCH  20  21
ENDBRANCH   4  20
TORSDOF 6
ENDMDL
MODEL 9
REMARK VINA RESULT:      -7.9      1.242      2.153
REMARK  Name = 
REMARK  6 active torsions:
REMARK  status: ('A' for Active; 'I' for Inactive)
REMARK    1  A    between atoms: C_4  and  C_5
REMARK    2  A    between atoms: C_8  and  O_9
REMARK    3  A    between atoms: O_9  and  C_10
REMARK    4  A    between atoms: C_10  and  C_11
REMARK    5  A    between atoms: C_11  and  C_12
REMARK    6  A    between atoms: C_12  and  N_13
REMARK                            x       y       z     vdW  Elec       q    Type
REMARK                         _______ _______ _______ _____ _____    ______ ____
ROOT
ATOM      1  C   UNL     1       1.312   9.032  19.428  0.00  0.00    +0.000 A 
ATOM      2  C   UNL     1       1.774   9.362  18.154  0.00  0.00    +0.000 A 
ATOM      3  C   UNL     1       2.645   8.509  17.487  0.00  0.00    +0.000 A 
ATOM      4  C   UNL     1       3.064   7.311  18.077  0.00  0.00    +0.000 A 
ATOM      5  C   UNL     1       2.629   6.999  19.367  0.00  0.00    +0.000 A 
ATOM      6  C   UNL     1       1.752   7.855  20.042  0.00  0.00    +0.000 A 
ENDROOT
BRANCH   1  10
ATOM      7  O   UNL     1      -1.604  12.743  19.297  0.00  0.00    +0.000 OA
ATOM      8  C   UNL     1      -1.166  11.852  20.020  0.00  0.00    +0.000 A 
ATOM      9  C   UNL     1      -0.223  10.912  19.378  0.00  0.00    +0.000 A 
ATOM     10  C   UNL     1       0.330   9.904  20.053  0.00  0.00    +0.000 A 
ATOM     11  C   UNL     1      -0.022   9.808  21.474  0.00  0.00    +0.000 A 
ATOM     12  N   UNL     1      -0.839  10.585  22.102  0.00  0.00    +0.000 NA
ATOM     13  N   UNL     1      -1.438  11.609  21.371  0.00  0.00    +0.000 N 
ATOM     14  C   UNL     1      -2.401  12.387  22.092  0.00  0.00    +0.000 A 
ATOM     15  C   UNL     1      -2.676  12.092  23.432  0.00  0.00    +0.000 A 
ATOM     16  C   UNL     1      -3.670  12.798  24.111  0.00  0.00    +0.000 A 
ATOM     17  C   UNL     1      -4.367  13.796  23.449  0.00  0.00    +0.000 A 
ATOM     18  C   UNL     1      -4.026  14.054  22.137  0.00  0.00    +0.000 A 
ATOM     19  N   UNL     1      -3.074  13.377  21.461  0.00  0.00    +0.000 NA
ENDBRANCH   1  10
BRANCH   4  20
ATOM     20  O   UNL     1       3.872   6.379  17.468  0.00  0.00    +0.000 OA
BRANCH  20  21
ATOM     21  C   UNL     1       5.220   6.395  17.946  0.00  0.00    +0.000 C 
BRANCH  21  22
ATOM     22  C   UNL     1       5.495   5.237  18.891  0.00  0.00    +0.000 C 
BRANCH  22  23
ATOM     23  C   UNL     1       5.052   3.911  18.248  0.00  0.00    +0.000 C 
BRANCH  23  24
ATOM     24  N   UNL     1       3.770   3.380  18.760  0.00  0.00    +0.000 NA
ATOM     25  C   UNL     1       3.437   3.875  20.098  0.00  0.00    +0.000 C 
ATOM     26  C   UNL     1       2.687   2.812  20.908  0.00  0.00    +0.000 C 
ATOM     27  C   UNL     1       1.198   2.702  20.605  0.00  0.00    +0.000 C 
ATOM     28  C   UNL     1       0.864   2.410  19.147  0.00  0.00    +0.000 C 
ATOM     29  C   UNL     1       1.248   3.556  18.219  0.00  0.00    +0.000 C 
ATOM     30  C   UNL     1       2.710   3.548  17.756  0.00  0.00    +0.000 C 
ENDBRANCH  23  24
ENDBRANCH  22  23
ENDBRANCH  21  22
ENDBRANCH  20  21
ENDBRANCH   4  20
TORSDOF 6
ENDMDL
