MODEL 1
REMARK VINA RESULT:      -8.2      0.000      0.000
REMARK  Name = 
REMARK  9 active torsions:
REMARK  status: ('A' for Active; 'I' for Inactive)
REMARK    1  A    between atoms: C_1  and  C_2
REMARK    2  A    between atoms: C_2  and  C_3
REMARK    3  A    between atoms: C_3  and  N_4
REMARK    4  A    between atoms: C_5  and  C_6
REMARK    5  A    between atoms: N_8  and  C_9
REMARK    6  A    between atoms: C_9  and  C_10
REMARK    7  A    between atoms: C_10  and  C_11
REMARK    8  A    between atoms: C_20  and  N_21
REMARK    9  A    between atoms: C_22  and  C_24
REMARK                            x       y       z     vdW  Elec       q    Type
REMARK                         _______ _______ _______ _____ _____    ______ ____
ROOT
ATOM      1  N   UNL     1       2.533   6.142  19.460  0.00  0.00    +0.000 N 
ATOM      2  C   UNL     1       2.944   6.146  18.124  0.00  0.00    +0.000 A 
ATOM      3  C   UNL     1       2.662   7.420  17.652  0.00  0.00    +0.000 A 
ATOM      4  C   UNL     1       2.073   8.186  18.683  0.00  0.00    +0.000 A 
ATOM      5  C   UNL     1       1.593   9.509  18.734  0.00  0.00    +0.000 A 
ATOM      6  C   UNL     1       1.034  10.017  19.909  0.00  0.00    +0.000 A 
ATOM      7  C   UNL     1       0.977   9.195  21.036  0.00  0.00    +0.000 A 
ATOM      8  C   UNL     1       1.434   7.867  21.005  0.00  0.00    +0.000 A 
ATOM      9  C   UNL     1       1.991   7.376  19.808  0.00  0.00    +0.000 A 
ENDROOT
BRANCH   2  10
ATOM     10  C   UNL     1       3.520   5.024  17.383  0.00  0.00    +0.000 C 
ATOM     11  O   UNL     1       3.130   3.864  17.485  0.00  0.00    +0.000 OA
ATOM     12  N   UNL     1       4.559   5.361  16.535  0.00  0.00    +0.000 N 
ATOM     13  H   UNL     1       4.956   6.284  16.607  0.00  0.00    +0.000 HD
BRANCH  12  14
ATOM     14  C   UNL     1       5.281   4.372  15.745  0.00  0.00    +0.000 C 
BRANCH  14  15
ATOM     15  C   UNL     1       6.705   4.158  16.266  0.00  0.00    +0.000 C 
BRANCH  15  16
ATOM     16  C   UNL     1       7.197   5.327  17.079  0.00  0.00    +0.000 A 
ATOM     17  C   UNL     1       7.568   5.162  18.412  0.00  0.00    +0.000 A 
ATOM     18  C   UNL     1       8.011   6.270  19.130  0.00  0.00    +0.000 A 
ATOM     19  C   UNL     1       8.075   7.508  18.503  0.00  0.00    +0.000 A 
ATOM     20  C   UNL     1       7.691   7.585  17.176  0.00  0.00    +0.000 A 
ATOM     21  N   UNL     1       7.253   6.528  16.455  0.00  0.00    +0.000 NA
ENDBRANCH  15  16
ENDBRANCH  14  15
ENDBRANCH  12  14
ENDBRANCH   2  10
BRANCH   6  22
ATOM     22  N   UNL     1       0.526  11.331  20.009  0.00  0.00    +0.000 N 
ATOM     23  C   UNL     1      -0.712  11.781  19.571  0.00  0.00    +0.000 C 
ATOM     24  O   UNL     1      -1.575  11.080  19.048  0.00  0.00    +0.000 OA
ATOM     25  H   UNL     1       1.081  12.014  20.512  0.00  0.00    +0.000 HD
BRANCH  23  26
ATOM     26  C   UNL     1      -0.944  13.193  19.814  0.00  0.00    +0.000 A 
ATOM     27  C   UNL     1      -0.299  14.304  19.302  0.00  0.00    +0.000 A 
ATOM     28  C   UNL     1      -0.929  15.438  19.863  0.00  0.00    +0.000 A 
ATOM     29  C   UNL     1      -1.917  14.954  20.688  0.00  0.00    +0.000 A 
ATOM     30  O   UNL     1      -1.941  13.595  20.666  0.00  0.00    +0.000 OA
ENDBRANCH  23  26
ENDBRANCH   6  22
BRANCH   1  31
ATOM     31  C   UNL     1       2.566   4.997  20.363  0.00  0.00    +0.000 C 
BRANCH  31  33
ATOM     32  C   UNL     1       1.363   2.921  21.263  0.00  0.00    +0.000 C 
ATOM     33  C   UNL     1       1.250   4.222  20.479  0.00  0.00    +0.000 C 
ENDBRANCH  31  33
ENDBRANCH   1  31
TORSDOF 8
ENDMDL
MODEL 2
REMARK VINA RESULT:      -8.1      1.175      1.265
REMARK  Name = 
REMARK  9 active torsions:
REMARK  status: ('A' for Active; 'I' for Inactive)
REMARK    1  A    between atoms: C_1  and  C_2
REMARK    2  A    between atoms: C_2  and  C_3
REMARK    3  A    between atoms: C_3  and  N_4
REMARK    4  A    between atoms: C_5  and  C_6
REMARK    5  A    between atoms: N_8  and  C_9
REMARK    6  A    between atoms: C_9  and  C_10
REMARK    7  A    between atoms: C_10  and  C_11
REMARK    8  A    between atoms: C_20  and  N_21
REMARK    9  A    between atoms: C_22  and  C_24
REMARK                            x       y       z     vdW  Elec       q    Type
REMARK                         _______ _______ _______ _____ _____    ______ ____
ROOT
ATOM      1  N   UNL     1       2.288   6.247  19.552  0.00  0.00    +0.000 N 
ATOM      2  C   UNL     1       2.632   6.147  18.202  0.00  0.00    +0.000 A 
ATOM      3  C   UNL     1       2.383   7.401  17.660  0.00  0.00    +0.000 A 
ATOM      4  C   UNL     1       1.880   8.258  18.665  0.00  0.00    +0.000 A 
ATOM      5  C   UNL     1       1.461   9.601  18.651  0.00  0.00    +0.000 A 
ATOM      6  C   UNL     1       0.983  10.209  19.814  0.00  0.00    +0.000 A 
ATOM      7  C   UNL     1       0.947   9.464  20.995  0.00  0.00    +0.000 A 
ATOM      8  C   UNL     1       1.343   8.117  21.030  0.00  0.00    +0.000 A 
ATOM      9  C   UNL     1       1.819   7.525  19.843  0.00  0.00    +0.000 A 
ENDROOT
BRANCH   2  10
ATOM     10  C   UNL     1       3.122   4.955  17.510  0.00  0.00    +0.000 C 
ATOM     11  O   UNL     1       2.452   3.939  17.340  0.00  0.00    +0.000 OA
ATOM     12  N   UNL     1       4.421   5.045  17.044  0.00  0.00    +0.000 N 
ATOM     13  H   UNL     1       4.986   5.821  17.349  0.00  0.00    +0.000 HD
BRANCH  12  14
ATOM     14  C   UNL     1       5.092   3.945  16.366  0.00  0.00    +0.000 C 
BRANCH  14  15
ATOM     15  C   UNL     1       6.551   4.277  16.048  0.00  0.00    +0.000 C 
BRANCH  15  16
ATOM     16  C   UNL     1       7.107   5.337  16.962  0.00  0.00    +0.000 A 
ATOM     17  C   UNL     1       7.594   5.006  18.225  0.00  0.00    +0.000 A 
ATOM     18  C   UNL     1       8.093   6.018  19.042  0.00  0.00    +0.000 A 
ATOM     19  C   UNL     1       8.097   7.328  18.579  0.00  0.00    +0.000 A 
ATOM     20  C   UNL     1       7.598   7.571  17.311  0.00  0.00    +0.000 A 
ATOM     21  N   UNL     1       7.104   6.610  16.498  0.00  0.00    +0.000 NA
ENDBRANCH  15  16
ENDBRANCH  14  15
ENDBRANCH  12  14
ENDBRANCH   2  10
BRANCH   6  22
ATOM     22  N   UNL     1       0.539  11.549  19.852  0.00  0.00    +0.000 N 
ATOM     23  C   UNL     1       1.262  12.677  19.488  0.00  0.00    +0.000 C 
ATOM     24  O   UNL     1       2.407  12.669  19.044  0.00  0.00    +0.000 OA
ATOM     25  H   UNL     1      -0.429  11.718  20.102  0.00  0.00    +0.000 HD
BRANCH  23  26
ATOM     26  C   UNL     1       0.529  13.920  19.642  0.00  0.00    +0.000 A 
ATOM     27  C   UNL     1      -0.817  14.138  19.875  0.00  0.00    +0.000 A 
ATOM     28  C   UNL     1      -0.997  15.538  19.949  0.00  0.00    +0.000 A 
ATOM     29  C   UNL     1       0.246  16.092  19.751  0.00  0.00    +0.000 A 
ATOM     30  O   UNL     1       1.181  15.123  19.568  0.00  0.00    +0.000 OA
ENDBRANCH  23  26
ENDBRANCH   6  22
BRANCH   1  31
ATOM     31  C   UNL     1       2.316   5.162  20.526  0.00  0.00    +0.000 C 
BRANCH  31  33
ATOM     32  C   UNL     1       1.345   2.814  20.859  0.00  0.00    +0.000 C 
ATOM     33  C   UNL     1       1.064   4.279  20.552  0.00  0.00    +0.000 C 
ENDBRANCH  31  33
ENDBRANCH   1  31
TORSDOF 8
ENDMDL
MODEL 3
REMARK VINA RESULT:      -8.0      1.336      1.578
REMARK  Name = 
REMARK  9 active torsions:
REMARK  status: ('A' for Active; 'I' for Inactive)
REMARK    1  A    between atoms: C_1  and  C_2
REMARK    2  A    between atoms: C_2  and  C_3
REMARK    3  A    between atoms: C_3  and  N_4
REMARK    4  A    between atoms: C_5  and  C_6
REMARK    5  A    between atoms: N_8  and  C_9
REMARK    6  A    between atoms: C_9  and  C_10
REMARK    7  A    between atoms: C_10  and  C_11
REMARK    8  A    between atoms: C_20  and  N_21
REMARK    9  A    between atoms: C_22  and  C_24
REMARK                            x       y       z     vdW  Elec       q    Type
REMARK                         _______ _______ _______ _____ _____    ______ ____
ROOT
ATOM      1  N   UNL     1       2.193   6.302  19.701  0.00  0.00    +0.000 N 
ATOM      2  C   UNL     1       2.535   6.178  18.352  0.00  0.00    +0.000 A 
ATOM      3  C   UNL     1       2.294   7.425  17.791  0.00  0.00    +0.000 A 
ATOM      4  C   UNL     1       1.798   8.301  18.783  0.00  0.00    +0.000 A 
ATOM      5  C   UNL     1       1.388   9.647  18.748  0.00  0.00    +0.000 A 
ATOM      6  C   UNL     1       0.915  10.276  19.902  0.00  0.00    +0.000 A 
ATOM      7  C   UNL     1       0.876   9.550  21.094  0.00  0.00    +0.000 A 
ATOM      8  C   UNL     1       1.263   8.201  21.150  0.00  0.00    +0.000 A 
ATOM      9  C   UNL     1       1.733   7.588  19.972  0.00  0.00    +0.000 A 
ENDROOT
BRANCH   2  10
ATOM     10  C   UNL     1       3.016   4.972  17.678  0.00  0.00    +0.000 C 
ATOM     11  O   UNL     1       2.313   3.991  17.448  0.00  0.00    +0.000 OA
ATOM     12  N   UNL     1       4.346   5.006  17.304  0.00  0.00    +0.000 N 
ATOM     13  H   UNL     1       4.924   5.751  17.659  0.00  0.00    +0.000 HD
BRANCH  12  14
ATOM     14  C   UNL     1       5.011   3.883  16.657  0.00  0.00    +0.000 C 
BRANCH  14  15
ATOM     15  C   UNL     1       6.447   4.226  16.255  0.00  0.00    +0.000 C 
BRANCH  15  16
ATOM     16  C   UNL     1       7.057   5.271  17.152  0.00  0.00    +0.000 A 
ATOM     17  C   UNL     1       7.185   6.591  16.725  0.00  0.00    +0.000 A 
ATOM     18  C   UNL     1       7.760   7.525  17.583  0.00  0.00    +0.000 A 
ATOM     19  C   UNL     1       8.190   7.120  18.841  0.00  0.00    +0.000 A 
ATOM     20  C   UNL     1       8.023   5.791  19.188  0.00  0.00    +0.000 A 
ATOM     21  N   UNL     1       7.472   4.863  18.375  0.00  0.00    +0.000 NA
ENDBRANCH  15  16
ENDBRANCH  14  15
ENDBRANCH  12  14
ENDBRANCH   2  10
BRANCH   6  22
ATOM     22  N   UNL     1       0.480  11.620  19.919  0.00  0.00    +0.000 N 
ATOM     23  C   UNL     1       1.136  12.701  20.491  0.00  0.00    +0.000 C 
ATOM     24  O   UNL     1       2.228  12.649  21.050  0.00  0.00    +0.000 OA
ATOM     25  H   UNL     1      -0.364  11.848  19.405  0.00  0.00    +0.000 HD
BRANCH  23  26
ATOM     26  C   UNL     1       0.431  13.961  20.345  0.00  0.00    +0.000 A 
ATOM     27  C   UNL     1      -0.612  14.489  21.084  0.00  0.00    +0.000 A 
ATOM     28  C   UNL     1      -0.914  15.750  20.521  0.00  0.00    +0.000 A 
ATOM     29  C   UNL     1      -0.043  15.916  19.470  0.00  0.00    +0.000 A 
ATOM     30  O   UNL     1       0.782  14.841  19.354  0.00  0.00    +0.000 OA
ENDBRANCH  23  26
ENDBRANCH   6  22
BRANCH   1  31
ATOM     31  C   UNL     1       2.214   5.232  20.692  0.00  0.00    +0.000 C 
BRANCH  31  33
ATOM     32  C   UNL     1       1.374   2.865  21.198  0.00  0.00    +0.000 C 
ATOM     33  C   UNL     1       1.065   4.226  20.588  0.00  0.00    +0.000 C 
ENDBRANCH  31  33
ENDBRANCH   1  31
TORSDOF 8
ENDMDL
MODEL 4
REMARK VINA RESULT:      -8.0      1.487      2.425
REMARK  Name = 
REMARK  9 active torsions:
REMARK  status: ('A' for Active; 'I' for Inactive)
REMARK    1  A    between atoms: C_1  and  C_2
REMARK    2  A    between atoms: C_2  and  C_3
REMARK    3  A    between atoms: C_3  and  N_4
REMARK    4  A    between atoms: C_5  and  C_6
REMARK    5  A    between atoms: N_8  and  C_9
REMARK    6  A    between atoms: C_9  and  C_10
REMARK    7  A    between atoms: C_10  and  C_11
REMARK    8  A    between atoms: C_20  and  N_21
REMARK    9  A    between atoms: C_22  and  C_24
REMARK                            x       y       z     vdW  Elec       q    Type
REMARK                         _______ _______ _______ _____ _____    ______ ____
ROOT
ATOM      1  N   UNL     1       2.663   6.068  19.618  0.00  0.00    +0.000 N 
ATOM      2  C   UNL     1       3.178   6.260  18.334  0.00  0.00    +0.000 A 
ATOM      3  C   UNL     1       2.764   7.529  17.953  0.00  0.00    +0.000 A 
ATOM      4  C   UNL     1       1.993   8.104  18.988  0.00  0.00    +0.000 A 
ATOM      5  C   UNL     1       1.333   9.342  19.111  0.00  0.00    +0.000 A 
ATOM      6  C   UNL     1       0.614   9.652  20.268  0.00  0.00    +0.000 A 
ATOM      7  C   UNL     1       0.579   8.719  21.307  0.00  0.00    +0.000 A 
ATOM      8  C   UNL     1       1.215   7.471  21.200  0.00  0.00    +0.000 A 
ATOM      9  C   UNL     1       1.931   7.181  20.023  0.00  0.00    +0.000 A 
ENDROOT
BRANCH   2  10
ATOM     10  C   UNL     1       3.962   5.303  17.553  0.00  0.00    +0.000 C 
ATOM     11  O   UNL     1       3.473   4.509  16.754  0.00  0.00    +0.000 OA
ATOM     12  N   UNL     1       5.326   5.350  17.775  0.00  0.00    +0.000 N 
ATOM     13  H   UNL     1       5.666   5.892  18.554  0.00  0.00    +0.000 HD
BRANCH  12  14
ATOM     14  C   UNL     1       6.262   4.448  17.118  0.00  0.00    +0.000 C 
BRANCH  14  15
ATOM     15  C   UNL     1       7.243   5.202  16.217  0.00  0.00    +0.000 C 
BRANCH  15  16
ATOM     16  C   UNL     1       7.093   4.824  14.767  0.00  0.00    +0.000 A 
ATOM     17  C   UNL     1       6.179   3.847  14.376  0.00  0.00    +0.000 A 
ATOM     18  C   UNL     1       6.077   3.522  13.025  0.00  0.00    +0.000 A 
ATOM     19  C   UNL     1       6.882   4.179  12.103  0.00  0.00    +0.000 A 
ATOM     20  C   UNL     1       7.761   5.138  12.575  0.00  0.00    +0.000 A 
ATOM     21  N   UNL     1       7.885   5.472  13.879  0.00  0.00    +0.000 NA
ENDBRANCH  15  16
ENDBRANCH  14  15
ENDBRANCH  12  14
ENDBRANCH   2  10
BRANCH   6  22
ATOM     22  N   UNL     1      -0.076  10.873  20.437  0.00  0.00    +0.000 N 
ATOM     23  C   UNL     1      -1.181  11.311  19.719  0.00  0.00    +0.000 C 
ATOM     24  O   UNL     1      -1.748  10.673  18.836  0.00  0.00    +0.000 OA
ATOM     25  H   UNL     1       0.209  11.474  21.202  0.00  0.00    +0.000 HD
BRANCH  23  26
ATOM     26  C   UNL     1      -1.664  12.617  20.126  0.00  0.00    +0.000 A 
ATOM     27  C   UNL     1      -1.094  13.868  19.971  0.00  0.00    +0.000 A 
ATOM     28  C   UNL     1      -1.991  14.800  20.540  0.00  0.00    +0.000 A 
ATOM     29  C   UNL     1      -3.052  14.065  21.014  0.00  0.00    +0.000 A 
ATOM     30  O   UNL     1      -2.870  12.741  20.766  0.00  0.00    +0.000 OA
ENDBRANCH  23  26
ENDBRANCH   6  22
BRANCH   1  31
ATOM     31  C   UNL     1       2.779   4.851  20.414  0.00  0.00    +0.000 C 
BRANCH  31  33
ATOM     32  C   UNL     1       1.509   2.853  21.396  0.00  0.00    +0.000 C 
ATOM     33  C   UNL     1       1.622   3.859  20.258  0.00  0.00    +0.000 C 
ENDBRANCH  31  33
ENDBRANCH   1  31
TORSDOF 8
ENDMDL
MODEL 5
REMARK VINA RESULT:      -8.0      1.016      1.339
REMARK  Name = 
REMARK  9 active torsions:
REMARK  status: ('A' for Active; 'I' for Inactive)
REMARK    1  A    between atoms: C_1  and  C_2
REMARK    2  A    between atoms: C_2  and  C_3
REMARK    3  A    between atoms: C_3  and  N_4
REMARK    4  A    between atoms: C_5  and  C_6
REMARK    5  A    between atoms: N_8  and  C_9
REMARK    6  A    between atoms: C_9  and  C_10
REMARK    7  A    between atoms: C_10  and  C_11
REMARK    8  A    between atoms: C_20  and  N_21
REMARK    9  A    between atoms: C_22  and  C_24
REMARK                            x       y       z     vdW  Elec       q    Type
REMARK                         _______ _______ _______ _____ _____    ______ ____
ROOT
ATOM      1  N   UNL     1       2.672   5.461  19.651  0.00  0.00    +0.000 N 
ATOM      2  C   UNL     1       3.275   5.476  18.391  0.00  0.00    +0.000 A 
ATOM      3  C   UNL     1       3.077   6.759  17.899  0.00  0.00    +0.000 A 
ATOM      4  C   UNL     1       2.349   7.520  18.842  0.00  0.00    +0.000 A 
ATOM      5  C   UNL     1       1.878   8.846  18.838  0.00  0.00    +0.000 A 
ATOM      6  C   UNL     1       1.156   9.346  19.925  0.00  0.00    +0.000 A 
ATOM      7  C   UNL     1       0.928   8.512  21.021  0.00  0.00    +0.000 A 
ATOM      8  C   UNL     1       1.373   7.180  21.040  0.00  0.00    +0.000 A 
ATOM      9  C   UNL     1       2.096   6.698  19.932  0.00  0.00    +0.000 A 
ENDROOT
BRANCH   2  10
ATOM     10  C   UNL     1       3.945   4.358  17.728  0.00  0.00    +0.000 C 
ATOM     11  O   UNL     1       3.916   3.201  18.142  0.00  0.00    +0.000 OA
ATOM     12  N   UNL     1       4.629   4.691  16.574  0.00  0.00    +0.000 N 
ATOM     13  H   UNL     1       4.769   5.666  16.365  0.00  0.00    +0.000 HD
BRANCH  12  14
ATOM     14  C   UNL     1       5.389   3.717  15.801  0.00  0.00    +0.000 C 
BRANCH  14  15
ATOM     15  C   UNL     1       6.881   4.057  15.766  0.00  0.00    +0.000 C 
BRANCH  15  16
ATOM     16  C   UNL     1       7.262   5.063  16.821  0.00  0.00    +0.000 A 
ATOM     17  C   UNL     1       7.255   6.428  16.540  0.00  0.00    +0.000 A 
ATOM     18  C   UNL     1       7.621   7.324  17.542  0.00  0.00    +0.000 A 
ATOM     19  C   UNL     1       7.979   6.838  18.793  0.00  0.00    +0.000 A 
ATOM     20  C   UNL     1       7.956   5.469  18.990  0.00  0.00    +0.000 A 
ATOM     21  N   UNL     1       7.609   4.575  18.036  0.00  0.00    +0.000 NA
ENDBRANCH  15  16
ENDBRANCH  14  15
ENDBRANCH  12  14
ENDBRANCH   2  10
BRANCH   6  22
ATOM     22  N   UNL     1       0.650  10.665  19.966  0.00  0.00    +0.000 N 
ATOM     23  C   UNL     1      -0.464  11.151  19.296  0.00  0.00    +0.000 C 
ATOM     24  O   UNL     1      -1.204  10.483  18.578  0.00  0.00    +0.000 OA
ATOM     25  H   UNL     1       1.094  11.321  20.600  0.00  0.00    +0.000 HD
BRANCH  23  26
ATOM     26  C   UNL     1      -0.729  12.557  19.539  0.00  0.00    +0.000 A 
ATOM     27  C   UNL     1      -1.556  13.161  20.468  0.00  0.00    +0.000 A 
ATOM     28  C   UNL     1      -1.433  14.556  20.279  0.00  0.00    +0.000 A 
ATOM     29  C   UNL     1      -0.544  14.722  19.244  0.00  0.00    +0.000 A 
ATOM     30  O   UNL     1      -0.105  13.519  18.788  0.00  0.00    +0.000 OA
ENDBRANCH  23  26
ENDBRANCH   6  22
BRANCH   1  31
ATOM     31  C   UNL     1       2.561   4.306  20.535  0.00  0.00    +0.000 C 
BRANCH  31  33
ATOM     32  C   UNL     1       0.741   2.923  19.377  0.00  0.00    +0.000 C 
ATOM     33  C   UNL     1       1.163   3.687  20.625  0.00  0.00    +0.000 C 
ENDBRANCH  31  33
ENDBRANCH   1  31
TORSDOF 8
ENDMDL
MODEL 6
REMARK VINA RESULT:      -8.0      1.706      2.598
REMARK  Name = 
REMARK  9 active torsions:
REMARK  status: ('A' for Active; 'I' for Inactive)
REMARK    1  A    between atoms: C_1  and  C_2
REMARK    2  A    between atoms: C_2  and  C_3
REMARK    3  A    between atoms: C_3  and  N_4
REMARK    4  A    between atoms: C_5  and  C_6
REMARK    5  A    between atoms: N_8  and  C_9
REMARK    6  A    between atoms: C_9  and  C_10
REMARK    7  A    between atoms: C_10  and  C_11
REMARK    8  A    between atoms: C_20  and  N_21
REMARK    9  A    between atoms: C_22  and  C_24
REMARK                            x       y       z     vdW  Elec       q    Type
REMARK                         _______ _______ _______ _____ _____    ______ ____
ROOT
ATOM      1  N   UNL     1       2.642   6.012  19.649  0.00  0.00    +0.000 N 
ATOM      2  C   UNL     1       3.212   6.243  18.395  0.00  0.00    +0.000 A 
ATOM      3  C   UNL     1       2.828   7.530  18.043  0.00  0.00    +0.000 A 
ATOM      4  C   UNL     1       2.021   8.078  19.066  0.00  0.00    +0.000 A 
ATOM      5  C   UNL     1       1.370   9.318  19.206  0.00  0.00    +0.000 A 
ATOM      6  C   UNL     1       0.608   9.595  20.343  0.00  0.00    +0.000 A 
ATOM      7  C   UNL     1       0.519   8.627  21.345  0.00  0.00    +0.000 A 
ATOM      8  C   UNL     1       1.145   7.376  21.220  0.00  0.00    +0.000 A 
ATOM      9  C   UNL     1       1.906   7.119  20.063  0.00  0.00    +0.000 A 
ENDROOT
BRANCH   2  10
ATOM     10  C   UNL     1       4.018   5.305  17.613  0.00  0.00    +0.000 C 
ATOM     11  O   UNL     1       3.543   4.465  16.852  0.00  0.00    +0.000 OA
ATOM     12  N   UNL     1       5.384   5.427  17.786  0.00  0.00    +0.000 N 
ATOM     13  H   UNL     1       5.721   6.006  18.537  0.00  0.00    +0.000 HD
BRANCH  12  14
ATOM     14  C   UNL     1       6.342   4.554  17.121  0.00  0.00    +0.000 C 
BRANCH  14  15
ATOM     15  C   UNL     1       7.255   5.332  16.170  0.00  0.00    +0.000 C 
BRANCH  15  16
ATOM     16  C   UNL     1       7.085   4.902  14.736  0.00  0.00    +0.000 A 
ATOM     17  C   UNL     1       6.135   3.945  14.387  0.00  0.00    +0.000 A 
ATOM     18  C   UNL     1       6.015   3.571  13.050  0.00  0.00    +0.000 A 
ATOM     19  C   UNL     1       6.840   4.160  12.101  0.00  0.00    +0.000 A 
ATOM     20  C   UNL     1       7.756   5.104  12.532  0.00  0.00    +0.000 A 
ATOM     21  N   UNL     1       7.897   5.484  13.821  0.00  0.00    +0.000 NA
ENDBRANCH  15  16
ENDBRANCH  14  15
ENDBRANCH  12  14
ENDBRANCH   2  10
BRANCH   6  22
ATOM     22  N   UNL     1      -0.076  10.818  20.527  0.00  0.00    +0.000 N 
ATOM     23  C   UNL     1       0.460  12.008  21.003  0.00  0.00    +0.000 C 
ATOM     24  O   UNL     1       1.636  12.180  21.310  0.00  0.00    +0.000 OA
ATOM     25  H   UNL     1      -1.041  10.870  20.221  0.00  0.00    +0.000 HD
BRANCH  23  26
ATOM     26  C   UNL     1      -0.500  13.093  21.082  0.00  0.00    +0.000 A 
ATOM     27  C   UNL     1      -0.502  14.226  21.876  0.00  0.00    +0.000 A 
ATOM     28  C   UNL     1      -1.667  14.955  21.546  0.00  0.00    +0.000 A 
ATOM     29  C   UNL     1      -2.310  14.224  20.575  0.00  0.00    +0.000 A 
ATOM     30  O   UNL     1      -1.613  13.095  20.281  0.00  0.00    +0.000 OA
ENDBRANCH  23  26
ENDBRANCH   6  22
BRANCH   1  31
ATOM     31  C   UNL     1       2.711   4.766  20.405  0.00  0.00    +0.000 C 
BRANCH  31  33
ATOM     32  C   UNL     1       1.195   2.929  21.349  0.00  0.00    +0.000 C 
ATOM     33  C   UNL     1       1.566   3.783  20.144  0.00  0.00    +0.000 C 
ENDBRANCH  31  33
ENDBRANCH   1  31
TORSDOF 8
ENDMDL
MODEL 7
REMARK VINA RESULT:      -7.8      1.078      1.295
REMARK  Name = 
REMARK  9 active torsions:
REMARK  status: ('A' for Active; 'I' for Inactive)
REMARK    1  A    between atoms: C_1  and  C_2
REMARK    2  A    between atoms: C_2  and  C_3
REMARK    3  A    between atoms: C_3  and  N_4
REMARK    4  A    between atoms: C_5  and  C_6
REMARK    5  A    between atoms: N_8  and  C_9
REMARK    6  A    between atoms: C_9  and  C_10
REMARK    7  A    between atoms: C_10  and  C_11
REMARK    8  A    between atoms: C_20  and  N_21
REMARK    9  A    between atoms: C_22  and  C_24
REMARK                            x       y       z     vdW  Elec       q    Type
REMARK                         _______ _______ _______ _____ _____    ______ ____
ROOT
ATOM      1  N   UNL     1       2.615   5.851  19.803  0.00  0.00    +0.000 N 
ATOM      2  C   UNL     1       3.297   5.785  18.585  0.00  0.00    +0.000 A 
ATOM      3  C   UNL     1       3.129   7.031  17.996  0.00  0.00    +0.000 A 
ATOM      4  C   UNL     1       2.341   7.849  18.838  0.00  0.00    +0.000 A 
ATOM      5  C   UNL     1       1.870   9.169  18.715  0.00  0.00    +0.000 A 
ATOM      6  C   UNL     1       1.079   9.737  19.717  0.00  0.00    +0.000 A 
ATOM      7  C   UNL     1       0.782   8.977  20.850  0.00  0.00    +0.000 A 
ATOM      8  C   UNL     1       1.227   7.652  20.988  0.00  0.00    +0.000 A 
ATOM      9  C   UNL     1       2.020   7.100  19.962  0.00  0.00    +0.000 A 
ENDROOT
BRANCH   2  10
ATOM     10  C   UNL     1       4.010   4.628  18.043  0.00  0.00    +0.000 C 
ATOM     11  O   UNL     1       4.185   3.582  18.662  0.00  0.00    +0.000 OA
ATOM     12  N   UNL     1       4.484   4.789  16.755  0.00  0.00    +0.000 N 
ATOM     13  H   UNL     1       4.468   5.711  16.350  0.00  0.00    +0.000 HD
BRANCH  12  14
ATOM     14  C   UNL     1       5.251   3.760  16.065  0.00  0.00    +0.000 C 
BRANCH  14  15
ATOM     15  C   UNL     1       6.708   4.180  15.857  0.00  0.00    +0.000 C 
BRANCH  15  16
ATOM     16  C   UNL     1       7.178   5.150  16.909  0.00  0.00    +0.000 A 
ATOM     17  C   UNL     1       7.282   6.511  16.628  0.00  0.00    +0.000 A 
ATOM     18  C   UNL     1       7.727   7.373  17.628  0.00  0.00    +0.000 A 
ATOM     19  C   UNL     1       8.053   6.858  18.876  0.00  0.00    +0.000 A 
ATOM     20  C   UNL     1       7.919   5.495  19.073  0.00  0.00    +0.000 A 
ATOM     21  N   UNL     1       7.493   4.634  18.122  0.00  0.00    +0.000 NA
ENDBRANCH  15  16
ENDBRANCH  14  15
ENDBRANCH  12  14
ENDBRANCH   2  10
BRANCH   6  22
ATOM     22  N   UNL     1       0.570  11.052  19.637  0.00  0.00    +0.000 N 
ATOM     23  C   UNL     1       0.448  11.963  20.678  0.00  0.00    +0.000 C 
ATOM     24  O   UNL     1       0.802  11.762  21.837  0.00  0.00    +0.000 OA
ATOM     25  H   UNL     1       0.327  11.409  18.720  0.00  0.00    +0.000 HD
BRANCH  23  26
ATOM     26  C   UNL     1      -0.117  13.238  20.279  0.00  0.00    +0.000 A 
ATOM     27  C   UNL     1       0.329  14.160  19.350  0.00  0.00    +0.000 A 
ATOM     28  C   UNL     1      -0.602  15.223  19.348  0.00  0.00    +0.000 A 
ATOM     29  C   UNL     1      -1.559  14.892  20.279  0.00  0.00    +0.000 A 
ATOM     30  O   UNL     1      -1.280  13.689  20.848  0.00  0.00    +0.000 OA
ENDBRANCH  23  26
ENDBRANCH   6  22
BRANCH   1  31
ATOM     31  C   UNL     1       2.450   4.757  20.753  0.00  0.00    +0.000 C 
BRANCH  31  33
ATOM     32  C   UNL     1       0.979   2.890  19.797  0.00  0.00    +0.000 C 
ATOM     33  C   UNL     1       1.075   4.084  20.738  0.00  0.00    +0.000 C 
ENDBRANCH  31  33
ENDBRANCH   1  31
TORSDOF 8
ENDMDL
MODEL 8
REMARK VINA RESULT:      -7.8      1.187      1.252
REMARK  Name = 
REMARK  9 active torsions:
REMARK  status: ('A' for Active; 'I' for Inactive)
REMARK    1  A    between atoms: C_1  and  C_2
REMARK    2  A    between atoms: C_2  and  C_3
REMARK    3  A    between atoms: C_3  and  N_4
REMARK    4  A    between atoms: C_5  and  C_6
REMARK    5  A    between atoms: N_8  and  C_9
REMARK    6  A    between atoms: C_9  and  C_10
REMARK    7  A    between atoms: C_10  and  C_11
REMARK    8  A    between atoms: C_20  and  N_21
REMARK    9  A    between atoms: C_22  and  C_24
REMARK                            x       y       z     vdW  Elec       q    Type
REMARK                         _______ _______ _______ _____ _____    ______ ____
ROOT
ATOM      1  N   UNL     1       2.777   5.705  19.288  0.00  0.00    +0.000 N 
ATOM      2  C   UNL     1       3.236   5.879  17.980  0.00  0.00    +0.000 A 
ATOM      3  C   UNL     1       2.891   7.178  17.635  0.00  0.00    +0.000 A 
ATOM      4  C   UNL     1       2.217   7.791  18.715  0.00  0.00    +0.000 A 
ATOM      5  C   UNL     1       1.653   9.069  18.886  0.00  0.00    +0.000 A 
ATOM      6  C   UNL     1       1.020   9.412  20.083  0.00  0.00    +0.000 A 
ATOM      7  C   UNL     1       0.974   8.470  21.113  0.00  0.00    +0.000 A 
ATOM      8  C   UNL     1       1.515   7.183  20.960  0.00  0.00    +0.000 A 
ATOM      9  C   UNL     1       2.146   6.860  19.742  0.00  0.00    +0.000 A 
ENDROOT
BRANCH   2  10
ATOM     10  C   UNL     1       3.909   4.881  17.149  0.00  0.00    +0.000 C 
ATOM     11  O   UNL     1       3.798   3.668  17.311  0.00  0.00    +0.000 OA
ATOM     12  N   UNL     1       4.699   5.401  16.140  0.00  0.00    +0.000 N 
ATOM     13  H   UNL     1       4.895   6.390  16.147  0.00  0.00    +0.000 HD
BRANCH  12  14
ATOM     14  C   UNL     1       5.476   4.563  15.237  0.00  0.00    +0.000 C 
BRANCH  14  15
ATOM     15  C   UNL     1       6.880   4.290  15.783  0.00  0.00    +0.000 C 
BRANCH  15  16
ATOM     16  C   UNL     1       7.291   5.292  16.829  0.00  0.00    +0.000 A 
ATOM     17  C   UNL     1       7.603   4.883  18.124  0.00  0.00    +0.000 A 
ATOM     18  C   UNL     1       7.972   5.843  19.063  0.00  0.00    +0.000 A 
ATOM     19  C   UNL     1       8.023   7.180  18.688  0.00  0.00    +0.000 A 
ATOM     20  C   UNL     1       7.700   7.501  17.382  0.00  0.00    +0.000 A 
ATOM     21  N   UNL     1       7.335   6.592  16.450  0.00  0.00    +0.000 NA
ENDBRANCH  15  16
ENDBRANCH  14  15
ENDBRANCH  12  14
ENDBRANCH   2  10
BRANCH   6  22
ATOM     22  N   UNL     1       0.426  10.675  20.301  0.00  0.00    +0.000 N 
ATOM     23  C   UNL     1       0.123  11.253  21.527  0.00  0.00    +0.000 C 
ATOM     24  O   UNL     1       0.361  10.751  22.622  0.00  0.00    +0.000 OA
ATOM     25  H   UNL     1       0.259  11.264  19.492  0.00  0.00    +0.000 HD
BRANCH  23  26
ATOM     26  C   UNL     1      -0.488  12.565  21.422  0.00  0.00    +0.000 A 
ATOM     27  C   UNL     1      -0.374  13.670  22.247  0.00  0.00    +0.000 A 
ATOM     28  C   UNL     1      -1.172  14.688  21.678  0.00  0.00    +0.000 A 
ATOM     29  C   UNL     1      -1.729  14.146  20.544  0.00  0.00    +0.000 A 
ATOM     30  O   UNL     1      -1.320  12.860  20.374  0.00  0.00    +0.000 OA
ENDBRANCH  23  26
ENDBRANCH   6  22
BRANCH   1  31
ATOM     31  C   UNL     1       2.849   4.472  20.064  0.00  0.00    +0.000 C 
BRANCH  31  33
ATOM     32  C   UNL     1       1.543   2.311  19.627  0.00  0.00    +0.000 C 
ATOM     33  C   UNL     1       1.525   3.717  20.212  0.00  0.00    +0.000 C 
ENDBRANCH  31  33
ENDBRANCH   1  31
TORSDOF 8
ENDMDL
MODEL 9
REMARK VINA RESULT:      -7.7      1.447      1.702
REMARK  Name = 
REMARK  9 active torsions:
REMARK  status: ('A' for Active; 'I' for Inactive)
REMARK    1  A    between atoms: C_1  and  C_2
REMARK    2  A    between atoms: C_2  and  C_3
REMARK    3  A    between atoms: C_3  and  N_4
REMARK    4  A    between atoms: C_5  and  C_6
REMARK    5  A    between atoms: N_8  and  C_9
REMARK    6  A    between atoms: C_9  and  C_10
REMARK    7  A    between atoms: C_10  and  C_11
REMARK    8  A    between atoms: C_20  and  N_21
REMARK    9  A    between atoms: C_22  and  C_24
REMARK                            x       y       z     vdW  Elec       q    Type
REMARK                         _______ _______ _______ _____ _____    ______ ____
ROOT
ATOM      1  N   UNL     1       2.612   4.706  19.015  0.00  0.00    +0.000 N 
ATOM      2  C   UNL     1       3.439   5.127  17.970  0.00  0.00    +0.000 A 
ATOM      3  C   UNL     1       3.417   6.515  18.014  0.00  0.00    +0.000 A 
ATOM      4  C   UNL     1       2.576   6.940  19.067  0.00  0.00    +0.000 A 
ATOM      5  C   UNL     1       2.199   8.215  19.530  0.00  0.00    +0.000 A 
ATOM      6  C   UNL     1       1.320   8.347  20.608  0.00  0.00    +0.000 A 
ATOM      7  C   UNL     1       0.839   7.192  21.228  0.00  0.00    +0.000 A 
ATOM      8  C   UNL     1       1.188   5.910  20.773  0.00  0.00    +0.000 A 
ATOM      9  C   UNL     1       2.073   5.803  19.683  0.00  0.00    +0.000 A 
ENDROOT
BRANCH   2  10
ATOM     10  C   UNL     1       4.149   4.274  17.018  0.00  0.00    +0.000 C 
ATOM     11  O   UNL     1       4.255   3.056  17.138  0.00  0.00    +0.000 OA
ATOM     12  N   UNL     1       4.707   4.940  15.942  0.00  0.00    +0.000 N 
ATOM     13  H   UNL     1       4.742   5.947  15.969  0.00  0.00    +0.000 HD
BRANCH  12  14
ATOM     14  C   UNL     1       5.483   4.262  14.914  0.00  0.00    +0.000 C 
BRANCH  14  15
ATOM     15  C   UNL     1       6.989   4.441  15.127  0.00  0.00    +0.000 C 
BRANCH  15  16
ATOM     16  C   UNL     1       7.300   5.201  16.389  0.00  0.00    +0.000 A 
ATOM     17  C   UNL     1       7.673   4.531  17.553  0.00  0.00    +0.000 A 
ATOM     18  C   UNL     1       7.946   5.272  18.700  0.00  0.00    +0.000 A 
ATOM     19  C   UNL     1       7.842   6.657  18.657  0.00  0.00    +0.000 A 
ATOM     20  C   UNL     1       7.468   7.244  17.462  0.00  0.00    +0.000 A 
ATOM     21  N   UNL     1       7.194   6.551  16.334  0.00  0.00    +0.000 NA
ENDBRANCH  15  16
ENDBRANCH  14  15
ENDBRANCH  12  14
ENDBRANCH   2  10
BRANCH   6  22
ATOM     22  N   UNL     1       0.899   9.602  21.103  0.00  0.00    +0.000 N 
ATOM     23  C   UNL     1      -0.139  10.384  20.615  0.00  0.00    +0.000 C 
ATOM     24  O   UNL     1      -0.876  10.078  19.682  0.00  0.00    +0.000 OA
ATOM     25  H   UNL     1       1.345   9.950  21.944  0.00  0.00    +0.000 HD
BRANCH  23  26
ATOM     26  C   UNL     1      -0.326  11.628  21.338  0.00  0.00    +0.000 A 
ATOM     27  C   UNL     1       0.219  12.880  21.116  0.00  0.00    +0.000 A 
ATOM     28  C   UNL     1      -0.305  13.737  22.109  0.00  0.00    +0.000 A 
ATOM     29  C   UNL     1      -1.135  12.960  22.883  0.00  0.00    +0.000 A 
ATOM     30  O   UNL     1      -1.160  11.680  22.425  0.00  0.00    +0.000 OA
ENDBRANCH  23  26
ENDBRANCH   6  22
BRANCH   1  31
ATOM     31  C   UNL     1       2.267   3.325  19.331  0.00  0.00    +0.000 C 
BRANCH  31  33
ATOM     32  C   UNL     1       2.379   2.720  21.818  0.00  0.00    +0.000 C 
ATOM     33  C   UNL     1       3.079   2.694  20.466  0.00  0.00    +0.000 C 
ENDBRANCH  31  33
ENDBRANCH   1  31
TORSDOF 8
ENDMDL
