MODEL 1
REMARK VINA RESULT:      -8.6      0.000      0.000
REMARK  Name = 
REMARK  12 active torsions:
REMARK  status: ('A' for Active; 'I' for Inactive)
REMARK    1  A    between atoms: C_1  and  O_2
REMARK    2  A    between atoms: O_2  and  C_3
REMARK    3  A    between atoms: C_6  and  C_7
REMARK    4  A    between atoms: C_7  and  O_8
REMARK    5  A    between atoms: O_8  and  C_9
REMARK    6  A    between atoms: C_9  and  C_10
REMARK    7  A    between atoms: C_11  and  C_12
REMARK    8  A    between atoms: C_12  and  N_13
REMARK    9  A    between atoms: C_17  and  C_18
REMARK   10  A    between atoms: C_18  and  C_19
REMARK   11  A    between atoms: C_19  and  C_20
REMARK   12  A    between atoms: C_20  and  O_22
REMARK                            x       y       z     vdW  Elec       q    Type
REMARK                         _______ _______ _______ _____ _____    ______ ____
ROOT
ATOM      1  C   UNL     1       0.297  10.986  19.061  0.00  0.00    +0.000 C 
ATOM      2  C   UNL     1       0.545  12.483  19.367  0.00  0.00    +0.000 A 
ATOM      3  C   UNL     1       0.812  13.529  18.493  0.00  0.00    +0.000 A 
ATOM      4  C   UNL     1       1.111  14.779  19.041  0.00  0.00    +0.000 A 
ATOM      5  C   UNL     1       1.098  14.975  20.433  0.00  0.00    +0.000 A 
ATOM      6  C   UNL     1       0.795  13.930  21.307  0.00  0.00    +0.000 A 
ATOM      7  C   UNL     1       0.515  12.691  20.767  0.00  0.00    +0.000 A 
ATOM      8  C   UNL     1       0.221  11.439  21.423  0.00  0.00    +0.000 A 
ATOM      9  C   UNL     1      -0.435  11.209  22.620  0.00  0.00    +0.000 A 
ATOM     10  C   UNL     1      -0.810   9.898  22.930  0.00  0.00    +0.000 A 
ATOM     11  C   UNL     1      -0.438   8.827  22.100  0.00  0.00    +0.000 A 
ATOM     12  C   UNL     1       0.205   9.057  20.882  0.00  0.00    +0.000 A 
ATOM     13  C   UNL     1       0.414  10.381  20.508  0.00  0.00    +0.000 A 
ENDROOT
BRANCH   1  17
ATOM     14  C   UNL     1      -3.665  10.929  17.296  0.00  0.00    +0.000 A 
ATOM     15  C   UNL     1      -3.437  11.656  18.466  0.00  0.00    +0.000 A 
ATOM     16  C   UNL     1      -2.225  11.535  19.164  0.00  0.00    +0.000 A 
ATOM     17  C   UNL     1      -1.202  10.692  18.685  0.00  0.00    +0.000 A 
ATOM     18  C   UNL     1      -1.510   9.873  17.576  0.00  0.00    +0.000 A 
ATOM     19  C   UNL     1      -2.719   9.999  16.883  0.00  0.00    +0.000 A 
BRANCH  14  21
ATOM     20  C   UNL     1      -5.578  12.308  17.136  0.00  0.00    +0.000 C 
ATOM     21  O   UNL     1      -4.834  11.197  16.636  0.00  0.00    +0.000 OA
ENDBRANCH  14  21
ENDBRANCH   1  17
BRANCH   1  22
ATOM     22  O   UNL     1       1.208  10.451  18.082  0.00  0.00    +0.000 OA
BRANCH  22  23
ATOM     23  C   UNL     1       2.057   9.412  18.568  0.00  0.00    +0.000 C 
BRANCH  23  24
ATOM     24  C   UNL     1       1.788   8.111  17.857  0.00  0.00    +0.000 C 
ATOM     25  C   UNL     1       2.585   7.027  17.819  0.00  0.00    +0.000 C 
BRANCH  25  26
ATOM     26  C   UNL     1       3.974   6.877  18.377  0.00  0.00    +0.000 C 
BRANCH  26  27
ATOM     27  N   UNL     1       4.256   5.541  18.899  0.00  0.00    +0.000 N 
ATOM     28  C   UNL     1       3.273   4.625  19.194  0.00  0.00    +0.000 A 
ATOM     29  C   UNL     1       3.939   3.471  19.516  0.00  0.00    +0.000 A 
ATOM     30  N   UNL     1       5.285   3.639  19.352  0.00  0.00    +0.000 NA
ATOM     31  C   UNL     1       5.467   4.911  19.045  0.00  0.00    +0.000 A 
BRANCH  31  32
ATOM     32  C   UNL     1       6.822   5.504  18.810  0.00  0.00    +0.000 C 
BRANCH  32  33
ATOM     33  C   UNL     1       7.649   4.714  17.796  0.00  0.00    +0.000 C 
BRANCH  33  34
ATOM     34  C   UNL     1       7.033   4.640  16.421  0.00  0.00    +0.000 C 
ATOM     35  O   UNL     1       7.347   5.388  15.504  0.00  0.00    +0.000 OA
BRANCH  34  36
ATOM     36  O   UNL     1       6.146   3.642  16.242  0.00  0.00    +0.000 OA
ATOM     37  H   UNL     1       5.804   3.589  15.322  0.00  0.00    +0.000 HD
ENDBRANCH  34  36
ENDBRANCH  33  34
ENDBRANCH  32  33
ENDBRANCH  31  32
ENDBRANCH  26  27
ENDBRANCH  25  26
ENDBRANCH  23  24
ENDBRANCH  22  23
ENDBRANCH   1  22
TORSDOF 11
ENDMDL
MODEL 2
REMARK VINA RESULT:      -8.3      1.162      1.410
REMARK  Name = 
REMARK  12 active torsions:
REMARK  status: ('A' for Active; 'I' for Inactive)
REMARK    1  A    between atoms: C_1  and  O_2
REMARK    2  A    between atoms: O_2  and  C_3
REMARK    3  A    between atoms: C_6  and  C_7
REMARK    4  A    between atoms: C_7  and  O_8
REMARK    5  A    between atoms: O_8  and  C_9
REMARK    6  A    between atoms: C_9  and  C_10
REMARK    7  A    between atoms: C_11  and  C_12
REMARK    8  A    between atoms: C_12  and  N_13
REMARK    9  A    between atoms: C_17  and  C_18
REMARK   10  A    between atoms: C_18  and  C_19
REMARK   11  A    between atoms: C_19  and  C_20
REMARK   12  A    between atoms: C_20  and  O_22
REMARK                            x       y       z     vdW  Elec       q    Type
REMARK                         _______ _______ _______ _____ _____    ______ ____
ROOT
ATOM      1  C   UNL     1       0.721  10.867  19.152  0.00  0.00    +0.000 C 
ATOM      2  C   UNL     1       1.056  12.374  19.270  0.00  0.00    +0.000 A 
ATOM      3  C   UNL     1       1.534  13.250  18.304  0.00  0.00    +0.000 A 
ATOM      4  C   UNL     1       1.863  14.548  18.702  0.00  0.00    +0.000 A 
ATOM      5  C   UNL     1       1.674  14.960  20.033  0.00  0.00    +0.000 A 
ATOM      6  C   UNL     1       1.161  14.089  20.994  0.00  0.00    +0.000 A 
ATOM      7  C   UNL     1       0.850  12.801  20.604  0.00  0.00    +0.000 A 
ATOM      8  C   UNL     1       0.357  11.690  21.384  0.00  0.00    +0.000 A 
ATOM      9  C   UNL     1      -0.476  11.695  22.489  0.00  0.00    +0.000 A 
ATOM     10  C   UNL     1      -1.005  10.477  22.926  0.00  0.00    +0.000 A 
ATOM     11  C   UNL     1      -0.618   9.267  22.327  0.00  0.00    +0.000 A 
ATOM     12  C   UNL     1       0.206   9.260  21.200  0.00  0.00    +0.000 A 
ATOM     13  C   UNL     1       0.581  10.491  20.672  0.00  0.00    +0.000 A 
ENDROOT
BRANCH   1  17
ATOM     14  C   UNL     1      -2.942  10.789  16.831  0.00  0.00    +0.000 A 
ATOM     15  C   UNL     1      -2.815  11.683  17.895  0.00  0.00    +0.000 A 
ATOM     16  C   UNL     1      -1.729  11.597  18.781  0.00  0.00    +0.000 A 
ATOM     17  C   UNL     1      -0.731  10.618  18.601  0.00  0.00    +0.000 A 
ATOM     18  C   UNL     1      -0.955   9.649  17.597  0.00  0.00    +0.000 A 
ATOM     19  C   UNL     1      -2.038   9.740  16.717  0.00  0.00    +0.000 A 
BRANCH  14  21
ATOM     20  C   UNL     1      -3.858  10.401  14.687  0.00  0.00    +0.000 C 
ATOM     21  O   UNL     1      -3.978  11.022  15.966  0.00  0.00    +0.000 OA
ENDBRANCH  14  21
ENDBRANCH   1  17
BRANCH   1  22
ATOM     22  O   UNL     1       1.709  10.126  18.410  0.00  0.00    +0.000 OA
BRANCH  22  23
ATOM     23  C   UNL     1       1.741   8.729  18.700  0.00  0.00    +0.000 C 
BRANCH  23  24
ATOM     24  C   UNL     1       2.778   8.023  17.864  0.00  0.00    +0.000 C 
ATOM     25  C   UNL     1       3.224   6.763  18.017  0.00  0.00    +0.000 C 
BRANCH  25  26
ATOM     26  C   UNL     1       2.886   5.786  19.111  0.00  0.00    +0.000 C 
BRANCH  26  27
ATOM     27  N   UNL     1       2.902   4.390  18.677  0.00  0.00    +0.000 N 
ATOM     28  C   UNL     1       1.775   3.604  18.628  0.00  0.00    +0.000 A 
ATOM     29  C   UNL     1       2.178   2.430  18.047  0.00  0.00    +0.000 A 
ATOM     30  N   UNL     1       3.491   2.510  17.677  0.00  0.00    +0.000 NA
ATOM     31  C   UNL     1       3.933   3.673  18.123  0.00  0.00    +0.000 A 
BRANCH  31  32
ATOM     32  C   UNL     1       5.347   4.128  17.939  0.00  0.00    +0.000 C 
BRANCH  32  33
ATOM     33  C   UNL     1       5.674   4.483  16.489  0.00  0.00    +0.000 C 
BRANCH  33  34
ATOM     34  C   UNL     1       7.141   4.720  16.227  0.00  0.00    +0.000 C 
ATOM     35  O   UNL     1       8.025   4.368  16.997  0.00  0.00    +0.000 OA
BRANCH  34  36
ATOM     36  O   UNL     1       7.427   5.296  15.043  0.00  0.00    +0.000 OA
ATOM     37  H   UNL     1       6.826   6.042  14.823  0.00  0.00    +0.000 HD
ENDBRANCH  34  36
ENDBRANCH  33  34
ENDBRANCH  32  33
ENDBRANCH  31  32
ENDBRANCH  26  27
ENDBRANCH  25  26
ENDBRANCH  23  24
ENDBRANCH  22  23
ENDBRANCH   1  22
TORSDOF 11
ENDMDL
MODEL 3
REMARK VINA RESULT:      -8.2      0.982      1.127
REMARK  Name = 
REMARK  12 active torsions:
REMARK  status: ('A' for Active; 'I' for Inactive)
REMARK    1  A    between atoms: C_1  and  O_2
REMARK    2  A    between atoms: O_2  and  C_3
REMARK    3  A    between atoms: C_6  and  C_7
REMARK    4  A    between atoms: C_7  and  O_8
REMARK    5  A    between atoms: O_8  and  C_9
REMARK    6  A    between atoms: C_9  and  C_10
REMARK    7  A    between atoms: C_11  and  C_12
REMARK    8  A    between atoms: C_12  and  N_13
REMARK    9  A    between atoms: C_17  and  C_18
REMARK   10  A    between atoms: C_18  and  C_19
REMARK   11  A    between atoms: C_19  and  C_20
REMARK   12  A    between atoms: C_20  and  O_22
REMARK                            x       y       z     vdW  Elec       q    Type
REMARK                         _______ _______ _______ _____ _____    ______ ____
ROOT
ATOM      1  C   UNL     1       0.149  10.842  19.110  0.00  0.00    +0.000 C 
ATOM      2  C   UNL     1       0.532  12.330  19.301  0.00  0.00    +0.000 A 
ATOM      3  C   UNL     1       0.874  13.281  18.348  0.00  0.00    +0.000 A 
ATOM      4  C   UNL     1       1.290  14.537  18.797  0.00  0.00    +0.000 A 
ATOM      5  C   UNL     1       1.321  14.835  20.170  0.00  0.00    +0.000 A 
ATOM      6  C   UNL     1       0.944  13.888  21.124  0.00  0.00    +0.000 A 
ATOM      7  C   UNL     1       0.546  12.642  20.681  0.00  0.00    +0.000 A 
ATOM      8  C   UNL     1       0.156  11.473  21.433  0.00  0.00    +0.000 A 
ATOM      9  C   UNL     1      -0.495  11.390  22.651  0.00  0.00    +0.000 A 
ATOM     10  C   UNL     1      -0.977  10.144  23.063  0.00  0.00    +0.000 A 
ATOM     11  C   UNL     1      -0.715   8.986  22.311  0.00  0.00    +0.000 A 
ATOM     12  C   UNL     1      -0.077   9.069  21.072  0.00  0.00    +0.000 A 
ATOM     13  C   UNL     1       0.239  10.337  20.597  0.00  0.00    +0.000 A 
ENDROOT
BRANCH   1  17
ATOM     14  C   UNL     1      -3.847  11.049  17.436  0.00  0.00    +0.000 A 
ATOM     15  C   UNL     1      -3.537  11.781  18.583  0.00  0.00    +0.000 A 
ATOM     16  C   UNL     1      -2.321  11.584  19.257  0.00  0.00    +0.000 A 
ATOM     17  C   UNL     1      -1.376  10.655  18.775  0.00  0.00    +0.000 A 
ATOM     18  C   UNL     1      -1.772   9.837  17.693  0.00  0.00    +0.000 A 
ATOM     19  C   UNL     1      -2.985  10.040  17.025  0.00  0.00    +0.000 A 
BRANCH  14  21
ATOM     20  C   UNL     1      -6.011  11.981  17.622  0.00  0.00    +0.000 C 
ATOM     21  O   UNL     1      -5.008  11.390  16.796  0.00  0.00    +0.000 OA
ENDBRANCH  14  21
ENDBRANCH   1  17
BRANCH   1  22
ATOM     22  O   UNL     1       0.992  10.158  18.163  0.00  0.00    +0.000 OA
BRANCH  22  23
ATOM     23  C   UNL     1       1.955   9.284  18.751  0.00  0.00    +0.000 C 
BRANCH  23  24
ATOM     24  C   UNL     1       2.717   8.525  17.695  0.00  0.00    +0.000 C 
ATOM     25  C   UNL     1       3.029   7.216  17.703  0.00  0.00    +0.000 C 
BRANCH  25  26
ATOM     26  C   UNL     1       2.796   6.213  18.800  0.00  0.00    +0.000 C 
BRANCH  26  27
ATOM     27  N   UNL     1       3.042   4.831  18.395  0.00  0.00    +0.000 N 
ATOM     28  C   UNL     1       2.048   3.985  17.960  0.00  0.00    +0.000 A 
ATOM     29  C   UNL     1       2.694   2.848  17.550  0.00  0.00    +0.000 A 
ATOM     30  N   UNL     1       4.048   3.009  17.652  0.00  0.00    +0.000 NA
ATOM     31  C   UNL     1       4.241   4.183  18.227  0.00  0.00    +0.000 A 
BRANCH  31  32
ATOM     32  C   UNL     1       5.603   4.720  18.540  0.00  0.00    +0.000 C 
BRANCH  32  33
ATOM     33  C   UNL     1       6.534   4.724  17.328  0.00  0.00    +0.000 C 
BRANCH  33  34
ATOM     34  C   UNL     1       6.373   5.926  16.430  0.00  0.00    +0.000 C 
ATOM     35  O   UNL     1       5.747   5.898  15.378  0.00  0.00    +0.000 OA
BRANCH  34  36
ATOM     36  O   UNL     1       6.916   7.067  16.896  0.00  0.00    +0.000 OA
ATOM     37  H   UNL     1       7.630   6.914  17.555  0.00  0.00    +0.000 HD
ENDBRANCH  34  36
ENDBRANCH  33  34
ENDBRANCH  32  33
ENDBRANCH  31  32
ENDBRANCH  26  27
ENDBRANCH  25  26
ENDBRANCH  23  24
ENDBRANCH  22  23
ENDBRANCH   1  22
TORSDOF 11
ENDMDL
MODEL 4
REMARK VINA RESULT:      -8.2      2.011      2.775
REMARK  Name = 
REMARK  12 active torsions:
REMARK  status: ('A' for Active; 'I' for Inactive)
REMARK    1  A    between atoms: C_1  and  O_2
REMARK    2  A    between atoms: O_2  and  C_3
REMARK    3  A    between atoms: C_6  and  C_7
REMARK    4  A    between atoms: C_7  and  O_8
REMARK    5  A    between atoms: O_8  and  C_9
REMARK    6  A    between atoms: C_9  and  C_10
REMARK    7  A    between atoms: C_11  and  C_12
REMARK    8  A    between atoms: C_12  and  N_13
REMARK    9  A    between atoms: C_17  and  C_18
REMARK   10  A    between atoms: C_18  and  C_19
REMARK   11  A    between atoms: C_19  and  C_20
REMARK   12  A    between atoms: C_20  and  O_22
REMARK                            x       y       z     vdW  Elec       q    Type
REMARK                         _______ _______ _______ _____ _____    ______ ____
ROOT
ATOM      1  C   UNL     1       0.081  10.745  19.118  0.00  0.00    +0.000 C 
ATOM      2  C   UNL     1       0.558  12.213  19.238  0.00  0.00    +0.000 A 
ATOM      3  C   UNL     1       0.927  13.105  18.239  0.00  0.00    +0.000 A 
ATOM      4  C   UNL     1       1.431  14.349  18.626  0.00  0.00    +0.000 A 
ATOM      5  C   UNL     1       1.520  14.697  19.986  0.00  0.00    +0.000 A 
ATOM      6  C   UNL     1       1.116  13.811  20.986  0.00  0.00    +0.000 A 
ATOM      7  C   UNL     1       0.632  12.576  20.604  0.00  0.00    +0.000 A 
ATOM      8  C   UNL     1       0.196  11.462  21.412  0.00  0.00    +0.000 A 
ATOM      9  C   UNL     1      -0.422  11.465  22.651  0.00  0.00    +0.000 A 
ATOM     10  C   UNL     1      -0.965  10.267  23.124  0.00  0.00    +0.000 A 
ATOM     11  C   UNL     1      -0.796   9.068  22.412  0.00  0.00    +0.000 A 
ATOM     12  C   UNL     1      -0.191   9.064  21.154  0.00  0.00    +0.000 A 
ATOM     13  C   UNL     1       0.186  10.293  20.620  0.00  0.00    +0.000 A 
ENDROOT
BRANCH   1  17
ATOM     14  C   UNL     1      -3.943  11.124  17.543  0.00  0.00    +0.000 A 
ATOM     15  C   UNL     1      -3.554  11.888  18.645  0.00  0.00    +0.000 A 
ATOM     16  C   UNL     1      -2.333  11.646  19.295  0.00  0.00    +0.000 A 
ATOM     17  C   UNL     1      -1.462  10.639  18.833  0.00  0.00    +0.000 A 
ATOM     18  C   UNL     1      -1.939   9.799  17.802  0.00  0.00    +0.000 A 
ATOM     19  C   UNL     1      -3.156  10.045  17.157  0.00  0.00    +0.000 A 
BRANCH  14  21
ATOM     20  C   UNL     1      -6.012  12.253  17.725  0.00  0.00    +0.000 C 
ATOM     21  O   UNL     1      -5.099  11.508  16.919  0.00  0.00    +0.000 OA
ENDBRANCH  14  21
ENDBRANCH   1  17
BRANCH   1  22
ATOM     22  O   UNL     1       0.853   9.976  18.176  0.00  0.00    +0.000 OA
BRANCH  22  23
ATOM     23  C   UNL     1       1.919   9.225  18.756  0.00  0.00    +0.000 C 
BRANCH  23  24
ATOM     24  C   UNL     1       2.862   8.712  17.699  0.00  0.00    +0.000 C 
ATOM     25  C   UNL     1       3.166   7.427  17.437  0.00  0.00    +0.000 C 
BRANCH  25  26
ATOM     26  C   UNL     1       2.733   6.199  18.192  0.00  0.00    +0.000 C 
BRANCH  26  27
ATOM     27  N   UNL     1       3.819   5.255  18.448  0.00  0.00    +0.000 N 
ATOM     28  C   UNL     1       5.124   5.642  18.642  0.00  0.00    +0.000 A 
ATOM     29  C   UNL     1       5.795   4.497  18.985  0.00  0.00    +0.000 A 
ATOM     30  N   UNL     1       4.924   3.448  19.078  0.00  0.00    +0.000 NA
ATOM     31  C   UNL     1       3.747   3.905  18.686  0.00  0.00    +0.000 A 
BRANCH  31  32
ATOM     32  C   UNL     1       2.524   3.044  18.620  0.00  0.00    +0.000 C 
BRANCH  32  33
ATOM     33  C   UNL     1       2.303   2.226  19.892  0.00  0.00    +0.000 C 
BRANCH  33  34
ATOM     34  C   UNL     1       1.369   2.869  20.887  0.00  0.00    +0.000 C 
ATOM     35  O   UNL     1       1.379   2.607  22.083  0.00  0.00    +0.000 OA
BRANCH  34  36
ATOM     36  O   UNL     1       0.552   3.813  20.380  0.00  0.00    +0.000 OA
ATOM     37  H   UNL     1       0.954   4.710  20.377  0.00  0.00    +0.000 HD
ENDBRANCH  34  36
ENDBRANCH  33  34
ENDBRANCH  32  33
ENDBRANCH  31  32
ENDBRANCH  26  27
ENDBRANCH  25  26
ENDBRANCH  23  24
ENDBRANCH  22  23
ENDBRANCH   1  22
TORSDOF 11
ENDMDL
MODEL 5
REMARK VINA RESULT:      -8.1      1.576      1.979
REMARK  Name = 
REMARK  12 active torsions:
REMARK  status: ('A' for Active; 'I' for Inactive)
REMARK    1  A    between atoms: C_1  and  O_2
REMARK    2  A    between atoms: O_2  and  C_3
REMARK    3  A    between atoms: C_6  and  C_7
REMARK    4  A    between atoms: C_7  and  O_8
REMARK    5  A    between atoms: O_8  and  C_9
REMARK    6  A    between atoms: C_9  and  C_10
REMARK    7  A    between atoms: C_11  and  C_12
REMARK    8  A    between atoms: C_12  and  N_13
REMARK    9  A    between atoms: C_17  and  C_18
REMARK   10  A    between atoms: C_18  and  C_19
REMARK   11  A    between atoms: C_19  and  C_20
REMARK   12  A    between atoms: C_20  and  O_22
REMARK                            x       y       z     vdW  Elec       q    Type
REMARK                         _______ _______ _______ _____ _____    ______ ____
ROOT
ATOM      1  C   UNL     1       0.506  10.744  19.879  0.00  0.00    +0.000 C 
ATOM      2  C   UNL     1       1.333  11.982  19.452  0.00  0.00    +0.000 A 
ATOM      3  C   UNL     1       2.132  12.165  18.330  0.00  0.00    +0.000 A 
ATOM      4  C   UNL     1       2.867  13.349  18.237  0.00  0.00    +0.000 A 
ATOM      5  C   UNL     1       2.765  14.339  19.230  0.00  0.00    +0.000 A 
ATOM      6  C   UNL     1       1.934  14.167  20.338  0.00  0.00    +0.000 A 
ATOM      7  C   UNL     1       1.219  12.990  20.439  0.00  0.00    +0.000 A 
ATOM      8  C   UNL     1       0.335  12.529  21.483  0.00  0.00    +0.000 A 
ATOM      9  C   UNL     1      -0.501  13.259  22.311  0.00  0.00    +0.000 A 
ATOM     10  C   UNL     1      -1.438  12.567  23.084  0.00  0.00    +0.000 A 
ATOM     11  C   UNL     1      -1.462  11.163  23.102  0.00  0.00    +0.000 A 
ATOM     12  C   UNL     1      -0.634  10.424  22.254  0.00  0.00    +0.000 A 
ATOM     13  C   UNL     1       0.169  11.132  21.365  0.00  0.00    +0.000 A 
ENDROOT
BRANCH   1  17
ATOM     14  C   UNL     1      -2.867  10.999  17.164  0.00  0.00    +0.000 A 
ATOM     15  C   UNL     1      -2.621  12.037  18.064  0.00  0.00    +0.000 A 
ATOM     16  C   UNL     1      -1.664  11.897  19.081  0.00  0.00    +0.000 A 
ATOM     17  C   UNL     1      -0.913  10.710  19.200  0.00  0.00    +0.000 A 
ATOM     18  C   UNL     1      -1.274   9.632  18.361  0.00  0.00    +0.000 A 
ATOM     19  C   UNL     1      -2.229   9.778  17.349  0.00  0.00    +0.000 A 
BRANCH  14  21
ATOM     20  C   UNL     1      -3.474  10.611  14.913  0.00  0.00    +0.000 C 
ATOM     21  O   UNL     1      -3.743  11.273  16.148  0.00  0.00    +0.000 OA
ENDBRANCH  14  21
ENDBRANCH   1  17
BRANCH   1  22
ATOM     22  O   UNL     1       1.214   9.503  19.699  0.00  0.00    +0.000 OA
BRANCH  22  23
ATOM     23  C   UNL     1       1.670   8.901  20.911  0.00  0.00    +0.000 C 
BRANCH  23  24
ATOM     24  C   UNL     1       1.305   7.440  20.963  0.00  0.00    +0.000 C 
ATOM     25  C   UNL     1       1.836   6.443  20.231  0.00  0.00    +0.000 C 
BRANCH  25  26
ATOM     26  C   UNL     1       2.837   6.546  19.112  0.00  0.00    +0.000 C 
BRANCH  26  27
ATOM     27  N   UNL     1       3.103   5.275  18.443  0.00  0.00    +0.000 N 
ATOM     28  C   UNL     1       2.362   4.138  18.667  0.00  0.00    +0.000 A 
ATOM     29  C   UNL     1       2.829   3.219  17.763  0.00  0.00    +0.000 A 
ATOM     30  N   UNL     1       3.772   3.787  16.953  0.00  0.00    +0.000 NA
ATOM     31  C   UNL     1       3.976   5.007  17.418  0.00  0.00    +0.000 A 
BRANCH  31  32
ATOM     32  C   UNL     1       4.967   5.951  16.813  0.00  0.00    +0.000 C 
BRANCH  32  33
ATOM     33  C   UNL     1       5.510   5.464  15.469  0.00  0.00    +0.000 C 
BRANCH  33  34
ATOM     34  C   UNL     1       6.978   5.117  15.486  0.00  0.00    +0.000 C 
ATOM     35  O   UNL     1       7.514   4.513  16.406  0.00  0.00    +0.000 OA
BRANCH  34  36
ATOM     36  O   UNL     1       7.662   5.463  14.378  0.00  0.00    +0.000 OA
ATOM     37  H   UNL     1       7.490   4.867  13.616  0.00  0.00    +0.000 HD
ENDBRANCH  34  36
ENDBRANCH  33  34
ENDBRANCH  32  33
ENDBRANCH  31  32
ENDBRANCH  26  27
ENDBRANCH  25  26
ENDBRANCH  23  24
ENDBRANCH  22  23
ENDBRANCH   1  22
TORSDOF 11
ENDMDL
MODEL 6
REMARK VINA RESULT:      -8.1      0.859      1.059
REMARK  Name = 
REMARK  12 active torsions:
REMARK  status: ('A' for Active; 'I' for Inactive)
REMARK    1  A    between atoms: C_1  and  O_2
REMARK    2  A    between atoms: O_2  and  C_3
REMARK    3  A    between atoms: C_6  and  C_7
REMARK    4  A    between atoms: C_7  and  O_8
REMARK    5  A    between atoms: O_8  and  C_9
REMARK    6  A    between atoms: C_9  and  C_10
REMARK    7  A    between atoms: C_11  and  C_12
REMARK    8  A    between atoms: C_12  and  N_13
REMARK    9  A    between atoms: C_17  and  C_18
REMARK   10  A    between atoms: C_18  and  C_19
REMARK   11  A    between atoms: C_19  and  C_20
REMARK   12  A    between atoms: C_20  and  O_22
REMARK                            x       y       z     vdW  Elec       q    Type
REMARK                         _______ _______ _______ _____ _____    ______ ____
ROOT
ATOM      1  C   UNL     1       0.512  10.727  18.903  0.00  0.00    +0.000 C 
ATOM      2  C   UNL     1       0.874  12.205  19.192  0.00  0.00    +0.000 A 
ATOM      3  C   UNL     1       1.228  13.215  18.308  0.00  0.00    +0.000 A 
ATOM      4  C   UNL     1       1.620  14.445  18.842  0.00  0.00    +0.000 A 
ATOM      5  C   UNL     1       1.613  14.659  20.231  0.00  0.00    +0.000 A 
ATOM      6  C   UNL     1       1.224  13.653  21.116  0.00  0.00    +0.000 A 
ATOM      7  C   UNL     1       0.851  12.432  20.589  0.00  0.00    +0.000 A 
ATOM      8  C   UNL     1       0.456  11.216  21.258  0.00  0.00    +0.000 A 
ATOM      9  C   UNL     1      -0.223  11.052  22.453  0.00  0.00    +0.000 A 
ATOM     10  C   UNL     1      -0.701   9.779  22.776  0.00  0.00    +0.000 A 
ATOM     11  C   UNL     1      -0.408   8.672  21.963  0.00  0.00    +0.000 A 
ATOM     12  C   UNL     1       0.259   8.836  20.747  0.00  0.00    +0.000 A 
ATOM     13  C   UNL     1       0.572  10.134  20.358  0.00  0.00    +0.000 A 
ENDROOT
BRANCH   1  17
ATOM     14  C   UNL     1      -3.451  11.015  17.165  0.00  0.00    +0.000 A 
ATOM     15  C   UNL     1      -3.177  11.651  18.376  0.00  0.00    +0.000 A 
ATOM     16  C   UNL     1      -1.973  11.416  19.057  0.00  0.00    +0.000 A 
ATOM     17  C   UNL     1      -1.002  10.546  18.519  0.00  0.00    +0.000 A 
ATOM     18  C   UNL     1      -1.361   9.819  17.362  0.00  0.00    +0.000 A 
ATOM     19  C   UNL     1      -2.563  10.059  16.687  0.00  0.00    +0.000 A 
BRANCH  14  21
ATOM     20  C   UNL     1      -5.586  12.010  17.362  0.00  0.00    +0.000 C 
ATOM     21  O   UNL     1      -4.605  11.393  16.531  0.00  0.00    +0.000 OA
ENDBRANCH  14  21
ENDBRANCH   1  17
BRANCH   1  22
ATOM     22  O   UNL     1       1.385  10.110  17.937  0.00  0.00    +0.000 OA
BRANCH  22  23
ATOM     23  C   UNL     1       1.526   8.698  18.083  0.00  0.00    +0.000 C 
BRANCH  23  24
ATOM     24  C   UNL     1       2.960   8.272  17.905  0.00  0.00    +0.000 C 
ATOM     25  C   UNL     1       3.434   7.013  17.859  0.00  0.00    +0.000 C 
BRANCH  25  26
ATOM     26  C   UNL     1       2.679   5.730  18.078  0.00  0.00    +0.000 C 
BRANCH  26  27
ATOM     27  N   UNL     1       3.463   4.695  18.748  0.00  0.00    +0.000 N 
ATOM     28  C   UNL     1       2.959   3.898  19.749  0.00  0.00    +0.000 A 
ATOM     29  C   UNL     1       3.943   2.981  20.012  0.00  0.00    +0.000 A 
ATOM     30  N   UNL     1       4.992   3.151  19.152  0.00  0.00    +0.000 NA
ATOM     31  C   UNL     1       4.718   4.230  18.441  0.00  0.00    +0.000 A 
BRANCH  31  32
ATOM     32  C   UNL     1       5.644   4.770  17.395  0.00  0.00    +0.000 C 
BRANCH  32  33
ATOM     33  C   UNL     1       5.315   4.263  15.991  0.00  0.00    +0.000 C 
BRANCH  33  34
ATOM     34  C   UNL     1       6.437   4.431  14.995  0.00  0.00    +0.000 C 
ATOM     35  O   UNL     1       6.500   3.806  13.944  0.00  0.00    +0.000 OA
BRANCH  34  36
ATOM     36  O   UNL     1       7.347   5.373  15.310  0.00  0.00    +0.000 OA
ATOM     37  H   UNL     1       7.377   5.575  16.271  0.00  0.00    +0.000 HD
ENDBRANCH  34  36
ENDBRANCH  33  34
ENDBRANCH  32  33
ENDBRANCH  31  32
ENDBRANCH  26  27
ENDBRANCH  25  26
ENDBRANCH  23  24
ENDBRANCH  22  23
ENDBRANCH   1  22
TORSDOF 11
ENDMDL
MODEL 7
REMARK VINA RESULT:      -8.1      1.404      1.626
REMARK  Name = 
REMARK  12 active torsions:
REMARK  status: ('A' for Active; 'I' for Inactive)
REMARK    1  A    between atoms: C_1  and  O_2
REMARK    2  A    between atoms: O_2  and  C_3
REMARK    3  A    between atoms: C_6  and  C_7
REMARK    4  A    between atoms: C_7  and  O_8
REMARK    5  A    between atoms: O_8  and  C_9
REMARK    6  A    between atoms: C_9  and  C_10
REMARK    7  A    between atoms: C_11  and  C_12
REMARK    8  A    between atoms: C_12  and  N_13
REMARK    9  A    between atoms: C_17  and  C_18
REMARK   10  A    between atoms: C_18  and  C_19
REMARK   11  A    between atoms: C_19  and  C_20
REMARK   12  A    between atoms: C_20  and  O_22
REMARK                            x       y       z     vdW  Elec       q    Type
REMARK                         _______ _______ _______ _____ _____    ______ ____
ROOT
ATOM      1  C   UNL     1       0.553  10.757  18.923  0.00  0.00    +0.000 C 
ATOM      2  C   UNL     1       0.932  12.233  19.201  0.00  0.00    +0.000 A 
ATOM      3  C   UNL     1       1.301  13.231  18.308  0.00  0.00    +0.000 A 
ATOM      4  C   UNL     1       1.707  14.460  18.833  0.00  0.00    +0.000 A 
ATOM      5  C   UNL     1       1.699  14.687  20.220  0.00  0.00    +0.000 A 
ATOM      6  C   UNL     1       1.294  13.694  21.112  0.00  0.00    +0.000 A 
ATOM      7  C   UNL     1       0.908  12.473  20.595  0.00  0.00    +0.000 A 
ATOM      8  C   UNL     1       0.496  11.268  21.274  0.00  0.00    +0.000 A 
ATOM      9  C   UNL     1      -0.189  11.124  22.468  0.00  0.00    +0.000 A 
ATOM     10  C   UNL     1      -0.684   9.859  22.801  0.00  0.00    +0.000 A 
ATOM     11  C   UNL     1      -0.403   8.741  21.998  0.00  0.00    +0.000 A 
ATOM     12  C   UNL     1       0.270   8.886  20.783  0.00  0.00    +0.000 A 
ATOM     13  C   UNL     1       0.601  10.177  20.384  0.00  0.00    +0.000 A 
ENDROOT
BRANCH   1  17
ATOM     14  C   UNL     1      -3.403  11.085  17.176  0.00  0.00    +0.000 A 
ATOM     15  C   UNL     1      -3.126  11.720  18.387  0.00  0.00    +0.000 A 
ATOM     16  C   UNL     1      -1.925  11.472  19.071  0.00  0.00    +0.000 A 
ATOM     17  C   UNL     1      -0.963  10.592  18.536  0.00  0.00    +0.000 A 
ATOM     18  C   UNL     1      -1.327   9.867  17.379  0.00  0.00    +0.000 A 
ATOM     19  C   UNL     1      -2.524  10.119  16.701  0.00  0.00    +0.000 A 
BRANCH  14  21
ATOM     20  C   UNL     1      -5.630  11.847  17.395  0.00  0.00    +0.000 C 
ATOM     21  O   UNL     1      -4.551  11.474  16.538  0.00  0.00    +0.000 OA
ENDBRANCH  14  21
ENDBRANCH   1  17
BRANCH   1  22
ATOM     22  O   UNL     1       1.421  10.121  17.966  0.00  0.00    +0.000 OA
BRANCH  22  23
ATOM     23  C   UNL     1       2.285   9.128  18.519  0.00  0.00    +0.000 C 
BRANCH  23  24
ATOM     24  C   UNL     1       1.899   7.749  18.050  0.00  0.00    +0.000 C 
ATOM     25  C   UNL     1       2.698   6.670  17.958  0.00  0.00    +0.000 C 
BRANCH  25  26
ATOM     26  C   UNL     1       4.182   6.592  18.192  0.00  0.00    +0.000 C 
BRANCH  26  27
ATOM     27  N   UNL     1       4.853   5.579  17.380  0.00  0.00    +0.000 N 
ATOM     28  C   UNL     1       4.241   4.417  16.970  0.00  0.00    +0.000 A 
ATOM     29  C   UNL     1       5.139   3.813  16.129  0.00  0.00    +0.000 A 
ATOM     30  N   UNL     1       6.239   4.607  15.960  0.00  0.00    +0.000 NA
ATOM     31  C   UNL     1       6.082   5.637  16.773  0.00  0.00    +0.000 A 
BRANCH  31  32
ATOM     32  C   UNL     1       7.097   6.731  16.901  0.00  0.00    +0.000 C 
BRANCH  32  33
ATOM     33  C   UNL     1       7.668   6.850  18.314  0.00  0.00    +0.000 C 
BRANCH  33  34
ATOM     34  C   UNL     1       7.779   5.537  19.048  0.00  0.00    +0.000 C 
ATOM     35  O   UNL     1       7.512   5.409  20.236  0.00  0.00    +0.000 OA
BRANCH  34  36
ATOM     36  O   UNL     1       8.134   4.483  18.289  0.00  0.00    +0.000 OA
ATOM     37  H   UNL     1       8.878   4.682  17.677  0.00  0.00    +0.000 HD
ENDBRANCH  34  36
ENDBRANCH  33  34
ENDBRANCH  32  33
ENDBRANCH  31  32
ENDBRANCH  26  27
ENDBRANCH  25  26
ENDBRANCH  23  24
ENDBRANCH  22  23
ENDBRANCH   1  22
TORSDOF 11
ENDMDL
MODEL 8
REMARK VINA RESULT:      -8.1      1.592      2.236
REMARK  Name = 
REMARK  12 active torsions:
REMARK  status: ('A' for Active; 'I' for Inactive)
REMARK    1  A    between atoms: C_1  and  O_2
REMARK    2  A    between atoms: O_2  and  C_3
REMARK    3  A    between atoms: C_6  and  C_7
REMARK    4  A    between atoms: C_7  and  O_8
REMARK    5  A    between atoms: O_8  and  C_9
REMARK    6  A    between atoms: C_9  and  C_10
REMARK    7  A    between atoms: C_11  and  C_12
REMARK    8  A    between atoms: C_12  and  N_13
REMARK    9  A    between atoms: C_17  and  C_18
REMARK   10  A    between atoms: C_18  and  C_19
REMARK   11  A    between atoms: C_19  and  C_20
REMARK   12  A    between atoms: C_20  and  O_22
REMARK                            x       y       z     vdW  Elec       q    Type
REMARK                         _______ _______ _______ _____ _____    ______ ____
ROOT
ATOM      1  C   UNL     1       0.153  10.443  19.026  0.00  0.00    +0.000 C 
ATOM      2  C   UNL     1       0.798  11.848  19.109  0.00  0.00    +0.000 A 
ATOM      3  C   UNL     1       1.232  12.682  18.086  0.00  0.00    +0.000 A 
ATOM      4  C   UNL     1       1.888  13.864  18.439  0.00  0.00    +0.000 A 
ATOM      5  C   UNL     1       2.062  14.213  19.789  0.00  0.00    +0.000 A 
ATOM      6  C   UNL     1       1.594  13.391  20.815  0.00  0.00    +0.000 A 
ATOM      7  C   UNL     1       0.959  12.214  20.466  0.00  0.00    +0.000 A 
ATOM      8  C   UNL     1       0.427  11.167  21.304  0.00  0.00    +0.000 A 
ATOM      9  C   UNL     1      -0.145  11.253  22.562  0.00  0.00    +0.000 A 
ATOM     10  C   UNL     1      -0.804  10.130  23.070  0.00  0.00    +0.000 A 
ATOM     11  C   UNL     1      -0.797   8.912  22.371  0.00  0.00    +0.000 A 
ATOM     12  C   UNL     1      -0.240   8.826  21.093  0.00  0.00    +0.000 A 
ATOM     13  C   UNL     1       0.257   9.998  20.530  0.00  0.00    +0.000 A 
ENDROOT
BRANCH   1  17
ATOM     14  C   UNL     1      -3.853  11.276  17.587  0.00  0.00    +0.000 A 
ATOM     15  C   UNL     1      -3.345  11.986  18.675  0.00  0.00    +0.000 A 
ATOM     16  C   UNL     1      -2.138  11.607  19.284  0.00  0.00    +0.000 A 
ATOM     17  C   UNL     1      -1.401  10.511  18.792  0.00  0.00    +0.000 A 
ATOM     18  C   UNL     1      -2.002   9.734  17.777  0.00  0.00    +0.000 A 
ATOM     19  C   UNL     1      -3.205  10.118  17.174  0.00  0.00    +0.000 A 
BRANCH  14  21
ATOM     20  C   UNL     1      -5.989  12.236  17.906  0.00  0.00    +0.000 C 
ATOM     21  O   UNL     1      -4.979  11.789  17.001  0.00  0.00    +0.000 OA
ENDBRANCH  14  21
ENDBRANCH   1  17
BRANCH   1  22
ATOM     22  O   UNL     1       0.800   9.581  18.070  0.00  0.00    +0.000 OA
BRANCH  22  23
ATOM     23  C   UNL     1       2.009   8.982  18.536  0.00  0.00    +0.000 C 
BRANCH  23  24
ATOM     24  C   UNL     1       2.884   8.556  17.385  0.00  0.00    +0.000 C 
ATOM     25  C   UNL     1       3.566   7.402  17.268  0.00  0.00    +0.000 C 
BRANCH  25  26
ATOM     26  C   UNL     1       3.715   6.305  18.288  0.00  0.00    +0.000 C 
BRANCH  26  27
ATOM     27  N   UNL     1       5.018   5.644  18.254  0.00  0.00    +0.000 N 
ATOM     28  C   UNL     1       6.188   6.303  17.960  0.00  0.00    +0.000 A 
ATOM     29  C   UNL     1       7.183   5.383  18.165  0.00  0.00    +0.000 A 
ATOM     30  N   UNL     1       6.658   4.216  18.646  0.00  0.00    +0.000 NA
ATOM     31  C   UNL     1       5.345   4.365  18.629  0.00  0.00    +0.000 A 
BRANCH  31  32
ATOM     32  C   UNL     1       4.400   3.286  19.061  0.00  0.00    +0.000 C 
BRANCH  32  33
ATOM     33  C   UNL     1       3.697   2.606  17.887  0.00  0.00    +0.000 C 
BRANCH  33  34
ATOM     34  C   UNL     1       2.191   2.661  17.953  0.00  0.00    +0.000 C 
ATOM     35  O   UNL     1       1.528   3.541  17.420  0.00  0.00    +0.000 OA
BRANCH  34  36
ATOM     36  O   UNL     1       1.607   1.629  18.592  0.00  0.00    +0.000 OA
ATOM     37  H   UNL     1       1.673   0.782  18.097  0.00  0.00    +0.000 HD
ENDBRANCH  34  36
ENDBRANCH  33  34
ENDBRANCH  32  33
ENDBRANCH  31  32
ENDBRANCH  26  27
ENDBRANCH  25  26
ENDBRANCH  23  24
ENDBRANCH  22  23
ENDBRANCH   1  22
TORSDOF 11
ENDMDL
MODEL 9
REMARK VINA RESULT:      -8.0      1.788      2.184
REMARK  Name = 
REMARK  12 active torsions:
REMARK  status: ('A' for Active; 'I' for Inactive)
REMARK    1  A    between atoms: C_1  and  O_2
REMARK    2  A    between atoms: O_2  and  C_3
REMARK    3  A    between atoms: C_6  and  C_7
REMARK    4  A    between atoms: C_7  and  O_8
REMARK    5  A    between atoms: O_8  and  C_9
REMARK    6  A    between atoms: C_9  and  C_10
REMARK    7  A    between atoms: C_11  and  C_12
REMARK    8  A    between atoms: C_12  and  N_13
REMARK    9  A    between atoms: C_17  and  C_18
REMARK   10  A    between atoms: C_18  and  C_19
REMARK   11  A    between atoms: C_19  and  C_20
REMARK   12  A    between atoms: C_20  and  O_22
REMARK                            x       y       z     vdW  Elec       q    Type
REMARK                         _______ _______ _______ _____ _____    ______ ____
ROOT
ATOM      1  C   UNL     1       0.385  10.711  19.856  0.00  0.00    +0.000 C 
ATOM      2  C   UNL     1       1.287  11.892  19.421  0.00  0.00    +0.000 A 
ATOM      3  C   UNL     1       2.086  12.022  18.292  0.00  0.00    +0.000 A 
ATOM      4  C   UNL     1       2.896  13.155  18.191  0.00  0.00    +0.000 A 
ATOM      5  C   UNL     1       2.867  14.150  19.184  0.00  0.00    +0.000 A 
ATOM      6  C   UNL     1       2.037  14.033  20.300  0.00  0.00    +0.000 A 
ATOM      7  C   UNL     1       1.247  12.905  20.407  0.00  0.00    +0.000 A 
ATOM      8  C   UNL     1       0.344  12.504  21.460  0.00  0.00    +0.000 A 
ATOM      9  C   UNL     1      -0.435  13.287  22.294  0.00  0.00    +0.000 A 
ATOM     10  C   UNL     1      -1.410  12.658  23.075  0.00  0.00    +0.000 A 
ATOM     11  C   UNL     1      -1.524  11.258  23.095  0.00  0.00    +0.000 A 
ATOM     12  C   UNL     1      -0.754  10.467  22.240  0.00  0.00    +0.000 A 
ATOM     13  C   UNL     1       0.086  11.121  21.344  0.00  0.00    +0.000 A 
ENDROOT
BRANCH   1  17
ATOM     14  C   UNL     1      -2.976  10.998  17.129  0.00  0.00    +0.000 A 
ATOM     15  C   UNL     1      -2.568  12.123  17.848  0.00  0.00    +0.000 A 
ATOM     16  C   UNL     1      -1.619  12.015  18.876  0.00  0.00    +0.000 A 
ATOM     17  C   UNL     1      -1.039  10.769  19.190  0.00  0.00    +0.000 A 
ATOM     18  C   UNL     1      -1.566   9.631  18.537  0.00  0.00    +0.000 A 
ATOM     19  C   UNL     1      -2.512   9.746  17.512  0.00  0.00    +0.000 A 
BRANCH  14  21
ATOM     20  C   UNL     1      -3.505  10.539  14.872  0.00  0.00    +0.000 C 
ATOM     21  O   UNL     1      -3.826  11.226  16.080  0.00  0.00    +0.000 OA
ENDBRANCH  14  21
ENDBRANCH   1  17
BRANCH   1  22
ATOM     22  O   UNL     1       1.009   9.426  19.672  0.00  0.00    +0.000 OA
BRANCH  22  23
ATOM     23  C   UNL     1       1.705   8.936  20.818  0.00  0.00    +0.000 C 
BRANCH  23  24
ATOM     24  C   UNL     1       1.493   7.455  20.992  0.00  0.00    +0.000 C 
ATOM     25  C   UNL     1       1.928   6.472  20.182  0.00  0.00    +0.000 C 
BRANCH  25  26
ATOM     26  C   UNL     1       2.632   6.603  18.859  0.00  0.00    +0.000 C 
BRANCH  26  27
ATOM     27  N   UNL     1       2.954   5.322  18.235  0.00  0.00    +0.000 N 
ATOM     28  C   UNL     1       1.998   4.408  17.858  0.00  0.00    +0.000 A 
ATOM     29  C   UNL     1       2.682   3.420  17.197  0.00  0.00    +0.000 A 
ATOM     30  N   UNL     1       4.006   3.747  17.098  0.00  0.00    +0.000 NA
ATOM     31  C   UNL     1       4.167   4.862  17.787  0.00  0.00    +0.000 A 
BRANCH  31  32
ATOM     32  C   UNL     1       5.496   5.535  17.943  0.00  0.00    +0.000 C 
BRANCH  32  33
ATOM     33  C   UNL     1       6.315   4.973  19.104  0.00  0.00    +0.000 C 
BRANCH  33  34
ATOM     34  C   UNL     1       7.575   5.746  19.403  0.00  0.00    +0.000 C 
ATOM     35  O   UNL     1       8.022   6.612  18.661  0.00  0.00    +0.000 OA
BRANCH  34  36
ATOM     36  O   UNL     1       8.154   5.465  20.586  0.00  0.00    +0.000 OA
ATOM     37  H   UNL     1       7.952   4.559  20.909  0.00  0.00    +0.000 HD
ENDBRANCH  34  36
ENDBRANCH  33  34
ENDBRANCH  32  33
ENDBRANCH  31  32
ENDBRANCH  26  27
ENDBRANCH  25  26
ENDBRANCH  23  24
ENDBRANCH  22  23
ENDBRANCH   1  22
TORSDOF 11
ENDMDL
