MODEL 1
REMARK VINA RESULT:      -6.5      0.000      0.000
REMARK  Name = 
REMARK  10 active torsions:
REMARK  status: ('A' for Active; 'I' for Inactive)
REMARK    1  A    between atoms: C_1  and  N_2
REMARK    2  A    between atoms: N_2  and  C_3
REMARK    3  A    between atoms: N_2  and  C_4
REMARK    4  A    between atoms: C_4  and  C_5
REMARK    5  A    between atoms: C_5  and  C_6
REMARK    6  A    between atoms: C_6  and  N_7
REMARK    7  A    between atoms: N_7  and  C_8
REMARK    8  A    between atoms: C_8  and  C_9
REMARK    9  A    between atoms: N_15  and  C_16
REMARK   10  A    between atoms: N_23  and  C_24
REMARK                            x       y       z     vdW  Elec       q    Type
REMARK                         _______ _______ _______ _____ _____    ______ ____
ROOT
ATOM      1  C   UNL     1       1.890   8.163  19.117  0.00  0.00    +0.000 A 
ATOM      2  C   UNL     1       1.556   8.820  17.941  0.00  0.00    +0.000 A 
ATOM      3  C   UNL     1       0.675   9.895  18.005  0.00  0.00    +0.000 A 
ATOM      4  C   UNL     1       0.146  10.308  19.233  0.00  0.00    +0.000 A 
ATOM      5  C   UNL     1       0.551   9.589  20.389  0.00  0.00    +0.000 A 
ATOM      6  N   UNL     1       1.403   8.537  20.322  0.00  0.00    +0.000 NA
ATOM      7  N   UNL     1       0.037   9.992  21.643  0.00  0.00    +0.000 N 
ATOM      8  C   UNL     1       0.479   9.252  22.818  0.00  0.00    +0.000 C 
ATOM      9  C   UNL     1      -0.852  11.077  21.779  0.00  0.00    +0.000 A 
ATOM     10  C   UNL     1      -1.368  11.492  23.013  0.00  0.00    +0.000 A 
ATOM     11  C   UNL     1      -2.242  12.570  23.083  0.00  0.00    +0.000 A 
ATOM     12  C   UNL     1      -2.582  13.209  21.910  0.00  0.00    +0.000 A 
ATOM     13  N   UNL     1      -2.119  12.851  20.695  0.00  0.00    +0.000 NA
ATOM     14  C   UNL     1      -1.263  11.801  20.623  0.00  0.00    +0.000 A 
ATOM     15  N   UNL     1      -0.748  11.392  19.367  0.00  0.00    +0.000 N 
ATOM     16  C   UNL     1      -1.167  12.137  18.189  0.00  0.00    +0.000 C 
ENDROOT
BRANCH   1  17
ATOM     17  C   UNL     1       2.860   7.002  19.119  0.00  0.00    +0.000 C 
BRANCH  17  18
ATOM     18  N   UNL     1       2.241   5.687  19.317  0.00  0.00    +0.000 NA
ATOM     19  H   UNL     1       2.740   5.215  20.071  0.00  0.00    +0.000 HD
BRANCH  18  20
ATOM     20  C   UNL     1       2.318   4.852  18.113  0.00  0.00    +0.000 C 
BRANCH  20  21
ATOM     21  C   UNL     1       1.401   3.653  18.334  0.00  0.00    +0.000 C 
BRANCH  21  22
ATOM     22  C   UNL     1       2.138   2.496  19.012  0.00  0.00    +0.000 C 
BRANCH  22  24
ATOM     23  C   UNL     1       2.462   2.688  21.384  0.00  0.00    +0.000 C 
ATOM     24  N   UNL     1       3.061   2.942  20.073  0.00  0.00    +0.000 NA
ATOM     25  C   UNL     1       4.368   2.289  19.993  0.00  0.00    +0.000 C 
ENDBRANCH  22  24
ENDBRANCH  21  22
ENDBRANCH  20  21
ENDBRANCH  18  20
ENDBRANCH  17  18
ENDBRANCH   1  17
TORSDOF 6
ENDMDL
MODEL 2
REMARK VINA RESULT:      -6.4      1.068      1.433
REMARK  Name = 
REMARK  10 active torsions:
REMARK  status: ('A' for Active; 'I' for Inactive)
REMARK    1  A    between atoms: C_1  and  N_2
REMARK    2  A    between atoms: N_2  and  C_3
REMARK    3  A    between atoms: N_2  and  C_4
REMARK    4  A    between atoms: C_4  and  C_5
REMARK    5  A    between atoms: C_5  and  C_6
REMARK    6  A    between atoms: C_6  and  N_7
REMARK    7  A    between atoms: N_7  and  C_8
REMARK    8  A    between atoms: C_8  and  C_9
REMARK    9  A    between atoms: N_15  and  C_16
REMARK   10  A    between atoms: N_23  and  C_24
REMARK                            x       y       z     vdW  Elec       q    Type
REMARK                         _______ _______ _______ _____ _____    ______ ____
ROOT
ATOM      1  C   UNL     1       1.820   7.930  19.625  0.00  0.00    +0.000 A 
ATOM      2  C   UNL     1       1.884   8.649  18.441  0.00  0.00    +0.000 A 
ATOM      3  C   UNL     1       1.295   9.908  18.393  0.00  0.00    +0.000 A 
ATOM      4  C   UNL     1       0.660  10.440  19.521  0.00  0.00    +0.000 A 
ATOM      5  C   UNL     1       0.653   9.642  20.697  0.00  0.00    +0.000 A 
ATOM      6  N   UNL     1       1.220   8.413  20.737  0.00  0.00    +0.000 NA
ATOM      7  N   UNL     1       0.024  10.160  21.853  0.00  0.00    +0.000 N 
ATOM      8  C   UNL     1       0.044   9.334  23.053  0.00  0.00    +0.000 C 
ATOM      9  C   UNL     1      -0.584  11.431  21.874  0.00  0.00    +0.000 A 
ATOM     10  C   UNL     1      -1.207  11.961  23.012  0.00  0.00    +0.000 A 
ATOM     11  C   UNL     1      -1.790  13.222  22.971  0.00  0.00    +0.000 A 
ATOM     12  C   UNL     1      -1.738  13.925  21.786  0.00  0.00    +0.000 A 
ATOM     13  N   UNL     1      -1.154  13.464  20.661  0.00  0.00    +0.000 NA
ATOM     14  C   UNL     1      -0.582  12.234  20.698  0.00  0.00    +0.000 A 
ATOM     15  N   UNL     1       0.047  11.711  19.539  0.00  0.00    +0.000 N 
ATOM     16  C   UNL     1       0.051  12.536  18.341  0.00  0.00    +0.000 C 
ENDROOT
BRANCH   1  17
ATOM     17  C   UNL     1       2.462   6.565  19.751  0.00  0.00    +0.000 C 
BRANCH  17  18
ATOM     18  N   UNL     1       2.238   5.899  21.038  0.00  0.00    +0.000 NA
ATOM     19  H   UNL     1       2.985   6.182  21.672  0.00  0.00    +0.000 HD
BRANCH  18  20
ATOM     20  C   UNL     1       2.260   4.437  20.916  0.00  0.00    +0.000 C 
BRANCH  20  21
ATOM     21  C   UNL     1       1.049   4.034  20.080  0.00  0.00    +0.000 C 
BRANCH  21  22
ATOM     22  C   UNL     1       1.382   2.890  19.120  0.00  0.00    +0.000 C 
BRANCH  22  24
ATOM     23  C   UNL     1       3.324   1.635  18.470  0.00  0.00    +0.000 C 
ATOM     24  N   UNL     1       2.748   2.977  18.570  0.00  0.00    +0.000 NA
ATOM     25  C   UNL     1       2.786   3.629  17.261  0.00  0.00    +0.000 C 
ENDBRANCH  22  24
ENDBRANCH  21  22
ENDBRANCH  20  21
ENDBRANCH  18  20
ENDBRANCH  17  18
ENDBRANCH   1  17
TORSDOF 6
ENDMDL
MODEL 3
REMARK VINA RESULT:      -6.4      0.869      1.199
REMARK  Name = 
REMARK  10 active torsions:
REMARK  status: ('A' for Active; 'I' for Inactive)
REMARK    1  A    between atoms: C_1  and  N_2
REMARK    2  A    between atoms: N_2  and  C_3
REMARK    3  A    between atoms: N_2  and  C_4
REMARK    4  A    between atoms: C_4  and  C_5
REMARK    5  A    between atoms: C_5  and  C_6
REMARK    6  A    between atoms: C_6  and  N_7
REMARK    7  A    between atoms: N_7  and  C_8
REMARK    8  A    between atoms: C_8  and  C_9
REMARK    9  A    between atoms: N_15  and  C_16
REMARK   10  A    between atoms: N_23  and  C_24
REMARK                            x       y       z     vdW  Elec       q    Type
REMARK                         _______ _______ _______ _____ _____    ______ ____
ROOT
ATOM      1  C   UNL     1       1.945   8.014  19.276  0.00  0.00    +0.000 A 
ATOM      2  C   UNL     1       1.651   8.638  18.072  0.00  0.00    +0.000 A 
ATOM      3  C   UNL     1       0.801   9.739  18.083  0.00  0.00    +0.000 A 
ATOM      4  C   UNL     1       0.262  10.210  19.286  0.00  0.00    +0.000 A 
ATOM      5  C   UNL     1       0.626   9.520  20.474  0.00  0.00    +0.000 A 
ATOM      6  N   UNL     1       1.448   8.443  20.458  0.00  0.00    +0.000 NA
ATOM      7  N   UNL     1       0.102   9.981  21.703  0.00  0.00    +0.000 N 
ATOM      8  C   UNL     1       0.501   9.271  22.911  0.00  0.00    +0.000 C 
ATOM      9  C   UNL     1      -0.758  11.094  21.785  0.00  0.00    +0.000 A 
ATOM     10  C   UNL     1      -1.284  11.567  22.995  0.00  0.00    +0.000 A 
ATOM     11  C   UNL     1      -2.127  12.671  23.011  0.00  0.00    +0.000 A 
ATOM     12  C   UNL     1      -2.429  13.278  21.810  0.00  0.00    +0.000 A 
ATOM     13  N   UNL     1      -1.954  12.865  20.617  0.00  0.00    +0.000 NA
ATOM     14  C   UNL     1      -1.128  11.789  20.598  0.00  0.00    +0.000 A 
ATOM     15  N   UNL     1      -0.603  11.322  19.366  0.00  0.00    +0.000 N 
ATOM     16  C   UNL     1      -0.979  12.037  18.156  0.00  0.00    +0.000 C 
ENDROOT
BRANCH   1  17
ATOM     17  C   UNL     1       2.882   6.827  19.336  0.00  0.00    +0.000 C 
BRANCH  17  18
ATOM     18  N   UNL     1       2.214   5.523  19.411  0.00  0.00    +0.000 NA
ATOM     19  H   UNL     1       1.345   5.583  18.882  0.00  0.00    +0.000 HD
BRANCH  18  20
ATOM     20  C   UNL     1       1.893   5.145  20.792  0.00  0.00    +0.000 C 
BRANCH  20  21
ATOM     21  C   UNL     1       1.432   3.691  20.769  0.00  0.00    +0.000 C 
BRANCH  21  22
ATOM     22  C   UNL     1       2.545   2.755  20.289  0.00  0.00    +0.000 C 
BRANCH  22  24
ATOM     23  C   UNL     1       0.781   2.266  18.733  0.00  0.00    +0.000 C 
ATOM     24  N   UNL     1       2.176   1.992  19.082  0.00  0.00    +0.000 NA
ATOM     25  C   UNL     1       3.039   2.295  17.939  0.00  0.00    +0.000 C 
ENDBRANCH  22  24
ENDBRANCH  21  22
ENDBRANCH  20  21
ENDBRANCH  18  20
ENDBRANCH  17  18
ENDBRANCH   1  17
TORSDOF 6
ENDMDL
MODEL 4
REMARK VINA RESULT:      -6.3      0.816      1.127
REMARK  Name = 
REMARK  10 active torsions:
REMARK  status: ('A' for Active; 'I' for Inactive)
REMARK    1  A    between atoms: C_1  and  N_2
REMARK    2  A    between atoms: N_2  and  C_3
REMARK    3  A    between atoms: N_2  and  C_4
REMARK    4  A    between atoms: C_4  and  C_5
REMARK    5  A    between atoms: C_5  and  C_6
REMARK    6  A    between atoms: C_6  and  N_7
REMARK    7  A    between atoms: N_7  and  C_8
REMARK    8  A    between atoms: C_8  and  C_9
REMARK    9  A    between atoms: N_15  and  C_16
REMARK   10  A    between atoms: N_23  and  C_24
REMARK                            x       y       z     vdW  Elec       q    Type
REMARK                         _______ _______ _______ _____ _____    ______ ____
ROOT
ATOM      1  C   UNL     1       1.977   8.168  18.783  0.00  0.00    +0.000 A 
ATOM      2  C   UNL     1       1.578   8.896  17.671  0.00  0.00    +0.000 A 
ATOM      3  C   UNL     1       0.681   9.944  17.848  0.00  0.00    +0.000 A 
ATOM      4  C   UNL     1       0.199  10.261  19.123  0.00  0.00    +0.000 A 
ATOM      5  C   UNL     1       0.670   9.473  20.208  0.00  0.00    +0.000 A 
ATOM      6  N   UNL     1       1.538   8.448  20.031  0.00  0.00    +0.000 NA
ATOM      7  N   UNL     1       0.205   9.778  21.508  0.00  0.00    +0.000 N 
ATOM      8  C   UNL     1       0.713   8.970  22.608  0.00  0.00    +0.000 C 
ATOM      9  C   UNL     1      -0.698  10.831  21.757  0.00  0.00    +0.000 A 
ATOM     10  C   UNL     1      -1.166  11.149  23.039  0.00  0.00    +0.000 A 
ATOM     11  C   UNL     1      -2.057  12.200  23.221  0.00  0.00    +0.000 A 
ATOM     12  C   UNL     1      -2.462  12.910  22.110  0.00  0.00    +0.000 A 
ATOM     13  N   UNL     1      -2.047  12.646  20.855  0.00  0.00    +0.000 NA
ATOM     14  C   UNL     1      -1.175  11.622  20.673  0.00  0.00    +0.000 A 
ATOM     15  N   UNL     1      -0.709  11.312  19.370  0.00  0.00    +0.000 N 
ATOM     16  C   UNL     1      -1.195  12.127  18.267  0.00  0.00    +0.000 C 
ENDROOT
BRANCH   1  17
ATOM     17  C   UNL     1       2.969   7.032  18.662  0.00  0.00    +0.000 C 
BRANCH  17  18
ATOM     18  N   UNL     1       3.018   6.136  19.821  0.00  0.00    +0.000 NA
ATOM     19  H   UNL     1       3.203   6.702  20.649  0.00  0.00    +0.000 HD
BRANCH  18  20
ATOM     20  C   UNL     1       4.078   5.129  19.699  0.00  0.00    +0.000 C 
BRANCH  20  21
ATOM     21  C   UNL     1       3.505   3.961  18.904  0.00  0.00    +0.000 C 
BRANCH  21  22
ATOM     22  C   UNL     1       3.332   2.715  19.777  0.00  0.00    +0.000 C 
BRANCH  22  24
ATOM     23  C   UNL     1       1.458   2.881  21.271  0.00  0.00    +0.000 C 
ATOM     24  N   UNL     1       1.919   2.349  19.987  0.00  0.00    +0.000 NA
ATOM     25  C   UNL     1       1.048   2.828  18.913  0.00  0.00    +0.000 C 
ENDBRANCH  22  24
ENDBRANCH  21  22
ENDBRANCH  20  21
ENDBRANCH  18  20
ENDBRANCH  17  18
ENDBRANCH   1  17
TORSDOF 6
ENDMDL
MODEL 5
REMARK VINA RESULT:      -6.3      1.522      1.809
REMARK  Name = 
REMARK  10 active torsions:
REMARK  status: ('A' for Active; 'I' for Inactive)
REMARK    1  A    between atoms: C_1  and  N_2
REMARK    2  A    between atoms: N_2  and  C_3
REMARK    3  A    between atoms: N_2  and  C_4
REMARK    4  A    between atoms: C_4  and  C_5
REMARK    5  A    between atoms: C_5  and  C_6
REMARK    6  A    between atoms: C_6  and  N_7
REMARK    7  A    between atoms: N_7  and  C_8
REMARK    8  A    between atoms: C_8  and  C_9
REMARK    9  A    between atoms: N_15  and  C_16
REMARK   10  A    between atoms: N_23  and  C_24
REMARK                            x       y       z     vdW  Elec       q    Type
REMARK                         _______ _______ _______ _____ _____    ______ ____
ROOT
ATOM      1  C   UNL     1       1.901   8.094  19.177  0.00  0.00    +0.000 A 
ATOM      2  C   UNL     1       1.608   8.760  17.996  0.00  0.00    +0.000 A 
ATOM      3  C   UNL     1       0.766   9.865  18.044  0.00  0.00    +0.000 A 
ATOM      4  C   UNL     1       0.233  10.300  19.263  0.00  0.00    +0.000 A 
ATOM      5  C   UNL     1       0.594   9.569  20.427  0.00  0.00    +0.000 A 
ATOM      6  N   UNL     1       1.409   8.488  20.374  0.00  0.00    +0.000 NA
ATOM      7  N   UNL     1       0.076   9.993  21.672  0.00  0.00    +0.000 N 
ATOM      8  C   UNL     1       0.473   9.241  22.854  0.00  0.00    +0.000 C 
ATOM      9  C   UNL     1      -0.777  11.109  21.792  0.00  0.00    +0.000 A 
ATOM     10  C   UNL     1      -1.296  11.545  23.018  0.00  0.00    +0.000 A 
ATOM     11  C   UNL     1      -2.132  12.654  23.073  0.00  0.00    +0.000 A 
ATOM     12  C   UNL     1      -2.432  13.302  21.893  0.00  0.00    +0.000 A 
ATOM     13  N   UNL     1      -1.963  12.925  20.686  0.00  0.00    +0.000 NA
ATOM     14  C   UNL     1      -1.144  11.845  20.629  0.00  0.00    +0.000 A 
ATOM     15  N   UNL     1      -0.624  11.415  19.381  0.00  0.00    +0.000 N 
ATOM     16  C   UNL     1      -0.998  12.172  18.196  0.00  0.00    +0.000 C 
ENDROOT
BRANCH   1  17
ATOM     17  C   UNL     1       2.829   6.899  19.196  0.00  0.00    +0.000 C 
BRANCH  17  18
ATOM     18  N   UNL     1       2.795   6.078  17.982  0.00  0.00    +0.000 NA
ATOM     19  H   UNL     1       2.305   6.605  17.259  0.00  0.00    +0.000 HD
BRANCH  18  20
ATOM     20  C   UNL     1       2.089   4.809  18.192  0.00  0.00    +0.000 C 
BRANCH  20  21
ATOM     21  C   UNL     1       2.802   3.750  17.357  0.00  0.00    +0.000 C 
BRANCH  21  22
ATOM     22  C   UNL     1       4.241   3.534  17.831  0.00  0.00    +0.000 C 
BRANCH  22  24
ATOM     23  C   UNL     1       6.327   4.699  18.081  0.00  0.00    +0.000 C 
ATOM     24  N   UNL     1       5.207   4.436  17.176  0.00  0.00    +0.000 NA
ATOM     25  C   UNL     1       5.711   3.898  15.912  0.00  0.00    +0.000 C 
ENDBRANCH  22  24
ENDBRANCH  21  22
ENDBRANCH  20  21
ENDBRANCH  18  20
ENDBRANCH  17  18
ENDBRANCH   1  17
TORSDOF 6
ENDMDL
MODEL 6
REMARK VINA RESULT:      -6.3      2.201      2.726
REMARK  Name = 
REMARK  10 active torsions:
REMARK  status: ('A' for Active; 'I' for Inactive)
REMARK    1  A    between atoms: C_1  and  N_2
REMARK    2  A    between atoms: N_2  and  C_3
REMARK    3  A    between atoms: N_2  and  C_4
REMARK    4  A    between atoms: C_4  and  C_5
REMARK    5  A    between atoms: C_5  and  C_6
REMARK    6  A    between atoms: C_6  and  N_7
REMARK    7  A    between atoms: N_7  and  C_8
REMARK    8  A    between atoms: C_8  and  C_9
REMARK    9  A    between atoms: N_15  and  C_16
REMARK   10  A    between atoms: N_23  and  C_24
REMARK                            x       y       z     vdW  Elec       q    Type
REMARK                         _______ _______ _______ _____ _____    ______ ____
ROOT
ATOM      1  C   UNL     1       1.810   8.197  19.213  0.00  0.00    +0.000 A 
ATOM      2  C   UNL     1       1.540   8.882  18.037  0.00  0.00    +0.000 A 
ATOM      3  C   UNL     1       0.704   9.992  18.088  0.00  0.00    +0.000 A 
ATOM      4  C   UNL     1       0.155  10.413  19.304  0.00  0.00    +0.000 A 
ATOM      5  C   UNL     1       0.494   9.663  20.463  0.00  0.00    +0.000 A 
ATOM      6  N   UNL     1       1.303   8.577  20.408  0.00  0.00    +0.000 NA
ATOM      7  N   UNL     1      -0.041  10.072  21.706  0.00  0.00    +0.000 N 
ATOM      8  C   UNL     1       0.333   9.301  22.884  0.00  0.00    +0.000 C 
ATOM      9  C   UNL     1      -0.888  11.192  21.829  0.00  0.00    +0.000 A 
ATOM     10  C   UNL     1      -1.425  11.614  23.053  0.00  0.00    +0.000 A 
ATOM     11  C   UNL     1      -2.254  12.727  23.111  0.00  0.00    +0.000 A 
ATOM     12  C   UNL     1      -2.531  13.393  21.936  0.00  0.00    +0.000 A 
ATOM     13  N   UNL     1      -2.046  13.031  20.731  0.00  0.00    +0.000 NA
ATOM     14  C   UNL     1      -1.233  11.946  20.671  0.00  0.00    +0.000 A 
ATOM     15  N   UNL     1      -0.697  11.531  19.426  0.00  0.00    +0.000 N 
ATOM     16  C   UNL     1      -1.048  12.307  18.246  0.00  0.00    +0.000 C 
ENDROOT
BRANCH   1  17
ATOM     17  C   UNL     1       2.731   6.996  19.229  0.00  0.00    +0.000 C 
BRANCH  17  18
ATOM     18  N   UNL     1       2.848   6.297  17.946  0.00  0.00    +0.000 NA
ATOM     19  H   UNL     1       2.044   5.678  17.850  0.00  0.00    +0.000 HD
BRANCH  18  20
ATOM     20  C   UNL     1       4.070   5.490  17.865  0.00  0.00    +0.000 C 
BRANCH  20  21
ATOM     21  C   UNL     1       4.837   5.949  16.629  0.00  0.00    +0.000 C 
BRANCH  21  22
ATOM     22  C   UNL     1       6.241   6.442  16.987  0.00  0.00    +0.000 C 
BRANCH  22  24
ATOM     23  C   UNL     1       7.649   4.617  17.661  0.00  0.00    +0.000 C 
ATOM     24  N   UNL     1       7.305   5.515  16.558  0.00  0.00    +0.000 NA
ATOM     25  C   UNL     1       6.927   4.730  15.382  0.00  0.00    +0.000 C 
ENDBRANCH  22  24
ENDBRANCH  21  22
ENDBRANCH  20  21
ENDBRANCH  18  20
ENDBRANCH  17  18
ENDBRANCH   1  17
TORSDOF 6
ENDMDL
MODEL 7
REMARK VINA RESULT:      -6.2      1.619      1.998
REMARK  Name = 
REMARK  10 active torsions:
REMARK  status: ('A' for Active; 'I' for Inactive)
REMARK    1  A    between atoms: C_1  and  N_2
REMARK    2  A    between atoms: N_2  and  C_3
REMARK    3  A    between atoms: N_2  and  C_4
REMARK    4  A    between atoms: C_4  and  C_5
REMARK    5  A    between atoms: C_5  and  C_6
REMARK    6  A    between atoms: C_6  and  N_7
REMARK    7  A    between atoms: N_7  and  C_8
REMARK    8  A    between atoms: C_8  and  C_9
REMARK    9  A    between atoms: N_15  and  C_16
REMARK   10  A    between atoms: N_23  and  C_24
REMARK                            x       y       z     vdW  Elec       q    Type
REMARK                         _______ _______ _______ _____ _____    ______ ____
ROOT
ATOM      1  C   UNL     1       1.952   8.053  19.215  0.00  0.00    +0.000 A 
ATOM      2  C   UNL     1       1.634   8.681  18.019  0.00  0.00    +0.000 A 
ATOM      3  C   UNL     1       0.755   9.759  18.046  0.00  0.00    +0.000 A 
ATOM      4  C   UNL     1       0.212  10.204  19.257  0.00  0.00    +0.000 A 
ATOM      5  C   UNL     1       0.602   9.512  20.435  0.00  0.00    +0.000 A 
ATOM      6  N   UNL     1       1.451   8.457  20.404  0.00  0.00    +0.000 NA
ATOM      7  N   UNL     1       0.073   9.946  21.673  0.00  0.00    +0.000 N 
ATOM      8  C   UNL     1       0.499   9.235  22.871  0.00  0.00    +0.000 C 
ATOM      9  C   UNL     1      -0.815  11.036  21.771  0.00  0.00    +0.000 A 
ATOM     10  C   UNL     1      -1.345  11.483  22.989  0.00  0.00    +0.000 A 
ATOM     11  C   UNL     1      -2.217  12.564  23.022  0.00  0.00    +0.000 A 
ATOM     12  C   UNL     1      -2.541  13.175  21.829  0.00  0.00    +0.000 A 
ATOM     13  N   UNL     1      -2.064  12.786  20.629  0.00  0.00    +0.000 NA
ATOM     14  C   UNL     1      -1.210  11.733  20.593  0.00  0.00    +0.000 A 
ATOM     15  N   UNL     1      -0.681  11.292  19.354  0.00  0.00    +0.000 N 
ATOM     16  C   UNL     1      -1.083  12.009  18.153  0.00  0.00    +0.000 C 
ENDROOT
BRANCH   1  17
ATOM     17  C   UNL     1       2.919   6.890  19.257  0.00  0.00    +0.000 C 
BRANCH  17  18
ATOM     18  N   UNL     1       2.296   5.569  19.123  0.00  0.00    +0.000 NA
ATOM     19  H   UNL     1       2.635   4.983  19.885  0.00  0.00    +0.000 HD
BRANCH  18  20
ATOM     20  C   UNL     1       2.636   4.923  17.851  0.00  0.00    +0.000 C 
BRANCH  20  21
ATOM     21  C   UNL     1       4.118   5.180  17.593  0.00  0.00    +0.000 C 
BRANCH  21  22
ATOM     22  C   UNL     1       4.975   3.969  17.970  0.00  0.00    +0.000 C 
BRANCH  22  24
ATOM     23  C   UNL     1       7.135   4.650  17.170  0.00  0.00    +0.000 C 
ATOM     24  N   UNL     1       6.348   4.334  18.363  0.00  0.00    +0.000 NA
ATOM     25  C   UNL     1       6.386   5.464  19.293  0.00  0.00    +0.000 C 
ENDBRANCH  22  24
ENDBRANCH  21  22
ENDBRANCH  20  21
ENDBRANCH  18  20
ENDBRANCH  17  18
ENDBRANCH   1  17
TORSDOF 6
ENDMDL
MODEL 8
REMARK VINA RESULT:      -6.2      1.190      1.556
REMARK  Name = 
REMARK  10 active torsions:
REMARK  status: ('A' for Active; 'I' for Inactive)
REMARK    1  A    between atoms: C_1  and  N_2
REMARK    2  A    between atoms: N_2  and  C_3
REMARK    3  A    between atoms: N_2  and  C_4
REMARK    4  A    between atoms: C_4  and  C_5
REMARK    5  A    between atoms: C_5  and  C_6
REMARK    6  A    between atoms: C_6  and  N_7
REMARK    7  A    between atoms: N_7  and  C_8
REMARK    8  A    between atoms: C_8  and  C_9
REMARK    9  A    between atoms: N_15  and  C_16
REMARK   10  A    between atoms: N_23  and  C_24
REMARK                            x       y       z     vdW  Elec       q    Type
REMARK                         _______ _______ _______ _____ _____    ______ ____
ROOT
ATOM      1  C   UNL     1       2.066   7.790  18.891  0.00  0.00    +0.000 A 
ATOM      2  C   UNL     1       2.325   8.759  17.932  0.00  0.00    +0.000 A 
ATOM      3  C   UNL     1       1.847  10.048  18.140  0.00  0.00    +0.000 A 
ATOM      4  C   UNL     1       1.127  10.361  19.298  0.00  0.00    +0.000 A 
ATOM      5  C   UNL     1       0.917   9.312  20.235  0.00  0.00    +0.000 A 
ATOM      6  N   UNL     1       1.378   8.056  20.024  0.00  0.00    +0.000 NA
ATOM      7  N   UNL     1       0.199   9.604  21.417  0.00  0.00    +0.000 N 
ATOM      8  C   UNL     1       0.011   8.520  22.372  0.00  0.00    +0.000 C 
ATOM      9  C   UNL     1      -0.305  10.891  21.694  0.00  0.00    +0.000 A 
ATOM     10  C   UNL     1      -1.016  11.198  22.862  0.00  0.00    +0.000 A 
ATOM     11  C   UNL     1      -1.488  12.487  23.078  0.00  0.00    +0.000 A 
ATOM     12  C   UNL     1      -1.240  13.441  22.114  0.00  0.00    +0.000 A 
ATOM     13  N   UNL     1      -0.566  13.201  20.972  0.00  0.00    +0.000 NA
ATOM     14  C   UNL     1      -0.100  11.945  20.758  0.00  0.00    +0.000 A 
ATOM     15  N   UNL     1       0.618  11.648  19.572  0.00  0.00    +0.000 N 
ATOM     16  C   UNL     1       0.830  12.729  18.621  0.00  0.00    +0.000 C 
ENDROOT
BRANCH   1  17
ATOM     17  C   UNL     1       2.578   6.374  18.735  0.00  0.00    +0.000 C 
BRANCH  17  18
ATOM     18  N   UNL     1       3.367   5.881  19.869  0.00  0.00    +0.000 NA
ATOM     19  H   UNL     1       3.598   6.677  20.462  0.00  0.00    +0.000 HD
BRANCH  18  20
ATOM     20  C   UNL     1       4.615   5.242  19.438  0.00  0.00    +0.000 C 
BRANCH  20  21
ATOM     21  C   UNL     1       4.280   3.805  19.053  0.00  0.00    +0.000 C 
BRANCH  21  22
ATOM     22  C   UNL     1       3.597   3.059  20.202  0.00  0.00    +0.000 C 
BRANCH  22  24
ATOM     23  C   UNL     1       1.802   1.812  19.206  0.00  0.00    +0.000 C 
ATOM     24  N   UNL     1       2.133   2.968  20.041  0.00  0.00    +0.000 NA
ATOM     25  C   UNL     1       1.432   2.869  21.321  0.00  0.00    +0.000 C 
ENDBRANCH  22  24
ENDBRANCH  21  22
ENDBRANCH  20  21
ENDBRANCH  18  20
ENDBRANCH  17  18
ENDBRANCH   1  17
TORSDOF 6
ENDMDL
MODEL 9
REMARK VINA RESULT:      -6.1      1.008      1.327
REMARK  Name = 
REMARK  10 active torsions:
REMARK  status: ('A' for Active; 'I' for Inactive)
REMARK    1  A    between atoms: C_1  and  N_2
REMARK    2  A    between atoms: N_2  and  C_3
REMARK    3  A    between atoms: N_2  and  C_4
REMARK    4  A    between atoms: C_4  and  C_5
REMARK    5  A    between atoms: C_5  and  C_6
REMARK    6  A    between atoms: C_6  and  N_7
REMARK    7  A    between atoms: N_7  and  C_8
REMARK    8  A    between atoms: C_8  and  C_9
REMARK    9  A    between atoms: N_15  and  C_16
REMARK   10  A    between atoms: N_23  and  C_24
REMARK                            x       y       z     vdW  Elec       q    Type
REMARK                         _______ _______ _______ _____ _____    ______ ____
ROOT
ATOM      1  C   UNL     1       1.747   8.437  19.075  0.00  0.00    +0.000 A 
ATOM      2  C   UNL     1       1.552   9.234  17.956  0.00  0.00    +0.000 A 
ATOM      3  C   UNL     1       0.759  10.370  18.077  0.00  0.00    +0.000 A 
ATOM      4  C   UNL     1       0.177  10.704  19.305  0.00  0.00    +0.000 A 
ATOM      5  C   UNL     1       0.438   9.839  20.402  0.00  0.00    +0.000 A 
ATOM      6  N   UNL     1       1.205   8.730  20.279  0.00  0.00    +0.000 NA
ATOM      7  N   UNL     1      -0.132  10.159  21.656  0.00  0.00    +0.000 N 
ATOM      8  C   UNL     1       0.163   9.270  22.773  0.00  0.00    +0.000 C 
ATOM      9  C   UNL     1      -0.939  11.298  21.849  0.00  0.00    +0.000 A 
ATOM     10  C   UNL     1      -1.508  11.632  23.085  0.00  0.00    +0.000 A 
ATOM     11  C   UNL     1      -2.296  12.770  23.212  0.00  0.00    +0.000 A 
ATOM     12  C   UNL     1      -2.498  13.550  22.093  0.00  0.00    +0.000 A 
ATOM     13  N   UNL     1      -1.977  13.276  20.879  0.00  0.00    +0.000 NA
ATOM     14  C   UNL     1      -1.206  12.167  20.752  0.00  0.00    +0.000 A 
ATOM     15  N   UNL     1      -0.635  11.842  19.495  0.00  0.00    +0.000 N 
ATOM     16  C   UNL     1      -0.906  12.735  18.378  0.00  0.00    +0.000 C 
ENDROOT
BRANCH   1  17
ATOM     17  C   UNL     1       2.618   7.201  19.017  0.00  0.00    +0.000 C 
BRANCH  17  18
ATOM     18  N   UNL     1       2.742   6.479  20.286  0.00  0.00    +0.000 NA
ATOM     19  H   UNL     1       3.607   6.778  20.736  0.00  0.00    +0.000 HD
BRANCH  18  20
ATOM     20  C   UNL     1       2.797   5.025  20.093  0.00  0.00    +0.000 C 
BRANCH  20  21
ATOM     21  C   UNL     1       2.051   4.711  18.801  0.00  0.00    +0.000 C 
BRANCH  21  22
ATOM     22  C   UNL     1       2.868   3.794  17.887  0.00  0.00    +0.000 C 
BRANCH  22  24
ATOM     23  C   UNL     1       3.431   1.528  18.450  0.00  0.00    +0.000 C 
ATOM     24  N   UNL     1       2.393   2.398  17.896  0.00  0.00    +0.000 NA
ATOM     25  C   UNL     1       1.153   2.231  18.655  0.00  0.00    +0.000 C 
ENDBRANCH  22  24
ENDBRANCH  21  22
ENDBRANCH  20  21
ENDBRANCH  18  20
ENDBRANCH  17  18
ENDBRANCH   1  17
TORSDOF 6
ENDMDL
