MODEL 1
REMARK VINA RESULT:      -7.2      0.000      0.000
REMARK  Name = 
REMARK  5 active torsions:
REMARK  status: ('A' for Active; 'I' for Inactive)
REMARK    1  A    between atoms: C_2  and  C_3
REMARK    2  A    between atoms: C_2  and  C_13
REMARK    3  A    between atoms: C_4  and  C_5
REMARK    4  A    between atoms: C_13  and  C_14
REMARK    5  A    between atoms: C_14  and  N_15
REMARK                            x       y       z     vdW  Elec       q    Type
REMARK                         _______ _______ _______ _____ _____    ______ ____
ROOT
ATOM      1  O   UNL     1       6.950   7.115  16.893  0.00  0.00    +0.000 OA
ATOM      2  C   UNL     1       7.614   6.938  17.915  0.00  0.00    +0.000 C 
ENDROOT
BRANCH   2   3
ATOM      3  C   UNL     1       8.329   8.111  18.476  0.00  0.00    +0.000 C 
ATOM      4  C   UNL     1       8.323   9.331  17.939  0.00  0.00    +0.000 C 
BRANCH   4   5
ATOM      5  C   UNL     1       9.054  10.435  18.548  0.00  0.00    +0.000 A 
ATOM      6  C   UNL     1       9.318  10.436  19.920  0.00  0.00    +0.000 A 
ATOM      7  C   UNL     1       9.993  11.512  20.505  0.00  0.00    +0.000 A 
ATOM      8  C   UNL     1      10.410  12.590  19.718  0.00  0.00    +0.000 A 
ATOM      9 CL   UNL     1      11.221  13.895  20.507  0.00  0.00    +0.000 Cl
ATOM     10  C   UNL     1      10.156  12.588  18.341  0.00  0.00    +0.000 A 
ATOM     11 CL   UNL     1      10.639  13.884  17.305  0.00  0.00    +0.000 Cl
ATOM     12  C   UNL     1       9.480  11.508  17.763  0.00  0.00    +0.000 A 
ENDBRANCH   4   5
ENDBRANCH   2   3
BRANCH   2  13
ATOM     13  C   UNL     1       7.674   5.586  18.614  0.00  0.00    +0.000 C 
BRANCH  13  14
ATOM     14  C   UNL     1       6.516   4.719  18.111  0.00  0.00    +0.000 C 
BRANCH  14  15
ATOM     15  N   UNL     1       5.465   4.410  19.105  0.00  0.00    +0.000 NA
ATOM     16  C   UNL     1       4.621   3.299  18.587  0.00  0.00    +0.000 C 
ATOM     17  C   UNL     1       3.751   3.702  17.379  0.00  0.00    +0.000 C 
ATOM     18  O   UNL     1       2.917   4.826  17.684  0.00  0.00    +0.000 OA
ATOM     19  C   UNL     1       3.684   5.938  18.166  0.00  0.00    +0.000 C 
ATOM     20  C   UNL     1       4.548   5.542  19.374  0.00  0.00    +0.000 C 
ENDBRANCH  14  15
ENDBRANCH  13  14
ENDBRANCH   2  13
TORSDOF 5
ENDMDL
MODEL 2
REMARK VINA RESULT:      -7.2      0.941      1.075
REMARK  Name = 
REMARK  5 active torsions:
REMARK  status: ('A' for Active; 'I' for Inactive)
REMARK    1  A    between atoms: C_2  and  C_3
REMARK    2  A    between atoms: C_2  and  C_13
REMARK    3  A    between atoms: C_4  and  C_5
REMARK    4  A    between atoms: C_13  and  C_14
REMARK    5  A    between atoms: C_14  and  N_15
REMARK                            x       y       z     vdW  Elec       q    Type
REMARK                         _______ _______ _______ _____ _____    ______ ____
ROOT
ATOM      1  O   UNL     1       7.190   7.129  16.560  0.00  0.00    +0.000 OA
ATOM      2  C   UNL     1       7.660   7.341  17.678  0.00  0.00    +0.000 C 
ENDROOT
BRANCH   2   3
ATOM      3  C   UNL     1       8.170   8.707  17.956  0.00  0.00    +0.000 C 
ATOM      4  C   UNL     1       8.946   9.032  18.990  0.00  0.00    +0.000 C 
BRANCH   4   5
ATOM      5  C   UNL     1       9.405  10.399  19.198  0.00  0.00    +0.000 A 
ATOM      6  C   UNL     1       9.366  10.971  20.473  0.00  0.00    +0.000 A 
ATOM      7  C   UNL     1       9.780  12.293  20.662  0.00  0.00    +0.000 A 
ATOM      8  C   UNL     1      10.236  13.048  19.577  0.00  0.00    +0.000 A 
ATOM      9 CL   UNL     1      10.712  14.681  19.879  0.00  0.00    +0.000 Cl
ATOM     10  C   UNL     1      10.285  12.476  18.301  0.00  0.00    +0.000 A 
ATOM     11 CL   UNL     1      10.836  13.346  16.913  0.00  0.00    +0.000 Cl
ATOM     12  C   UNL     1       9.871  11.152  18.118  0.00  0.00    +0.000 A 
ENDBRANCH   4   5
ENDBRANCH   2   3
BRANCH   2  13
ATOM     13  C   UNL     1       7.686   6.269  18.758  0.00  0.00    +0.000 C 
BRANCH  13  14
ATOM     14  C   UNL     1       6.262   5.751  18.974  0.00  0.00    +0.000 C 
BRANCH  14  15
ATOM     15  N   UNL     1       6.043   4.321  18.667  0.00  0.00    +0.000 NA
ATOM     16  C   UNL     1       5.850   4.163  17.200  0.00  0.00    +0.000 C 
ATOM     17  C   UNL     1       4.523   4.763  16.689  0.00  0.00    +0.000 C 
ATOM     18  O   UNL     1       3.396   4.206  17.377  0.00  0.00    +0.000 OA
ATOM     19  C   UNL     1       3.519   4.353  18.798  0.00  0.00    +0.000 C 
ATOM     20  C   UNL     1       4.837   3.751  19.313  0.00  0.00    +0.000 C 
ENDBRANCH  14  15
ENDBRANCH  13  14
ENDBRANCH   2  13
TORSDOF 5
ENDMDL
MODEL 3
REMARK VINA RESULT:      -7.0      0.936      1.322
REMARK  Name = 
REMARK  5 active torsions:
REMARK  status: ('A' for Active; 'I' for Inactive)
REMARK    1  A    between atoms: C_2  and  C_3
REMARK    2  A    between atoms: C_2  and  C_13
REMARK    3  A    between atoms: C_4  and  C_5
REMARK    4  A    between atoms: C_13  and  C_14
REMARK    5  A    between atoms: C_14  and  N_15
REMARK                            x       y       z     vdW  Elec       q    Type
REMARK                         _______ _______ _______ _____ _____    ______ ____
ROOT
ATOM      1  O   UNL     1       7.112   7.325  16.452  0.00  0.00    +0.000 OA
ATOM      2  C   UNL     1       7.613   7.490  17.565  0.00  0.00    +0.000 C 
ENDROOT
BRANCH   2   3
ATOM      3  C   UNL     1       8.165   8.833  17.873  0.00  0.00    +0.000 C 
ATOM      4  C   UNL     1       8.917   9.119  18.936  0.00  0.00    +0.000 C 
BRANCH   4   5
ATOM      5  C   UNL     1       9.421  10.466  19.173  0.00  0.00    +0.000 A 
ATOM      6  C   UNL     1       9.400  11.012  20.459  0.00  0.00    +0.000 A 
ATOM      7  C   UNL     1       9.856  12.315  20.676  0.00  0.00    +0.000 A 
ATOM      8  C   UNL     1      10.339  13.077  19.607  0.00  0.00    +0.000 A 
ATOM      9 CL   UNL     1      10.869  14.687  19.942  0.00  0.00    +0.000 Cl
ATOM     10  C   UNL     1      10.370  12.530  18.319  0.00  0.00    +0.000 A 
ATOM     11 CL   UNL     1      10.952  13.409  16.950  0.00  0.00    +0.000 Cl
ATOM     12  C   UNL     1       9.913  11.224  18.109  0.00  0.00    +0.000 A 
ENDBRANCH   4   5
ENDBRANCH   2   3
BRANCH   2  13
ATOM     13  C   UNL     1       7.636   6.383  18.611  0.00  0.00    +0.000 C 
BRANCH  13  14
ATOM     14  C   UNL     1       6.661   5.282  18.185  0.00  0.00    +0.000 C 
BRANCH  14  15
ATOM     15  N   UNL     1       5.224   5.615  18.300  0.00  0.00    +0.000 NA
ATOM     16  C   UNL     1       4.664   4.933  19.499  0.00  0.00    +0.000 C 
ATOM     17  C   UNL     1       4.583   3.400  19.350  0.00  0.00    +0.000 C 
ATOM     18  O   UNL     1       3.824   3.023  18.194  0.00  0.00    +0.000 OA
ATOM     19  C   UNL     1       4.338   3.634  17.003  0.00  0.00    +0.000 C 
ATOM     20  C   UNL     1       4.415   5.164  17.144  0.00  0.00    +0.000 C 
ENDBRANCH  14  15
ENDBRANCH  13  14
ENDBRANCH   2  13
TORSDOF 5
ENDMDL
MODEL 4
REMARK VINA RESULT:      -6.9      0.975      1.502
REMARK  Name = 
REMARK  5 active torsions:
REMARK  status: ('A' for Active; 'I' for Inactive)
REMARK    1  A    between atoms: C_2  and  C_3
REMARK    2  A    between atoms: C_2  and  C_13
REMARK    3  A    between atoms: C_4  and  C_5
REMARK    4  A    between atoms: C_13  and  C_14
REMARK    5  A    between atoms: C_14  and  N_15
REMARK                            x       y       z     vdW  Elec       q    Type
REMARK                         _______ _______ _______ _____ _____    ______ ____
ROOT
ATOM      1  O   UNL     1       6.606   7.427  16.547  0.00  0.00    +0.000 OA
ATOM      2  C   UNL     1       7.377   7.461  17.507  0.00  0.00    +0.000 C 
ENDROOT
BRANCH   2   3
ATOM      3  C   UNL     1       8.012   8.763  17.827  0.00  0.00    +0.000 C 
ATOM      4  C   UNL     1       8.779   8.992  18.893  0.00  0.00    +0.000 C 
BRANCH   4   5
ATOM      5  C   UNL     1       9.367  10.302  19.142  0.00  0.00    +0.000 A 
ATOM      6  C   UNL     1       9.457  10.801  20.444  0.00  0.00    +0.000 A 
ATOM      7  C   UNL     1       9.994  12.071  20.674  0.00  0.00    +0.000 A 
ATOM      8  C   UNL     1      10.446  12.846  19.602  0.00  0.00    +0.000 A 
ATOM      9 CL   UNL     1      11.080  14.414  19.956  0.00  0.00    +0.000 Cl
ATOM     10  C   UNL     1      10.366  12.347  18.297  0.00  0.00    +0.000 A 
ATOM     11 CL   UNL     1      10.904  13.246  16.923  0.00  0.00    +0.000 Cl
ATOM     12  C   UNL     1       9.828  11.075  18.074  0.00  0.00    +0.000 A 
ENDBRANCH   4   5
ENDBRANCH   2   3
BRANCH   2  13
ATOM     13  C   UNL     1       7.644   6.235  18.369  0.00  0.00    +0.000 C 
BRANCH  13  14
ATOM     14  C   UNL     1       6.326   5.774  18.995  0.00  0.00    +0.000 C 
BRANCH  14  15
ATOM     15  N   UNL     1       5.287   5.318  18.046  0.00  0.00    +0.000 NA
ATOM     16  C   UNL     1       3.994   5.967  18.393  0.00  0.00    +0.000 C 
ATOM     17  C   UNL     1       3.394   5.466  19.723  0.00  0.00    +0.000 C 
ATOM     18  O   UNL     1       3.222   4.043  19.718  0.00  0.00    +0.000 OA
ATOM     19  C   UNL     1       4.447   3.363  19.412  0.00  0.00    +0.000 C 
ATOM     20  C   UNL     1       5.046   3.856  18.084  0.00  0.00    +0.000 C 
ENDBRANCH  14  15
ENDBRANCH  13  14
ENDBRANCH   2  13
TORSDOF 5
ENDMDL
MODEL 5
REMARK VINA RESULT:      -6.9      5.295      7.152
REMARK  Name = 
REMARK  5 active torsions:
REMARK  status: ('A' for Active; 'I' for Inactive)
REMARK    1  A    between atoms: C_2  and  C_3
REMARK    2  A    between atoms: C_2  and  C_13
REMARK    3  A    between atoms: C_4  and  C_5
REMARK    4  A    between atoms: C_13  and  C_14
REMARK    5  A    between atoms: C_14  and  N_15
REMARK                            x       y       z     vdW  Elec       q    Type
REMARK                         _______ _______ _______ _____ _____    ______ ____
ROOT
ATOM      1  O   UNL     1       1.907   3.157  17.436  0.00  0.00    +0.000 OA
ATOM      2  C   UNL     1       2.701   4.010  17.833  0.00  0.00    +0.000 C 
ENDROOT
BRANCH   2   3
ATOM      3  C   UNL     1       2.173   5.378  18.065  0.00  0.00    +0.000 C 
ATOM      4  C   UNL     1       2.618   6.213  19.005  0.00  0.00    +0.000 C 
BRANCH   4   5
ATOM      5  C   UNL     1       2.046   7.543  19.174  0.00  0.00    +0.000 A 
ATOM      6  C   UNL     1       1.971   8.422  18.091  0.00  0.00    +0.000 A 
ATOM      7  C   UNL     1       1.450   9.708  18.266  0.00  0.00    +0.000 A 
ATOM      8  C   UNL     1       0.999  10.117  19.524  0.00  0.00    +0.000 A 
ATOM      9 CL   UNL     1       0.386  11.726  19.674  0.00  0.00    +0.000 Cl
ATOM     10  C   UNL     1       1.064   9.236  20.609  0.00  0.00    +0.000 A 
ATOM     11 CL   UNL     1       0.528   9.671  22.194  0.00  0.00    +0.000 Cl
ATOM     12  C   UNL     1       1.586   7.951  20.428  0.00  0.00    +0.000 A 
ENDBRANCH   4   5
ENDBRANCH   2   3
BRANCH   2  13
ATOM     13  C   UNL     1       4.159   3.681  18.121  0.00  0.00    +0.000 C 
BRANCH  13  14
ATOM     14  C   UNL     1       4.957   3.794  16.820  0.00  0.00    +0.000 C 
BRANCH  14  15
ATOM     15  N   UNL     1       4.887   5.103  16.133  0.00  0.00    +0.000 NA
ATOM     16  C   UNL     1       5.518   4.980  14.790  0.00  0.00    +0.000 C 
ATOM     17  C   UNL     1       7.046   4.778  14.847  0.00  0.00    +0.000 C 
ATOM     18  O   UNL     1       7.689   5.831  15.577  0.00  0.00    +0.000 OA
ATOM     19  C   UNL     1       7.134   5.977  16.892  0.00  0.00    +0.000 C 
ATOM     20  C   UNL     1       5.612   6.185  16.839  0.00  0.00    +0.000 C 
ENDBRANCH  14  15
ENDBRANCH  13  14
ENDBRANCH   2  13
TORSDOF 5
ENDMDL
MODEL 6
REMARK VINA RESULT:      -6.8      1.035      1.959
REMARK  Name = 
REMARK  5 active torsions:
REMARK  status: ('A' for Active; 'I' for Inactive)
REMARK    1  A    between atoms: C_2  and  C_3
REMARK    2  A    between atoms: C_2  and  C_13
REMARK    3  A    between atoms: C_4  and  C_5
REMARK    4  A    between atoms: C_13  and  C_14
REMARK    5  A    between atoms: C_14  and  N_15
REMARK                            x       y       z     vdW  Elec       q    Type
REMARK                         _______ _______ _______ _____ _____    ______ ____
ROOT
ATOM      1  O   UNL     1       6.888   7.207  16.516  0.00  0.00    +0.000 OA
ATOM      2  C   UNL     1       7.491   7.394  17.573  0.00  0.00    +0.000 C 
ENDROOT
BRANCH   2   3
ATOM      3  C   UNL     1       8.042   8.751  17.814  0.00  0.00    +0.000 C 
ATOM      4  C   UNL     1       8.838   9.077  18.832  0.00  0.00    +0.000 C 
BRANCH   4   5
ATOM      5  C   UNL     1       9.338  10.436  19.004  0.00  0.00    +0.000 A 
ATOM      6  C   UNL     1       9.908  11.120  17.927  0.00  0.00    +0.000 A 
ATOM      7  C   UNL     1      10.414  12.411  18.104  0.00  0.00    +0.000 A 
ATOM      8  C   UNL     1      10.349  13.024  19.358  0.00  0.00    +0.000 A 
ATOM      9 CL   UNL     1      11.010  14.613  19.511  0.00  0.00    +0.000 Cl
ATOM     10  C   UNL     1       9.769  12.346  20.437  0.00  0.00    +0.000 A 
ATOM     11 CL   UNL     1       9.653  13.039  22.016  0.00  0.00    +0.000 Cl
ATOM     12  C   UNL     1       9.264  11.054  20.253  0.00  0.00    +0.000 A 
ENDBRANCH   4   5
ENDBRANCH   2   3
BRANCH   2  13
ATOM     13  C   UNL     1       7.637   6.300  18.622  0.00  0.00    +0.000 C 
BRANCH  13  14
ATOM     14  C   UNL     1       6.626   5.191  18.322  0.00  0.00    +0.000 C 
BRANCH  14  15
ATOM     15  N   UNL     1       5.201   5.567  18.450  0.00  0.00    +0.000 NA
ATOM     16  C   UNL     1       4.602   4.817  19.588  0.00  0.00    +0.000 C 
ATOM     17  C   UNL     1       4.467   3.304  19.322  0.00  0.00    +0.000 C 
ATOM     18  O   UNL     1       3.708   3.045  18.134  0.00  0.00    +0.000 OA
ATOM     19  C   UNL     1       4.258   3.726  16.997  0.00  0.00    +0.000 C 
ATOM     20  C   UNL     1       4.389   5.236  17.256  0.00  0.00    +0.000 C 
ENDBRANCH  14  15
ENDBRANCH  13  14
ENDBRANCH   2  13
TORSDOF 5
ENDMDL
MODEL 7
REMARK VINA RESULT:      -6.8      4.471      6.928
REMARK  Name = 
REMARK  5 active torsions:
REMARK  status: ('A' for Active; 'I' for Inactive)
REMARK    1  A    between atoms: C_2  and  C_3
REMARK    2  A    between atoms: C_2  and  C_13
REMARK    3  A    between atoms: C_4  and  C_5
REMARK    4  A    between atoms: C_13  and  C_14
REMARK    5  A    between atoms: C_14  and  N_15
REMARK                            x       y       z     vdW  Elec       q    Type
REMARK                         _______ _______ _______ _____ _____    ______ ____
ROOT
ATOM      1  O   UNL     1       2.619   3.426  17.997  0.00  0.00    +0.000 OA
ATOM      2  C   UNL     1       3.428   4.282  18.359  0.00  0.00    +0.000 C 
ENDROOT
BRANCH   2   3
ATOM      3  C   UNL     1       2.992   5.699  18.305  0.00  0.00    +0.000 C 
ATOM      4  C   UNL     1       2.444   6.364  19.322  0.00  0.00    +0.000 C 
BRANCH   4   5
ATOM      5  C   UNL     1       2.038   7.758  19.192  0.00  0.00    +0.000 A 
ATOM      6  C   UNL     1       2.355   8.480  18.038  0.00  0.00    +0.000 A 
ATOM      7  C   UNL     1       1.989   9.826  17.931  0.00  0.00    +0.000 A 
ATOM      8  C   UNL     1       1.304  10.452  18.976  0.00  0.00    +0.000 A 
ATOM      9 CL   UNL     1       0.901  12.122  18.785  0.00  0.00    +0.000 Cl
ATOM     10  C   UNL     1       0.976   9.729  20.128  0.00  0.00    +0.000 A 
ATOM     11 CL   UNL     1       0.131  10.436  21.460  0.00  0.00    +0.000 Cl
ATOM     12  C   UNL     1       1.344   8.383  20.229  0.00  0.00    +0.000 A 
ENDBRANCH   4   5
ENDBRANCH   2   3
BRANCH   2  13
ATOM     13  C   UNL     1       4.809   3.914  18.884  0.00  0.00    +0.000 C 
BRANCH  13  14
ATOM     14  C   UNL     1       5.669   5.179  18.938  0.00  0.00    +0.000 C 
BRANCH  14  15
ATOM     15  N   UNL     1       7.108   4.992  18.653  0.00  0.00    +0.000 NA
ATOM     16  C   UNL     1       7.793   6.311  18.728  0.00  0.00    +0.000 C 
ATOM     17  C   UNL     1       7.405   7.268  17.582  0.00  0.00    +0.000 C 
ATOM     18  O   UNL     1       7.653   6.679  16.300  0.00  0.00    +0.000 OA
ATOM     19  C   UNL     1       6.994   5.412  16.164  0.00  0.00    +0.000 C 
ATOM     20  C   UNL     1       7.382   4.453  17.301  0.00  0.00    +0.000 C 
ENDBRANCH  14  15
ENDBRANCH  13  14
ENDBRANCH   2  13
TORSDOF 5
ENDMDL
MODEL 8
REMARK VINA RESULT:      -6.8      5.851      7.382
REMARK  Name = 
REMARK  5 active torsions:
REMARK  status: ('A' for Active; 'I' for Inactive)
REMARK    1  A    between atoms: C_2  and  C_3
REMARK    2  A    between atoms: C_2  and  C_13
REMARK    3  A    between atoms: C_4  and  C_5
REMARK    4  A    between atoms: C_13  and  C_14
REMARK    5  A    between atoms: C_14  and  N_15
REMARK                            x       y       z     vdW  Elec       q    Type
REMARK                         _______ _______ _______ _____ _____    ______ ____
ROOT
ATOM      1  O   UNL     1       3.579   3.639  19.842  0.00  0.00    +0.000 OA
ATOM      2  C   UNL     1       2.979   4.133  18.887  0.00  0.00    +0.000 C 
ENDROOT
BRANCH   2   3
ATOM      3  C   UNL     1       2.215   5.382  19.132  0.00  0.00    +0.000 C 
ATOM      4  C   UNL     1       2.761   6.554  19.457  0.00  0.00    +0.000 C 
BRANCH   4   5
ATOM      5  C   UNL     1       1.943   7.738  19.686  0.00  0.00    +0.000 A 
ATOM      6  C   UNL     1       1.767   8.682  18.670  0.00  0.00    +0.000 A 
ATOM      7  C   UNL     1       1.006   9.831  18.905  0.00  0.00    +0.000 A 
ATOM      8  C   UNL     1       0.416  10.040  20.155  0.00  0.00    +0.000 A 
ATOM      9 CL   UNL     1      -0.494  11.491  20.382  0.00  0.00    +0.000 Cl
ATOM     10  C   UNL     1       0.582   9.092  21.171  0.00  0.00    +0.000 A 
ATOM     11 CL   UNL     1      -0.116   9.281  22.741  0.00  0.00    +0.000 Cl
ATOM     12  C   UNL     1       1.344   7.944  20.930  0.00  0.00    +0.000 A 
ENDBRANCH   4   5
ENDBRANCH   2   3
BRANCH   2  13
ATOM     13  C   UNL     1       3.043   3.524  17.493  0.00  0.00    +0.000 C 
BRANCH  13  14
ATOM     14  C   UNL     1       4.476   3.644  16.968  0.00  0.00    +0.000 C 
BRANCH  14  15
ATOM     15  N   UNL     1       4.984   5.021  16.789  0.00  0.00    +0.000 NA
ATOM     16  C   UNL     1       5.466   5.182  15.389  0.00  0.00    +0.000 C 
ATOM     17  C   UNL     1       6.744   4.374  15.085  0.00  0.00    +0.000 C 
ATOM     18  O   UNL     1       7.803   4.705  15.991  0.00  0.00    +0.000 OA
ATOM     19  C   UNL     1       7.400   4.544  17.358  0.00  0.00    +0.000 C 
ATOM     20  C   UNL     1       6.129   5.353  17.667  0.00  0.00    +0.000 C 
ENDBRANCH  14  15
ENDBRANCH  13  14
ENDBRANCH   2  13
TORSDOF 5
ENDMDL
MODEL 9
REMARK VINA RESULT:      -6.8      0.938      1.171
REMARK  Name = 
REMARK  5 active torsions:
REMARK  status: ('A' for Active; 'I' for Inactive)
REMARK    1  A    between atoms: C_2  and  C_3
REMARK    2  A    between atoms: C_2  and  C_13
REMARK    3  A    between atoms: C_4  and  C_5
REMARK    4  A    between atoms: C_13  and  C_14
REMARK    5  A    between atoms: C_14  and  N_15
REMARK                            x       y       z     vdW  Elec       q    Type
REMARK                         _______ _______ _______ _____ _____    ______ ____
ROOT
ATOM      1  O   UNL     1       6.938   7.290  16.625  0.00  0.00    +0.000 OA
ATOM      2  C   UNL     1       7.451   7.174  17.738  0.00  0.00    +0.000 C 
ENDROOT
BRANCH   2   3
ATOM      3  C   UNL     1       8.415   8.222  18.158  0.00  0.00    +0.000 C 
ATOM      4  C   UNL     1       8.167   9.532  18.137  0.00  0.00    +0.000 C 
BRANCH   4   5
ATOM      5  C   UNL     1       9.167  10.503  18.563  0.00  0.00    +0.000 A 
ATOM      6  C   UNL     1       9.375  10.752  19.922  0.00  0.00    +0.000 A 
ATOM      7  C   UNL     1      10.314  11.707  20.325  0.00  0.00    +0.000 A 
ATOM      8  C   UNL     1      11.050  12.413  19.370  0.00  0.00    +0.000 A 
ATOM      9 CL   UNL     1      12.179  13.592  19.937  0.00  0.00    +0.000 Cl
ATOM     10  C   UNL     1      10.852  12.160  18.008  0.00  0.00    +0.000 A 
ATOM     11 CL   UNL     1      11.724  12.993  16.771  0.00  0.00    +0.000 Cl
ATOM     12  C   UNL     1       9.911  11.203  17.612  0.00  0.00    +0.000 A 
ENDBRANCH   4   5
ENDBRANCH   2   3
BRANCH   2  13
ATOM     13  C   UNL     1       7.092   6.030  18.676  0.00  0.00    +0.000 C 
BRANCH  13  14
ATOM     14  C   UNL     1       5.623   5.657  18.459  0.00  0.00    +0.000 C 
BRANCH  14  15
ATOM     15  N   UNL     1       5.357   4.231  18.167  0.00  0.00    +0.000 NA
ATOM     16  C   UNL     1       4.294   4.138  17.130  0.00  0.00    +0.000 C 
ATOM     17  C   UNL     1       2.905   4.582  17.635  0.00  0.00    +0.000 C 
ATOM     18  O   UNL     1       2.504   3.837  18.791  0.00  0.00    +0.000 OA
ATOM     19  C   UNL     1       3.485   3.912  19.835  0.00  0.00    +0.000 C 
ATOM     20  C   UNL     1       4.869   3.465  19.338  0.00  0.00    +0.000 C 
ENDBRANCH  14  15
ENDBRANCH  13  14
ENDBRANCH   2  13
TORSDOF 5
ENDMDL
