MODEL 1
REMARK VINA RESULT:      -6.5      0.000      0.000
REMARK  Name = 
REMARK  8 active torsions:
REMARK  status: ('A' for Active; 'I' for Inactive)
REMARK    1  A    between atoms: C_1  and  C_2
REMARK    2  A    between atoms: C_2  and  O_3
REMARK    3  A    between atoms: O_3  and  C_4
REMARK    4  A    between atoms: C_4  and  C_6
REMARK    5  A    between atoms: C_10  and  C_11
REMARK    6  A    between atoms: N_16  and  C_17
REMARK    7  A    between atoms: C_17  and  C_18
REMARK    8  A    between atoms: C_17  and  C_19
REMARK                            x       y       z     vdW  Elec       q    Type
REMARK                         _______ _______ _______ _____ _____    ______ ____
ROOT
ATOM      1  C   UNL     1       8.390  15.057  19.558  0.00  0.00    +0.000 C 
ATOM      2  C   UNL     1       7.411  15.235  20.782  0.00  0.00    +0.000 C 
ATOM      3  C   UNL     1       7.573  13.942  21.558  0.00  0.00    +0.000 A 
ATOM      4  C   UNL     1       6.724  13.376  22.501  0.00  0.00    +0.000 A 
ATOM      5  C   UNL     1       7.178  12.284  23.260  0.00  0.00    +0.000 A 
ATOM      6  C   UNL     1       6.286  11.575  24.237  0.00  0.00    +0.000 C 
ATOM      7  C   UNL     1       8.507  11.854  23.125  0.00  0.00    +0.000 A 
ATOM      8  C   UNL     1       9.327  12.404  22.144  0.00  0.00    +0.000 A 
ATOM      9  C   UNL     1       8.801  13.358  21.283  0.00  0.00    +0.000 A 
ATOM     10  C   UNL     1       9.458  14.074  20.151  0.00  0.00    +0.000 C 
ATOM     11  N   UNL     1      10.223  13.384  19.138  0.00  0.00    +0.000 N 
ATOM     12  C   UNL     1      10.857  14.209  18.208  0.00  0.00    +0.000 C 
ATOM     13  O   UNL     1      11.705  13.815  17.407  0.00  0.00    +0.000 OA
ATOM     14  C   UNL     1      10.431  15.660  18.183  0.00  0.00    +0.000 A 
ATOM     15  C   UNL     1      11.103  16.507  17.297  0.00  0.00    +0.000 A 
ATOM     16  C   UNL     1      10.640  17.804  17.097  0.00  0.00    +0.000 A 
ATOM     17  C   UNL     1       9.547  18.281  17.826  0.00  0.00    +0.000 A 
ATOM     18  C   UNL     1       8.885  17.459  18.747  0.00  0.00    +0.000 A 
ATOM     19  C   UNL     1       9.291  16.130  18.910  0.00  0.00    +0.000 A 
ENDROOT
BRANCH  11  20
ATOM     20  C   UNL     1      10.433  11.920  19.131  0.00  0.00    +0.000 C 
ATOM     21  C   UNL     1       9.825  11.273  17.889  0.00  0.00    +0.000 C 
ATOM     22  C   UNL     1      11.896  11.505  19.325  0.00  0.00    +0.000 C 
ENDBRANCH  11  20
BRANCH   1  23
ATOM     23  C   UNL     1       7.377  14.793  18.408  0.00  0.00    +0.000 C 
ATOM     24  O   UNL     1       7.473  13.802  17.677  0.00  0.00    +0.000 OA
BRANCH  23  25
ATOM     25  O   UNL     1       6.244  15.538  18.447  0.00  0.00    +0.000 OA
BRANCH  25  27
ATOM     26  C   UNL     1       4.086  14.580  18.890  0.00  0.00    +0.000 C 
ATOM     27  C   UNL     1       5.120  14.880  17.825  0.00  0.00    +0.000 C 
ENDBRANCH  25  27
ENDBRANCH  23  25
ENDBRANCH   1  23
TORSDOF 4
ENDMDL
MODEL 2
REMARK VINA RESULT:      -6.3      9.052     11.795
REMARK  Name = 
REMARK  8 active torsions:
REMARK  status: ('A' for Active; 'I' for Inactive)
REMARK    1  A    between atoms: C_1  and  C_2
REMARK    2  A    between atoms: C_2  and  O_3
REMARK    3  A    between atoms: O_3  and  C_4
REMARK    4  A    between atoms: C_4  and  C_6
REMARK    5  A    between atoms: C_10  and  C_11
REMARK    6  A    between atoms: N_16  and  C_17
REMARK    7  A    between atoms: C_17  and  C_18
REMARK    8  A    between atoms: C_17  and  C_19
REMARK                            x       y       z     vdW  Elec       q    Type
REMARK                         _______ _______ _______ _____ _____    ______ ____
ROOT
ATOM      1  C   UNL     1      -0.661  12.789  20.342  0.00  0.00    +0.000 C 
ATOM      2  C   UNL     1       0.272  13.648  19.404  0.00  0.00    +0.000 C 
ATOM      3  C   UNL     1      -0.418  14.997  19.354  0.00  0.00    +0.000 A 
ATOM      4  C   UNL     1      -0.274  16.020  18.424  0.00  0.00    +0.000 A 
ATOM      5  C   UNL     1      -0.845  17.274  18.695  0.00  0.00    +0.000 A 
ATOM      6  C   UNL     1      -0.796  18.396  17.700  0.00  0.00    +0.000 C 
ATOM      7  C   UNL     1      -1.459  17.500  19.937  0.00  0.00    +0.000 A 
ATOM      8  C   UNL     1      -1.633  16.452  20.836  0.00  0.00    +0.000 A 
ATOM      9  C   UNL     1      -1.221  15.176  20.471  0.00  0.00    +0.000 A 
ATOM     10  C   UNL     1      -1.315  13.899  21.235  0.00  0.00    +0.000 C 
ATOM     11  N   UNL     1      -2.535  13.468  21.879  0.00  0.00    +0.000 N 
ATOM     12  C   UNL     1      -2.426  12.303  22.639  0.00  0.00    +0.000 C 
ATOM     13  O   UNL     1      -3.297  11.904  23.411  0.00  0.00    +0.000 OA
ATOM     14  C   UNL     1      -1.168  11.484  22.454  0.00  0.00    +0.000 A 
ATOM     15  C   UNL     1      -1.023  10.347  23.254  0.00  0.00    +0.000 A 
ATOM     16  C   UNL     1       0.019   9.458  23.008  0.00  0.00    +0.000 A 
ATOM     17  C   UNL     1       0.955   9.731  22.007  0.00  0.00    +0.000 A 
ATOM     18  C   UNL     1       0.848  10.885  21.220  0.00  0.00    +0.000 A 
ATOM     19  C   UNL     1      -0.232  11.755  21.405  0.00  0.00    +0.000 A 
ENDROOT
BRANCH  11  20
ATOM     20  C   UNL     1      -3.791  14.249  21.848  0.00  0.00    +0.000 C 
ATOM     21  C   UNL     1      -4.943  13.431  21.270  0.00  0.00    +0.000 C 
ATOM     22  C   UNL     1      -4.163  14.872  23.198  0.00  0.00    +0.000 C 
ENDBRANCH  11  20
BRANCH   1  23
ATOM     23  C   UNL     1      -1.353  11.866  19.300  0.00  0.00    +0.000 C 
ATOM     24  O   UNL     1      -2.580  11.718  19.281  0.00  0.00    +0.000 OA
BRANCH  23  25
ATOM     25  O   UNL     1      -0.578  11.479  18.256  0.00  0.00    +0.000 OA
BRANCH  25  27
ATOM     26  C   UNL     1       0.818   9.547  17.954  0.00  0.00    +0.000 C 
ATOM     27  C   UNL     1      -0.607  10.053  18.034  0.00  0.00    +0.000 C 
ENDBRANCH  25  27
ENDBRANCH  23  25
ENDBRANCH   1  23
TORSDOF 4
ENDMDL
MODEL 3
REMARK VINA RESULT:      -6.2      7.292     11.159
REMARK  Name = 
REMARK  8 active torsions:
REMARK  status: ('A' for Active; 'I' for Inactive)
REMARK    1  A    between atoms: C_1  and  C_2
REMARK    2  A    between atoms: C_2  and  O_3
REMARK    3  A    between atoms: O_3  and  C_4
REMARK    4  A    between atoms: C_4  and  C_6
REMARK    5  A    between atoms: C_10  and  C_11
REMARK    6  A    between atoms: N_16  and  C_17
REMARK    7  A    between atoms: C_17  and  C_18
REMARK    8  A    between atoms: C_17  and  C_19
REMARK                            x       y       z     vdW  Elec       q    Type
REMARK                         _______ _______ _______ _____ _____    ______ ____
ROOT
ATOM      1  C   UNL     1      -0.811  12.050  19.237  0.00  0.00    +0.000 C 
ATOM      2  C   UNL     1      -1.737  11.634  18.029  0.00  0.00    +0.000 C 
ATOM      3  C   UNL     1      -3.134  11.691  18.616  0.00  0.00    +0.000 A 
ATOM      4  C   UNL     1      -4.301  11.094  18.156  0.00  0.00    +0.000 A 
ATOM      5  C   UNL     1      -5.529  11.463  18.731  0.00  0.00    +0.000 A 
ATOM      6  C   UNL     1      -6.816  10.799  18.338  0.00  0.00    +0.000 C 
ATOM      7  C   UNL     1      -5.564  12.496  19.682  0.00  0.00    +0.000 A 
ATOM      8  C   UNL     1      -4.382  13.050  20.161  0.00  0.00    +0.000 A 
ATOM      9  C   UNL     1      -3.169  12.543  19.711  0.00  0.00    +0.000 A 
ATOM     10  C   UNL     1      -1.781  12.944  20.083  0.00  0.00    +0.000 C 
ATOM     11  N   UNL     1      -1.362  13.100  21.457  0.00  0.00    +0.000 N 
ATOM     12  C   UNL     1      -0.063  13.579  21.631  0.00  0.00    +0.000 C 
ATOM     13  O   UNL     1       0.389  13.961  22.711  0.00  0.00    +0.000 OA
ATOM     14  C   UNL     1       0.830  13.583  20.411  0.00  0.00    +0.000 A 
ATOM     15  C   UNL     1       2.114  14.117  20.561  0.00  0.00    +0.000 A 
ATOM     16  C   UNL     1       3.040  13.987  19.530  0.00  0.00    +0.000 A 
ATOM     17  C   UNL     1       2.672  13.382  18.325  0.00  0.00    +0.000 A 
ATOM     18  C   UNL     1       1.379  12.876  18.142  0.00  0.00    +0.000 A 
ATOM     19  C   UNL     1       0.455  12.934  19.191  0.00  0.00    +0.000 A 
ENDROOT
BRANCH  11  20
ATOM     20  C   UNL     1      -2.260  12.886  22.613  0.00  0.00    +0.000 C 
ATOM     21  C   UNL     1      -1.919  11.596  23.355  0.00  0.00    +0.000 C 
ATOM     22  C   UNL     1      -2.335  14.084  23.566  0.00  0.00    +0.000 C 
ENDBRANCH  11  20
BRANCH   1  23
ATOM     23  C   UNL     1      -0.194  10.675  19.620  0.00  0.00    +0.000 C 
ATOM     24  O   UNL     1      -0.377  10.172  20.733  0.00  0.00    +0.000 OA
BRANCH  23  25
ATOM     25  O   UNL     1       0.295   9.947  18.585  0.00  0.00    +0.000 OA
BRANCH  25  27
ATOM     26  C   UNL     1       2.204   8.780  17.709  0.00  0.00    +0.000 C 
ATOM     27  C   UNL     1       1.424   9.129  18.959  0.00  0.00    +0.000 C 
ENDBRANCH  25  27
ENDBRANCH  23  25
ENDBRANCH   1  23
TORSDOF 4
ENDMDL
MODEL 4
REMARK VINA RESULT:      -6.1     10.717     14.429
REMARK  Name = 
REMARK  8 active torsions:
REMARK  status: ('A' for Active; 'I' for Inactive)
REMARK    1  A    between atoms: C_1  and  C_2
REMARK    2  A    between atoms: C_2  and  O_3
REMARK    3  A    between atoms: O_3  and  C_4
REMARK    4  A    between atoms: C_4  and  C_6
REMARK    5  A    between atoms: C_10  and  C_11
REMARK    6  A    between atoms: N_16  and  C_17
REMARK    7  A    between atoms: C_17  and  C_18
REMARK    8  A    between atoms: C_17  and  C_19
REMARK                            x       y       z     vdW  Elec       q    Type
REMARK                         _______ _______ _______ _____ _____    ______ ____
ROOT
ATOM      1  C   UNL     1      -5.564  12.622  19.971  0.00  0.00    +0.000 C 
ATOM      2  C   UNL     1      -6.017  11.774  18.720  0.00  0.00    +0.000 C 
ATOM      3  C   UNL     1      -4.725  11.541  17.962  0.00  0.00    +0.000 A 
ATOM      4  C   UNL     1      -4.543  11.185  16.631  0.00  0.00    +0.000 A 
ATOM      5  C   UNL     1      -3.263  10.803  16.195  0.00  0.00    +0.000 A 
ATOM      6  C   UNL     1      -2.981  10.485  14.756  0.00  0.00    +0.000 C 
ATOM      7  C   UNL     1      -2.220  10.691  17.128  0.00  0.00    +0.000 A 
ATOM      8  C   UNL     1      -2.411  11.094  18.446  0.00  0.00    +0.000 A 
ATOM      9  C   UNL     1      -3.634  11.640  18.814  0.00  0.00    +0.000 A 
ATOM     10  C   UNL     1      -4.075  12.161  20.140  0.00  0.00    +0.000 C 
ATOM     11  N   UNL     1      -3.277  13.083  20.915  0.00  0.00    +0.000 N 
ATOM     12  C   UNL     1      -3.785  13.392  22.177  0.00  0.00    +0.000 C 
ATOM     13  O   UNL     1      -3.149  13.992  23.045  0.00  0.00    +0.000 OA
ATOM     14  C   UNL     1      -5.215  12.987  22.454  0.00  0.00    +0.000 A 
ATOM     15  C   UNL     1      -5.713  13.239  23.736  0.00  0.00    +0.000 A 
ATOM     16  C   UNL     1      -7.067  13.055  23.999  0.00  0.00    +0.000 A 
ATOM     17  C   UNL     1      -7.916  12.560  23.005  0.00  0.00    +0.000 A 
ATOM     18  C   UNL     1      -7.427  12.265  21.726  0.00  0.00    +0.000 A 
ATOM     19  C   UNL     1      -6.084  12.510  21.421  0.00  0.00    +0.000 A 
ENDROOT
BRANCH  11  20
ATOM     20  C   UNL     1      -1.957  13.587  20.476  0.00  0.00    +0.000 C 
ATOM     21  C   UNL     1      -1.905  15.112  20.498  0.00  0.00    +0.000 C 
ATOM     22  C   UNL     1      -0.778  12.969  21.236  0.00  0.00    +0.000 C 
ENDBRANCH  11  20
BRANCH   1  23
ATOM     23  C   UNL     1      -6.094  14.030  19.579  0.00  0.00    +0.000 C 
ATOM     24  O   UNL     1      -5.637  15.058  20.088  0.00  0.00    +0.000 OA
BRANCH  23  25
ATOM     25  O   UNL     1      -6.858  14.074  18.459  0.00  0.00    +0.000 OA
BRANCH  25  27
ATOM     26  C   UNL     1      -7.164  15.950  16.989  0.00  0.00    +0.000 C 
ATOM     27  C   UNL     1      -7.562  15.325  18.309  0.00  0.00    +0.000 C 
ENDBRANCH  25  27
ENDBRANCH  23  25
ENDBRANCH   1  23
TORSDOF 4
ENDMDL
MODEL 5
REMARK VINA RESULT:      -6.0      7.473     10.606
REMARK  Name = 
REMARK  8 active torsions:
REMARK  status: ('A' for Active; 'I' for Inactive)
REMARK    1  A    between atoms: C_1  and  C_2
REMARK    2  A    between atoms: C_2  and  O_3
REMARK    3  A    between atoms: O_3  and  C_4
REMARK    4  A    between atoms: C_4  and  C_6
REMARK    5  A    between atoms: C_10  and  C_11
REMARK    6  A    between atoms: N_16  and  C_17
REMARK    7  A    between atoms: C_17  and  C_18
REMARK    8  A    between atoms: C_17  and  C_19
REMARK                            x       y       z     vdW  Elec       q    Type
REMARK                         _______ _______ _______ _____ _____    ______ ____
ROOT
ATOM      1  C   UNL     1       0.465  12.065  19.992  0.00  0.00    +0.000 C 
ATOM      2  C   UNL     1       1.556  12.247  18.867  0.00  0.00    +0.000 C 
ATOM      3  C   UNL     1       1.809  13.742  18.854  0.00  0.00    +0.000 A 
ATOM      4  C   UNL     1       2.378  14.524  17.857  0.00  0.00    +0.000 A 
ATOM      5  C   UNL     1       2.721  15.856  18.147  0.00  0.00    +0.000 A 
ATOM      6  C   UNL     1       3.264  16.778  17.095  0.00  0.00    +0.000 C 
ATOM      7  C   UNL     1       2.577  16.337  19.458  0.00  0.00    +0.000 A 
ATOM      8  C   UNL     1       1.964  15.553  20.430  0.00  0.00    +0.000 A 
ATOM      9  C   UNL     1       1.468  14.305  20.076  0.00  0.00    +0.000 A 
ATOM     10  C   UNL     1       0.760  13.296  20.916  0.00  0.00    +0.000 C 
ATOM     11  N   UNL     1      -0.350  13.645  21.775  0.00  0.00    +0.000 N 
ATOM     12  C   UNL     1      -0.833  12.606  22.571  0.00  0.00    +0.000 C 
ATOM     13  O   UNL     1      -1.629  12.765  23.497  0.00  0.00    +0.000 OA
ATOM     14  C   UNL     1      -0.363  11.210  22.229  0.00  0.00    +0.000 A 
ATOM     15  C   UNL     1      -0.794  10.170  23.058  0.00  0.00    +0.000 A 
ATOM     16  C   UNL     1      -0.546   8.850  22.695  0.00  0.00    +0.000 A 
ATOM     17  C   UNL     1       0.188   8.564  21.540  0.00  0.00    +0.000 A 
ATOM     18  C   UNL     1       0.662   9.594  20.718  0.00  0.00    +0.000 A 
ATOM     19  C   UNL     1       0.362  10.924  21.028  0.00  0.00    +0.000 A 
ENDROOT
BRANCH  11  20
ATOM     20  C   UNL     1      -0.877  15.020  21.906  0.00  0.00    +0.000 C 
ATOM     21  C   UNL     1      -2.362  15.085  21.556  0.00  0.00    +0.000 C 
ATOM     22  C   UNL     1      -0.589  15.664  23.266  0.00  0.00    +0.000 C 
ENDBRANCH  11  20
BRANCH   1  23
ATOM     23  C   UNL     1      -0.801  11.794  19.131  0.00  0.00    +0.000 C 
ATOM     24  O   UNL     1      -1.754  12.580  19.116  0.00  0.00    +0.000 OA
BRANCH  23  25
ATOM     25  O   UNL     1      -0.673  10.819  18.196  0.00  0.00    +0.000 OA
BRANCH  25  27
ATOM     26  C   UNL     1      -2.277  10.149  16.538  0.00  0.00    +0.000 C 
ATOM     27  C   UNL     1      -1.889  10.067  17.999  0.00  0.00    +0.000 C 
ENDBRANCH  25  27
ENDBRANCH  23  25
ENDBRANCH   1  23
TORSDOF 4
ENDMDL
MODEL 6
REMARK VINA RESULT:      -6.0      9.176     11.895
REMARK  Name = 
REMARK  8 active torsions:
REMARK  status: ('A' for Active; 'I' for Inactive)
REMARK    1  A    between atoms: C_1  and  C_2
REMARK    2  A    between atoms: C_2  and  O_3
REMARK    3  A    between atoms: O_3  and  C_4
REMARK    4  A    between atoms: C_4  and  C_6
REMARK    5  A    between atoms: C_10  and  C_11
REMARK    6  A    between atoms: N_16  and  C_17
REMARK    7  A    between atoms: C_17  and  C_18
REMARK    8  A    between atoms: C_17  and  C_19
REMARK                            x       y       z     vdW  Elec       q    Type
REMARK                         _______ _______ _______ _____ _____    ______ ____
ROOT
ATOM      1  C   UNL     1      -0.664  12.649  20.323  0.00  0.00    +0.000 C 
ATOM      2  C   UNL     1       0.236  13.491  19.339  0.00  0.00    +0.000 C 
ATOM      3  C   UNL     1      -0.431  14.853  19.324  0.00  0.00    +0.000 A 
ATOM      4  C   UNL     1      -0.315  15.874  18.389  0.00  0.00    +0.000 A 
ATOM      5  C   UNL     1      -0.849  17.138  18.688  0.00  0.00    +0.000 A 
ATOM      6  C   UNL     1      -0.829  18.260  17.692  0.00  0.00    +0.000 C 
ATOM      7  C   UNL     1      -1.394  17.374  19.960  0.00  0.00    +0.000 A 
ATOM      8  C   UNL     1      -1.542  16.328  20.866  0.00  0.00    +0.000 A 
ATOM      9  C   UNL     1      -1.173  15.046  20.481  0.00  0.00    +0.000 A 
ATOM     10  C   UNL     1      -1.251  13.769  21.249  0.00  0.00    +0.000 C 
ATOM     11  N   UNL     1      -2.444  13.361  21.954  0.00  0.00    +0.000 N 
ATOM     12  C   UNL     1      -2.319  12.193  22.706  0.00  0.00    +0.000 C 
ATOM     13  O   UNL     1      -3.157  11.809  23.522  0.00  0.00    +0.000 OA
ATOM     14  C   UNL     1      -1.088  11.351  22.457  0.00  0.00    +0.000 A 
ATOM     15  C   UNL     1      -0.923  10.211  23.250  0.00  0.00    +0.000 A 
ATOM     16  C   UNL     1       0.088   9.303  22.950  0.00  0.00    +0.000 A 
ATOM     17  C   UNL     1       0.977   9.560  21.903  0.00  0.00    +0.000 A 
ATOM     18  C   UNL     1       0.852  10.716  21.123  0.00  0.00    +0.000 A 
ATOM     19  C   UNL     1      -0.201  11.606  21.363  0.00  0.00    +0.000 A 
ENDROOT
BRANCH  11  20
ATOM     20  C   UNL     1      -3.686  14.164  21.987  0.00  0.00    +0.000 C 
ATOM     21  C   UNL     1      -4.890  13.353  21.514  0.00  0.00    +0.000 C 
ATOM     22  C   UNL     1      -3.952  14.833  23.340  0.00  0.00    +0.000 C 
ENDBRANCH  11  20
BRANCH   1  23
ATOM     23  C   UNL     1      -1.426  11.740  19.317  0.00  0.00    +0.000 C 
ATOM     24  O   UNL     1      -0.915  10.712  18.859  0.00  0.00    +0.000 OA
BRANCH  23  25
ATOM     25  O   UNL     1      -2.757  11.978  19.207  0.00  0.00    +0.000 OA
BRANCH  25  27
ATOM     26  C   UNL     1      -4.806  11.753  17.974  0.00  0.00    +0.000 C 
ATOM     27  C   UNL     1      -3.324  11.442  17.994  0.00  0.00    +0.000 C 
ENDBRANCH  25  27
ENDBRANCH  23  25
ENDBRANCH   1  23
TORSDOF 4
ENDMDL
MODEL 7
REMARK VINA RESULT:      -5.9     10.687     14.397
REMARK  Name = 
REMARK  8 active torsions:
REMARK  status: ('A' for Active; 'I' for Inactive)
REMARK    1  A    between atoms: C_1  and  C_2
REMARK    2  A    between atoms: C_2  and  O_3
REMARK    3  A    between atoms: O_3  and  C_4
REMARK    4  A    between atoms: C_4  and  C_6
REMARK    5  A    between atoms: C_10  and  C_11
REMARK    6  A    between atoms: N_16  and  C_17
REMARK    7  A    between atoms: C_17  and  C_18
REMARK    8  A    between atoms: C_17  and  C_19
REMARK                            x       y       z     vdW  Elec       q    Type
REMARK                         _______ _______ _______ _____ _____    ______ ____
ROOT
ATOM      1  C   UNL     1      -5.528  12.557  19.909  0.00  0.00    +0.000 C 
ATOM      2  C   UNL     1      -5.985  11.715  18.656  0.00  0.00    +0.000 C 
ATOM      3  C   UNL     1      -4.693  11.469  17.901  0.00  0.00    +0.000 A 
ATOM      4  C   UNL     1      -4.512  11.111  16.571  0.00  0.00    +0.000 A 
ATOM      5  C   UNL     1      -3.234  10.717  16.138  0.00  0.00    +0.000 A 
ATOM      6  C   UNL     1      -2.952  10.396  14.700  0.00  0.00    +0.000 C 
ATOM      7  C   UNL     1      -2.195  10.594  17.074  0.00  0.00    +0.000 A 
ATOM      8  C   UNL     1      -2.385  10.999  18.392  0.00  0.00    +0.000 A 
ATOM      9  C   UNL     1      -3.604  11.557  18.757  0.00  0.00    +0.000 A 
ATOM     10  C   UNL     1      -4.044  12.082  20.081  0.00  0.00    +0.000 C 
ATOM     11  N   UNL     1      -3.239  12.996  20.858  0.00  0.00    +0.000 N 
ATOM     12  C   UNL     1      -3.747  13.310  22.119  0.00  0.00    +0.000 C 
ATOM     13  O   UNL     1      -3.108  13.904  22.989  0.00  0.00    +0.000 OA
ATOM     14  C   UNL     1      -5.182  12.919  22.392  0.00  0.00    +0.000 A 
ATOM     15  C   UNL     1      -5.681  13.175  23.673  0.00  0.00    +0.000 A 
ATOM     16  C   UNL     1      -7.038  13.005  23.932  0.00  0.00    +0.000 A 
ATOM     17  C   UNL     1      -7.888  12.518  22.935  0.00  0.00    +0.000 A 
ATOM     18  C   UNL     1      -7.399  12.219  21.658  0.00  0.00    +0.000 A 
ATOM     19  C   UNL     1      -6.053  12.451  21.357  0.00  0.00    +0.000 A 
ENDROOT
BRANCH  11  20
ATOM     20  C   UNL     1      -1.913  13.487  20.423  0.00  0.00    +0.000 C 
ATOM     21  C   UNL     1      -1.840  15.011  20.463  0.00  0.00    +0.000 C 
ATOM     22  C   UNL     1      -0.741  12.845  21.174  0.00  0.00    +0.000 C 
ENDBRANCH  11  20
BRANCH   1  23
ATOM     23  C   UNL     1      -6.043  13.970  19.515  0.00  0.00    +0.000 C 
ATOM     24  O   UNL     1      -6.884  14.127  18.623  0.00  0.00    +0.000 OA
BRANCH  23  25
ATOM     25  O   UNL     1      -5.743  14.965  20.387  0.00  0.00    +0.000 OA
BRANCH  25  27
ATOM     26  C   UNL     1      -6.881  16.285  22.041  0.00  0.00    +0.000 C 
ATOM     27  C   UNL     1      -6.833  15.891  20.580  0.00  0.00    +0.000 C 
ENDBRANCH  25  27
ENDBRANCH  23  25
ENDBRANCH   1  23
TORSDOF 4
ENDMDL
MODEL 8
REMARK VINA RESULT:      -5.9     10.930     14.005
REMARK  Name = 
REMARK  8 active torsions:
REMARK  status: ('A' for Active; 'I' for Inactive)
REMARK    1  A    between atoms: C_1  and  C_2
REMARK    2  A    between atoms: C_2  and  O_3
REMARK    3  A    between atoms: O_3  and  C_4
REMARK    4  A    between atoms: C_4  and  C_6
REMARK    5  A    between atoms: C_10  and  C_11
REMARK    6  A    between atoms: N_16  and  C_17
REMARK    7  A    between atoms: C_17  and  C_18
REMARK    8  A    between atoms: C_17  and  C_19
REMARK                            x       y       z     vdW  Elec       q    Type
REMARK                         _______ _______ _______ _____ _____    ______ ____
ROOT
ATOM      1  C   UNL     1      -3.062  13.538  22.091  0.00  0.00    +0.000 C 
ATOM      2  C   UNL     1      -2.094  13.137  20.912  0.00  0.00    +0.000 C 
ATOM      3  C   UNL     1      -3.009  12.449  19.918  0.00  0.00    +0.000 A 
ATOM      4  C   UNL     1      -2.683  11.582  18.883  0.00  0.00    +0.000 A 
ATOM      5  C   UNL     1      -3.669  11.237  17.944  0.00  0.00    +0.000 A 
ATOM      6  C   UNL     1      -3.406  10.244  16.850  0.00  0.00    +0.000 C 
ATOM      7  C   UNL     1      -4.930  11.851  18.010  0.00  0.00    +0.000 A 
ATOM      8  C   UNL     1      -5.252  12.682  19.079  0.00  0.00    +0.000 A 
ATOM      9  C   UNL     1      -4.322  12.866  20.093  0.00  0.00    +0.000 A 
ATOM     10  C   UNL     1      -4.431  13.678  21.340  0.00  0.00    +0.000 C 
ATOM     11  N   UNL     1      -5.576  13.598  22.218  0.00  0.00    +0.000 N 
ATOM     12  C   UNL     1      -5.568  14.498  23.285  0.00  0.00    +0.000 C 
ATOM     13  O   UNL     1      -6.542  14.711  24.009  0.00  0.00    +0.000 OA
ATOM     14  C   UNL     1      -4.265  15.210  23.567  0.00  0.00    +0.000 A 
ATOM     15  C   UNL     1      -4.265  16.158  24.595  0.00  0.00    +0.000 A 
ATOM     16  C   UNL     1      -3.062  16.714  25.020  0.00  0.00    +0.000 A 
ATOM     17  C   UNL     1      -1.866  16.377  24.381  0.00  0.00    +0.000 A 
ATOM     18  C   UNL     1      -1.852  15.460  23.323  0.00  0.00    +0.000 A 
ATOM     19  C   UNL     1      -3.040  14.836  22.928  0.00  0.00    +0.000 A 
ENDROOT
BRANCH  11  20
ATOM     20  C   UNL     1      -6.738  12.720  21.964  0.00  0.00    +0.000 C 
ATOM     21  C   UNL     1      -7.177  11.992  23.232  0.00  0.00    +0.000 C 
ATOM     22  C   UNL     1      -7.913  13.433  21.287  0.00  0.00    +0.000 C 
ENDBRANCH  11  20
BRANCH   1  23
ATOM     23  C   UNL     1      -2.662  12.490  23.168  0.00  0.00    +0.000 C 
ATOM     24  O   UNL     1      -3.513  11.873  23.818  0.00  0.00    +0.000 OA
BRANCH  23  25
ATOM     25  O   UNL     1      -1.366  12.091  23.141  0.00  0.00    +0.000 OA
BRANCH  25  27
ATOM     26  C   UNL     1      -0.195  10.220  22.193  0.00  0.00    +0.000 C 
ATOM     27  C   UNL     1      -1.218  10.658  23.220  0.00  0.00    +0.000 C 
ENDBRANCH  25  27
ENDBRANCH  23  25
ENDBRANCH   1  23
TORSDOF 4
ENDMDL
MODEL 9
REMARK VINA RESULT:      -5.8      7.277     11.122
REMARK  Name = 
REMARK  8 active torsions:
REMARK  status: ('A' for Active; 'I' for Inactive)
REMARK    1  A    between atoms: C_1  and  C_2
REMARK    2  A    between atoms: C_2  and  O_3
REMARK    3  A    between atoms: O_3  and  C_4
REMARK    4  A    between atoms: C_4  and  C_6
REMARK    5  A    between atoms: C_10  and  C_11
REMARK    6  A    between atoms: N_16  and  C_17
REMARK    7  A    between atoms: C_17  and  C_18
REMARK    8  A    between atoms: C_17  and  C_19
REMARK                            x       y       z     vdW  Elec       q    Type
REMARK                         _______ _______ _______ _____ _____    ______ ____
ROOT
ATOM      1  C   UNL     1      -0.769  12.134  19.155  0.00  0.00    +0.000 C 
ATOM      2  C   UNL     1      -1.718  11.761  17.951  0.00  0.00    +0.000 C 
ATOM      3  C   UNL     1      -3.099  11.752  18.577  0.00  0.00    +0.000 A 
ATOM      4  C   UNL     1      -4.264  11.152  18.116  0.00  0.00    +0.000 A 
ATOM      5  C   UNL     1      -5.484  11.459  18.742  0.00  0.00    +0.000 A 
ATOM      6  C   UNL     1      -6.766  10.786  18.347  0.00  0.00    +0.000 C 
ATOM      7  C   UNL     1      -5.517  12.438  19.748  0.00  0.00    +0.000 A 
ATOM      8  C   UNL     1      -4.335  12.994  20.226  0.00  0.00    +0.000 A 
ATOM      9  C   UNL     1      -3.124  12.543  19.717  0.00  0.00    +0.000 A 
ATOM     10  C   UNL     1      -1.736  12.956  20.074  0.00  0.00    +0.000 C 
ATOM     11  N   UNL     1      -1.282  13.048  21.443  0.00  0.00    +0.000 N 
ATOM     12  C   UNL     1       0.010  13.549  21.608  0.00  0.00    +0.000 C 
ATOM     13  O   UNL     1       0.482  13.883  22.695  0.00  0.00    +0.000 OA
ATOM     14  C   UNL     1       0.868  13.641  20.367  0.00  0.00    +0.000 A 
ATOM     15  C   UNL     1       2.143  14.197  20.512  0.00  0.00    +0.000 A 
ATOM     16  C   UNL     1       3.043  14.146  19.452  0.00  0.00    +0.000 A 
ATOM     17  C   UNL     1       2.656  13.599  18.226  0.00  0.00    +0.000 A 
ATOM     18  C   UNL     1       1.370  13.071  18.050  0.00  0.00    +0.000 A 
ATOM     19  C   UNL     1       0.475  13.049  19.124  0.00  0.00    +0.000 A 
ENDROOT
BRANCH  11  20
ATOM     20  C   UNL     1      -2.143  12.750  22.608  0.00  0.00    +0.000 C 
ATOM     21  C   UNL     1      -1.739  11.441  23.282  0.00  0.00    +0.000 C 
ATOM     22  C   UNL     1      -2.235  13.900  23.617  0.00  0.00    +0.000 C 
ENDBRANCH  11  20
BRANCH   1  23
ATOM     23  C   UNL     1      -0.110  10.756  19.445  0.00  0.00    +0.000 C 
ATOM     24  O   UNL     1       0.179   9.972  18.535  0.00  0.00    +0.000 OA
BRANCH  23  25
ATOM     25  O   UNL     1       0.386  10.599  20.698  0.00  0.00    +0.000 OA
BRANCH  25  27
ATOM     26  C   UNL     1      -0.210   8.496  21.695  0.00  0.00    +0.000 C 
ATOM     27  C   UNL     1       0.863   9.260  20.949  0.00  0.00    +0.000 C 
ENDBRANCH  25  27
ENDBRANCH  23  25
ENDBRANCH   1  23
TORSDOF 4
ENDMDL
