MODEL 1
REMARK VINA RESULT:      -7.5      0.000      0.000
REMARK  Name = 
REMARK  14 active torsions:
REMARK  status: ('A' for Active; 'I' for Inactive)
REMARK    1  A    between atoms: C_1  and  C_2
REMARK    2  A    between atoms: C_2  and  O_3
REMARK    3  A    between atoms: O_3  and  C_4
REMARK    4  A    between atoms: C_7  and  C_8
REMARK    5  A    between atoms: N_9  and  N_10
REMARK    6  A    between atoms: N_13  and  C_14
REMARK    7  A    between atoms: C_15  and  C_16
REMARK    8  A    between atoms: C_19  and  C_20
REMARK    9  A    between atoms: C_20  and  C_21
REMARK   10  A    between atoms: C_20  and  C_22
REMARK   11  A    between atoms: C_20  and  C_23
REMARK   12  A    between atoms: C_27  and  O_28
REMARK   13  A    between atoms: O_28  and  C_29
REMARK   14  A    between atoms: C_29  and  C_30
REMARK                            x       y       z     vdW  Elec       q    Type
REMARK                         _______ _______ _______ _____ _____    ______ ____
ROOT
ATOM      1  N   UNL     1       1.491   7.133  21.126  0.00  0.00    +0.000 N 
ATOM      2  C   UNL     1       0.984   8.424  20.987  0.00  0.00    +0.000 C 
ATOM      3  O   UNL     1       1.196   9.128  20.000  0.00  0.00    +0.000 OA
ATOM      4  N   UNL     1       0.210   8.841  22.062  0.00  0.00    +0.000 N 
ATOM      5  H   UNL     1       1.329   6.580  21.954  0.00  0.00    +0.000 HD
ATOM      6  H   UNL     1       0.048   8.213  22.834  0.00  0.00    +0.000 HD
ENDROOT
BRANCH   1   8
ATOM      7  C   UNL     1       2.565   5.384  20.106  0.00  0.00    +0.000 C 
ATOM      8  N   UNL     1       2.277   6.644  20.120  0.00  0.00    +0.000 NA
BRANCH   7  12
ATOM      9  C   UNL     1       5.078   3.944  16.930  0.00  0.00    +0.000 A 
ATOM     10  C   UNL     1       3.687   3.782  16.874  0.00  0.00    +0.000 A 
ATOM     11  C   UNL     1       2.873   4.232  17.914  0.00  0.00    +0.000 A 
ATOM     12  C   UNL     1       3.440   4.834  19.038  0.00  0.00    +0.000 A 
ATOM     13  C   UNL     1       4.830   4.926  19.142  0.00  0.00    +0.000 A 
ATOM     14  C   UNL     1       5.659   4.452  18.107  0.00  0.00    +0.000 A 
BRANCH   9  15
ATOM     15  O   UNL     1       5.887   3.644  15.864  0.00  0.00    +0.000 OA
BRANCH  15  17
ATOM     16  C   UNL     1       7.041   4.878  14.155  0.00  0.00    +0.000 C 
ATOM     17  C   UNL     1       5.691   4.416  14.674  0.00  0.00    +0.000 C 
ENDBRANCH  15  17
ENDBRANCH   9  15
BRANCH  14  18
ATOM     18  O   UNL     1       6.998   4.596  18.381  0.00  0.00    +0.000 OA
BRANCH  18  19
ATOM     19  C   UNL     1       7.458   5.896  18.759  0.00  0.00    +0.000 C 
ATOM     20  C   UNL     1       7.459   6.787  17.527  0.00  0.00    +0.000 C 
ENDBRANCH  18  19
ENDBRANCH  14  18
ENDBRANCH   7  12
ENDBRANCH   1   8
BRANCH   4  21
ATOM     21  C   UNL     1      -0.391  10.085  22.070  0.00  0.00    +0.000 C 
ATOM     22  C   UNL     1      -0.971  10.660  23.135  0.00  0.00    +0.000 C 
BRANCH  22  23
ATOM     23  C   UNL     1      -1.649  11.977  23.054  0.00  0.00    +0.000 A 
ATOM     24  C   UNL     1      -3.007  12.123  23.352  0.00  0.00    +0.000 A 
ATOM     25  C   UNL     1      -3.639  13.375  23.304  0.00  0.00    +0.000 A 
ATOM     26  C   UNL     1      -2.938  14.543  22.975  0.00  0.00    +0.000 A 
ATOM     27  C   UNL     1      -1.567  14.393  22.688  0.00  0.00    +0.000 A 
ATOM     28  C   UNL     1      -0.932  13.135  22.734  0.00  0.00    +0.000 A 
BRANCH  26  29
ATOM     29  C   UNL     1      -3.614  15.929  22.953  0.00  0.00    +0.000 C 
ATOM     30  C   UNL     1      -4.585  16.160  24.136  0.00  0.00    +0.000 C 
ATOM     31  C   UNL     1      -2.540  17.037  23.027  0.00  0.00    +0.000 C 
ATOM     32  C   UNL     1      -4.433  16.119  21.658  0.00  0.00    +0.000 C 
ENDBRANCH  26  29
ENDBRANCH  22  23
ENDBRANCH   4  21
TORSDOF 9
ENDMDL
MODEL 2
REMARK VINA RESULT:      -7.1      0.900      1.376
REMARK  Name = 
REMARK  14 active torsions:
REMARK  status: ('A' for Active; 'I' for Inactive)
REMARK    1  A    between atoms: C_1  and  C_2
REMARK    2  A    between atoms: C_2  and  O_3
REMARK    3  A    between atoms: O_3  and  C_4
REMARK    4  A    between atoms: C_7  and  C_8
REMARK    5  A    between atoms: N_9  and  N_10
REMARK    6  A    between atoms: N_13  and  C_14
REMARK    7  A    between atoms: C_15  and  C_16
REMARK    8  A    between atoms: C_19  and  C_20
REMARK    9  A    between atoms: C_20  and  C_21
REMARK   10  A    between atoms: C_20  and  C_22
REMARK   11  A    between atoms: C_20  and  C_23
REMARK   12  A    between atoms: C_27  and  O_28
REMARK   13  A    between atoms: O_28  and  C_29
REMARK   14  A    between atoms: C_29  and  C_30
REMARK                            x       y       z     vdW  Elec       q    Type
REMARK                         _______ _______ _______ _____ _____    ______ ____
ROOT
ATOM      1  N   UNL     1       1.847   7.116  20.773  0.00  0.00    +0.000 N 
ATOM      2  C   UNL     1       1.282   8.386  20.664  0.00  0.00    +0.000 C 
ATOM      3  O   UNL     1       1.519   9.149  19.728  0.00  0.00    +0.000 OA
ATOM      4  N   UNL     1       0.422   8.709  21.706  0.00  0.00    +0.000 N 
ATOM      5  H   UNL     1       1.662   6.514  21.562  0.00  0.00    +0.000 HD
ATOM      6  H   UNL     1       0.246   8.035  22.434  0.00  0.00    +0.000 HD
ENDROOT
BRANCH   1   8
ATOM      7  C   UNL     1       3.055   5.472  19.729  0.00  0.00    +0.000 C 
ATOM      8  N   UNL     1       2.717   6.718  19.797  0.00  0.00    +0.000 NA
BRANCH   7  12
ATOM      9  C   UNL     1       5.763   4.261  16.618  0.00  0.00    +0.000 A 
ATOM     10  C   UNL     1       4.588   3.540  16.867  0.00  0.00    +0.000 A 
ATOM     11  C   UNL     1       3.718   3.922  17.890  0.00  0.00    +0.000 A 
ATOM     12  C   UNL     1       4.021   5.021  18.694  0.00  0.00    +0.000 A 
ATOM     13  C   UNL     1       5.230   5.696  18.509  0.00  0.00    +0.000 A 
ATOM     14  C   UNL     1       6.123   5.302  17.495  0.00  0.00    +0.000 A 
BRANCH   9  15
ATOM     15  O   UNL     1       6.560   3.999  15.534  0.00  0.00    +0.000 OA
BRANCH  15  17
ATOM     16  C   UNL     1       6.046   3.731  13.201  0.00  0.00    +0.000 C 
ATOM     17  C   UNL     1       6.265   4.720  14.333  0.00  0.00    +0.000 C 
ENDBRANCH  15  17
ENDBRANCH   9  15
BRANCH  14  18
ATOM     18  O   UNL     1       7.273   6.056  17.466  0.00  0.00    +0.000 OA
BRANCH  18  19
ATOM     19  C   UNL     1       7.138   7.454  17.206  0.00  0.00    +0.000 C 
ATOM     20  C   UNL     1       8.162   8.205  18.043  0.00  0.00    +0.000 C 
ENDBRANCH  18  19
ENDBRANCH  14  18
ENDBRANCH   7  12
ENDBRANCH   1   8
BRANCH   4  21
ATOM     21  C   UNL     1      -0.241   9.920  21.735  0.00  0.00    +0.000 C 
ATOM     22  C   UNL     1      -0.757  10.497  22.832  0.00  0.00    +0.000 C 
BRANCH  22  23
ATOM     23  C   UNL     1      -1.509  11.774  22.777  0.00  0.00    +0.000 A 
ATOM     24  C   UNL     1      -1.092  12.838  21.972  0.00  0.00    +0.000 A 
ATOM     25  C   UNL     1      -1.822  14.033  21.898  0.00  0.00    +0.000 A 
ATOM     26  C   UNL     1      -3.015  14.214  22.612  0.00  0.00    +0.000 A 
ATOM     27  C   UNL     1      -3.438  13.135  23.412  0.00  0.00    +0.000 A 
ATOM     28  C   UNL     1      -2.704  11.934  23.488  0.00  0.00    +0.000 A 
BRANCH  26  29
ATOM     29  C   UNL     1      -3.844  15.512  22.511  0.00  0.00    +0.000 C 
ATOM     30  C   UNL     1      -3.380  16.616  23.491  0.00  0.00    +0.000 C 
ATOM     31  C   UNL     1      -3.733  16.095  21.085  0.00  0.00    +0.000 C 
ATOM     32  C   UNL     1      -5.332  15.237  22.819  0.00  0.00    +0.000 C 
ENDBRANCH  26  29
ENDBRANCH  22  23
ENDBRANCH   4  21
TORSDOF 9
ENDMDL
MODEL 3
REMARK VINA RESULT:      -7.0      0.935      1.315
REMARK  Name = 
REMARK  14 active torsions:
REMARK  status: ('A' for Active; 'I' for Inactive)
REMARK    1  A    between atoms: C_1  and  C_2
REMARK    2  A    between atoms: C_2  and  O_3
REMARK    3  A    between atoms: O_3  and  C_4
REMARK    4  A    between atoms: C_7  and  C_8
REMARK    5  A    between atoms: N_9  and  N_10
REMARK    6  A    between atoms: N_13  and  C_14
REMARK    7  A    between atoms: C_15  and  C_16
REMARK    8  A    between atoms: C_19  and  C_20
REMARK    9  A    between atoms: C_20  and  C_21
REMARK   10  A    between atoms: C_20  and  C_22
REMARK   11  A    between atoms: C_20  and  C_23
REMARK   12  A    between atoms: C_27  and  O_28
REMARK   13  A    between atoms: O_28  and  C_29
REMARK   14  A    between atoms: C_29  and  C_30
REMARK                            x       y       z     vdW  Elec       q    Type
REMARK                         _______ _______ _______ _____ _____    ______ ____
ROOT
ATOM      1  N   UNL     1       1.497   7.278  20.905  0.00  0.00    +0.000 N 
ATOM      2  C   UNL     1       1.028   8.590  20.896  0.00  0.00    +0.000 C 
ATOM      3  O   UNL     1       1.377   9.424  20.061  0.00  0.00    +0.000 OA
ATOM      4  N   UNL     1       0.124   8.870  21.913  0.00  0.00    +0.000 N 
ATOM      5  H   UNL     1       1.220   6.615  21.615  0.00  0.00    +0.000 HD
ATOM      6  H   UNL     1      -0.145   8.142  22.556  0.00  0.00    +0.000 HD
ENDROOT
BRANCH   1   8
ATOM      7  C   UNL     1       2.451   5.682  19.565  0.00  0.00    +0.000 C 
ATOM      8  N   UNL     1       2.402   6.916  19.947  0.00  0.00    +0.000 NA
BRANCH   7  12
ATOM      9  C   UNL     1       5.208   4.489  16.491  0.00  0.00    +0.000 A 
ATOM     10  C   UNL     1       4.341   3.557  17.078  0.00  0.00    +0.000 A 
ATOM     11  C   UNL     1       3.459   3.941  18.090  0.00  0.00    +0.000 A 
ATOM     12  C   UNL     1       3.446   5.260  18.545  0.00  0.00    +0.000 A 
ATOM     13  C   UNL     1       4.363   6.177  18.026  0.00  0.00    +0.000 A 
ATOM     14  C   UNL     1       5.271   5.791  17.022  0.00  0.00    +0.000 A 
BRANCH   9  15
ATOM     15  O   UNL     1       5.979   4.176  15.401  0.00  0.00    +0.000 OA
BRANCH  15  17
ATOM     16  C   UNL     1       6.195   3.630  13.071  0.00  0.00    +0.000 C 
ATOM     17  C   UNL     1       5.379   4.371  14.115  0.00  0.00    +0.000 C 
ENDBRANCH  15  17
ENDBRANCH   9  15
BRANCH  14  18
ATOM     18  O   UNL     1       6.117   6.806  16.642  0.00  0.00    +0.000 OA
BRANCH  18  19
ATOM     19  C   UNL     1       7.486   6.707  17.039  0.00  0.00    +0.000 C 
ATOM     20  C   UNL     1       7.539   6.266  18.493  0.00  0.00    +0.000 C 
ENDBRANCH  18  19
ENDBRANCH  14  18
ENDBRANCH   7  12
ENDBRANCH   1   8
BRANCH   4  21
ATOM     21  C   UNL     1      -0.457  10.119  22.028  0.00  0.00    +0.000 C 
ATOM     22  C   UNL     1      -1.099  10.578  23.114  0.00  0.00    +0.000 C 
BRANCH  22  23
ATOM     23  C   UNL     1      -1.750  11.911  23.145  0.00  0.00    +0.000 A 
ATOM     24  C   UNL     1      -3.092  12.064  23.506  0.00  0.00    +0.000 A 
ATOM     25  C   UNL     1      -3.697  13.328  23.564  0.00  0.00    +0.000 A 
ATOM     26  C   UNL     1      -2.983  14.501  23.283  0.00  0.00    +0.000 A 
ATOM     27  C   UNL     1      -1.628  14.343  22.933  0.00  0.00    +0.000 A 
ATOM     28  C   UNL     1      -1.020  13.073  22.872  0.00  0.00    +0.000 A 
BRANCH  26  29
ATOM     29  C   UNL     1      -3.629  15.900  23.378  0.00  0.00    +0.000 C 
ATOM     30  C   UNL     1      -2.854  16.989  22.598  0.00  0.00    +0.000 C 
ATOM     31  C   UNL     1      -5.059  15.856  22.796  0.00  0.00    +0.000 C 
ATOM     32  C   UNL     1      -3.707  16.369  24.847  0.00  0.00    +0.000 C 
ENDBRANCH  26  29
ENDBRANCH  22  23
ENDBRANCH   4  21
TORSDOF 9
ENDMDL
MODEL 4
REMARK VINA RESULT:      -7.0      1.149      1.502
REMARK  Name = 
REMARK  14 active torsions:
REMARK  status: ('A' for Active; 'I' for Inactive)
REMARK    1  A    between atoms: C_1  and  C_2
REMARK    2  A    between atoms: C_2  and  O_3
REMARK    3  A    between atoms: O_3  and  C_4
REMARK    4  A    between atoms: C_7  and  C_8
REMARK    5  A    between atoms: N_9  and  N_10
REMARK    6  A    between atoms: N_13  and  C_14
REMARK    7  A    between atoms: C_15  and  C_16
REMARK    8  A    between atoms: C_19  and  C_20
REMARK    9  A    between atoms: C_20  and  C_21
REMARK   10  A    between atoms: C_20  and  C_22
REMARK   11  A    between atoms: C_20  and  C_23
REMARK   12  A    between atoms: C_27  and  O_28
REMARK   13  A    between atoms: O_28  and  C_29
REMARK   14  A    between atoms: C_29  and  C_30
REMARK                            x       y       z     vdW  Elec       q    Type
REMARK                         _______ _______ _______ _____ _____    ______ ____
ROOT
ATOM      1  N   UNL     1       1.721   7.123  20.400  0.00  0.00    +0.000 N 
ATOM      2  C   UNL     1       1.154   8.396  20.386  0.00  0.00    +0.000 C 
ATOM      3  O   UNL     1       1.268   9.173  19.439  0.00  0.00    +0.000 OA
ATOM      4  N   UNL     1       0.441   8.705  21.537  0.00  0.00    +0.000 N 
ATOM      5  H   UNL     1       1.640   6.509  21.197  0.00  0.00    +0.000 HD
ATOM      6  H   UNL     1       0.359   8.020  22.273  0.00  0.00    +0.000 HD
ENDROOT
BRANCH   1   8
ATOM      7  C   UNL     1       3.562   6.099  19.497  0.00  0.00    +0.000 C 
ATOM      8  N   UNL     1       2.453   6.738  19.312  0.00  0.00    +0.000 NA
BRANCH   7  12
ATOM      9  C   UNL     1       5.862   5.039  16.024  0.00  0.00    +0.000 A 
ATOM     10  C   UNL     1       4.673   4.363  16.331  0.00  0.00    +0.000 A 
ATOM     11  C   UNL     1       3.936   4.695  17.469  0.00  0.00    +0.000 A 
ATOM     12  C   UNL     1       4.389   5.695  18.330  0.00  0.00    +0.000 A 
ATOM     13  C   UNL     1       5.614   6.317  18.078  0.00  0.00    +0.000 A 
ATOM     14  C   UNL     1       6.374   5.971  16.945  0.00  0.00    +0.000 A 
BRANCH   9  15
ATOM     15  O   UNL     1       6.527   4.836  14.842  0.00  0.00    +0.000 OA
BRANCH  15  17
ATOM     16  C   UNL     1       6.448   3.887  12.635  0.00  0.00    +0.000 C 
ATOM     17  C   UNL     1       6.192   3.650  14.113  0.00  0.00    +0.000 C 
ENDBRANCH  15  17
ENDBRANCH   9  15
BRANCH  14  18
ATOM     18  O   UNL     1       7.561   6.660  16.862  0.00  0.00    +0.000 OA
BRANCH  18  19
ATOM     19  C   UNL     1       7.968   7.413  18.006  0.00  0.00    +0.000 C 
ATOM     20  C   UNL     1       7.977   8.889  17.637  0.00  0.00    +0.000 C 
ENDBRANCH  18  19
ENDBRANCH  14  18
ENDBRANCH   7  12
ENDBRANCH   1   8
BRANCH   4  21
ATOM     21  C   UNL     1      -0.208   9.918  21.672  0.00  0.00    +0.000 C 
ATOM     22  C   UNL     1      -0.577  10.475  22.836  0.00  0.00    +0.000 C 
BRANCH  22  23
ATOM     23  C   UNL     1      -1.323  11.755  22.900  0.00  0.00    +0.000 A 
ATOM     24  C   UNL     1      -2.643  11.814  23.359  0.00  0.00    +0.000 A 
ATOM     25  C   UNL     1      -3.335  13.030  23.448  0.00  0.00    +0.000 A 
ATOM     26  C   UNL     1      -2.736  14.249  23.100  0.00  0.00    +0.000 A 
ATOM     27  C   UNL     1      -1.402  14.186  22.650  0.00  0.00    +0.000 A 
ATOM     28  C   UNL     1      -0.706  12.964  22.559  0.00  0.00    +0.000 A 
BRANCH  26  29
ATOM     29  C   UNL     1      -3.477  15.596  23.227  0.00  0.00    +0.000 C 
ATOM     30  C   UNL     1      -3.800  16.251  21.862  0.00  0.00    +0.000 C 
ATOM     31  C   UNL     1      -4.821  15.387  23.959  0.00  0.00    +0.000 C 
ATOM     32  C   UNL     1      -2.632  16.614  24.023  0.00  0.00    +0.000 C 
ENDBRANCH  26  29
ENDBRANCH  22  23
ENDBRANCH   4  21
TORSDOF 9
ENDMDL
MODEL 5
REMARK VINA RESULT:      -7.0      1.237      1.789
REMARK  Name = 
REMARK  14 active torsions:
REMARK  status: ('A' for Active; 'I' for Inactive)
REMARK    1  A    between atoms: C_1  and  C_2
REMARK    2  A    between atoms: C_2  and  O_3
REMARK    3  A    between atoms: O_3  and  C_4
REMARK    4  A    between atoms: C_7  and  C_8
REMARK    5  A    between atoms: N_9  and  N_10
REMARK    6  A    between atoms: N_13  and  C_14
REMARK    7  A    between atoms: C_15  and  C_16
REMARK    8  A    between atoms: C_19  and  C_20
REMARK    9  A    between atoms: C_20  and  C_21
REMARK   10  A    between atoms: C_20  and  C_22
REMARK   11  A    between atoms: C_20  and  C_23
REMARK   12  A    between atoms: C_27  and  O_28
REMARK   13  A    between atoms: O_28  and  C_29
REMARK   14  A    between atoms: C_29  and  C_30
REMARK                            x       y       z     vdW  Elec       q    Type
REMARK                         _______ _______ _______ _____ _____    ______ ____
ROOT
ATOM      1  N   UNL     1       1.759   7.210  20.916  0.00  0.00    +0.000 N 
ATOM      2  C   UNL     1       0.979   8.363  20.988  0.00  0.00    +0.000 C 
ATOM      3  O   UNL     1       0.896   9.178  20.069  0.00  0.00    +0.000 OA
ATOM      4  N   UNL     1       0.297   8.505  22.189  0.00  0.00    +0.000 N 
ATOM      5  H   UNL     1       1.835   6.567  21.689  0.00  0.00    +0.000 HD
ATOM      6  H   UNL     1       0.382   7.794  22.898  0.00  0.00    +0.000 HD
ENDROOT
BRANCH   1   8
ATOM      7  C   UNL     1       2.987   5.825  19.564  0.00  0.00    +0.000 C 
ATOM      8  N   UNL     1       2.476   6.995  19.772  0.00  0.00    +0.000 NA
BRANCH   7  12
ATOM      9  C   UNL     1       5.194   5.170  15.934  0.00  0.00    +0.000 A 
ATOM     10  C   UNL     1       4.293   4.207  16.410  0.00  0.00    +0.000 A 
ATOM     11  C   UNL     1       3.591   4.412  17.599  0.00  0.00    +0.000 A 
ATOM     12  C   UNL     1       3.794   5.575  18.342  0.00  0.00    +0.000 A 
ATOM     13  C   UNL     1       4.750   6.503  17.920  0.00  0.00    +0.000 A 
ATOM     14  C   UNL     1       5.479   6.291  16.735  0.00  0.00    +0.000 A 
BRANCH   9  15
ATOM     15  O   UNL     1       5.786   5.063  14.702  0.00  0.00    +0.000 OA
BRANCH  15  17
ATOM     16  C   UNL     1       6.139   3.614  12.818  0.00  0.00    +0.000 C 
ATOM     17  C   UNL     1       6.250   3.762  14.325  0.00  0.00    +0.000 C 
ENDBRANCH  15  17
ENDBRANCH   9  15
BRANCH  14  18
ATOM     18  O   UNL     1       6.393   7.287  16.480  0.00  0.00    +0.000 OA
BRANCH  18  19
ATOM     19  C   UNL     1       7.203   7.733  17.571  0.00  0.00    +0.000 C 
ATOM     20  C   UNL     1       7.805   6.517  18.257  0.00  0.00    +0.000 C 
ENDBRANCH  18  19
ENDBRANCH  14  18
ENDBRANCH   7  12
ENDBRANCH   1   8
BRANCH   4  21
ATOM     21  C   UNL     1      -0.542   9.580  22.411  0.00  0.00    +0.000 C 
ATOM     22  C   UNL     1      -0.153  10.861  22.515  0.00  0.00    +0.000 C 
BRANCH  22  23
ATOM     23  C   UNL     1      -1.106  11.957  22.813  0.00  0.00    +0.000 A 
ATOM     24  C   UNL     1      -0.765  13.299  22.618  0.00  0.00    +0.000 A 
ATOM     25  C   UNL     1      -1.679  14.333  22.872  0.00  0.00    +0.000 A 
ATOM     26  C   UNL     1      -2.984  14.073  23.313  0.00  0.00    +0.000 A 
ATOM     27  C   UNL     1      -3.326  12.719  23.496  0.00  0.00    +0.000 A 
ATOM     28  C   UNL     1      -2.408  11.679  23.244  0.00  0.00    +0.000 A 
BRANCH  26  29
ATOM     29  C   UNL     1      -4.008  15.199  23.562  0.00  0.00    +0.000 C 
ATOM     30  C   UNL     1      -4.025  16.273  22.447  0.00  0.00    +0.000 C 
ATOM     31  C   UNL     1      -5.431  14.605  23.640  0.00  0.00    +0.000 C 
ATOM     32  C   UNL     1      -3.705  15.934  24.886  0.00  0.00    +0.000 C 
ENDBRANCH  26  29
ENDBRANCH  22  23
ENDBRANCH   4  21
TORSDOF 9
ENDMDL
MODEL 6
REMARK VINA RESULT:      -6.9      1.700      2.591
REMARK  Name = 
REMARK  14 active torsions:
REMARK  status: ('A' for Active; 'I' for Inactive)
REMARK    1  A    between atoms: C_1  and  C_2
REMARK    2  A    between atoms: C_2  and  O_3
REMARK    3  A    between atoms: O_3  and  C_4
REMARK    4  A    between atoms: C_7  and  C_8
REMARK    5  A    between atoms: N_9  and  N_10
REMARK    6  A    between atoms: N_13  and  C_14
REMARK    7  A    between atoms: C_15  and  C_16
REMARK    8  A    between atoms: C_19  and  C_20
REMARK    9  A    between atoms: C_20  and  C_21
REMARK   10  A    between atoms: C_20  and  C_22
REMARK   11  A    between atoms: C_20  and  C_23
REMARK   12  A    between atoms: C_27  and  O_28
REMARK   13  A    between atoms: O_28  and  C_29
REMARK   14  A    between atoms: C_29  and  C_30
REMARK                            x       y       z     vdW  Elec       q    Type
REMARK                         _______ _______ _______ _____ _____    ______ ____
ROOT
ATOM      1  N   UNL     1       0.488   8.417  21.603  0.00  0.00    +0.000 N 
ATOM      2  C   UNL     1       0.324   9.773  21.878  0.00  0.00    +0.000 C 
ATOM      3  O   UNL     1       1.050  10.649  21.406  0.00  0.00    +0.000 OA
ATOM      4  N   UNL     1      -0.739  10.049  22.728  0.00  0.00    +0.000 N 
ATOM      5  H   UNL     1      -0.100   7.711  22.021  0.00  0.00    +0.000 HD
ATOM      6  H   UNL     1      -1.316   9.295  23.066  0.00  0.00    +0.000 HD
ENDROOT
BRANCH   1   8
ATOM      7  C   UNL     1       1.574   6.835  20.350  0.00  0.00    +0.000 C 
ATOM      8  N   UNL     1       1.520   8.052  20.784  0.00  0.00    +0.000 NA
BRANCH   7  12
ATOM      9  C   UNL     1       4.937   5.706  17.922  0.00  0.00    +0.000 A 
ATOM     10  C   UNL     1       4.132   6.798  17.570  0.00  0.00    +0.000 A 
ATOM     11  C   UNL     1       3.029   7.153  18.348  0.00  0.00    +0.000 A 
ATOM     12  C   UNL     1       2.701   6.407  19.481  0.00  0.00    +0.000 A 
ATOM     13  C   UNL     1       3.446   5.267  19.794  0.00  0.00    +0.000 A 
ATOM     14  C   UNL     1       4.546   4.890  19.000  0.00  0.00    +0.000 A 
BRANCH   9  15
ATOM     15  O   UNL     1       6.105   5.423  17.263  0.00  0.00    +0.000 OA
BRANCH  15  17
ATOM     16  C   UNL     1       7.598   7.289  17.523  0.00  0.00    +0.000 C 
ATOM     17  C   UNL     1       7.318   5.844  17.898  0.00  0.00    +0.000 C 
ENDBRANCH  15  17
ENDBRANCH   9  15
BRANCH  14  18
ATOM     18  O   UNL     1       5.152   3.734  19.434  0.00  0.00    +0.000 OA
BRANCH  18  19
ATOM     19  C   UNL     1       4.329   2.575  19.585  0.00  0.00    +0.000 C 
ATOM     20  C   UNL     1       3.736   2.223  18.229  0.00  0.00    +0.000 C 
ENDBRANCH  18  19
ENDBRANCH  14  18
ENDBRANCH   7  12
ENDBRANCH   1   8
BRANCH   4  21
ATOM     21  C   UNL     1      -1.055  11.348  23.079  0.00  0.00    +0.000 C 
ATOM     22  C   UNL     1      -2.299  11.830  23.229  0.00  0.00    +0.000 C 
BRANCH  22  23
ATOM     23  C   UNL     1      -2.564  13.253  23.551  0.00  0.00    +0.000 A 
ATOM     24  C   UNL     1      -3.852  13.712  23.844  0.00  0.00    +0.000 A 
ATOM     25  C   UNL     1      -4.095  15.053  24.178  0.00  0.00    +0.000 A 
ATOM     26  C   UNL     1      -3.059  15.994  24.254  0.00  0.00    +0.000 A 
ATOM     27  C   UNL     1      -1.762  15.524  23.970  0.00  0.00    +0.000 A 
ATOM     28  C   UNL     1      -1.517  14.177  23.632  0.00  0.00    +0.000 A 
BRANCH  26  29
ATOM     29  C   UNL     1      -3.310  17.463  24.654  0.00  0.00    +0.000 C 
ATOM     30  C   UNL     1      -4.710  17.703  25.268  0.00  0.00    +0.000 C 
ATOM     31  C   UNL     1      -2.270  17.903  25.709  0.00  0.00    +0.000 C 
ATOM     32  C   UNL     1      -3.193  18.393  23.427  0.00  0.00    +0.000 C 
ENDBRANCH  26  29
ENDBRANCH  22  23
ENDBRANCH   4  21
TORSDOF 9
ENDMDL
MODEL 7
REMARK VINA RESULT:      -6.8      1.538      2.531
REMARK  Name = 
REMARK  14 active torsions:
REMARK  status: ('A' for Active; 'I' for Inactive)
REMARK    1  A    between atoms: C_1  and  C_2
REMARK    2  A    between atoms: C_2  and  O_3
REMARK    3  A    between atoms: O_3  and  C_4
REMARK    4  A    between atoms: C_7  and  C_8
REMARK    5  A    between atoms: N_9  and  N_10
REMARK    6  A    between atoms: N_13  and  C_14
REMARK    7  A    between atoms: C_15  and  C_16
REMARK    8  A    between atoms: C_19  and  C_20
REMARK    9  A    between atoms: C_20  and  C_21
REMARK   10  A    between atoms: C_20  and  C_22
REMARK   11  A    between atoms: C_20  and  C_23
REMARK   12  A    between atoms: C_27  and  O_28
REMARK   13  A    between atoms: O_28  and  C_29
REMARK   14  A    between atoms: C_29  and  C_30
REMARK                            x       y       z     vdW  Elec       q    Type
REMARK                         _______ _______ _______ _____ _____    ______ ____
ROOT
ATOM      1  N   UNL     1       1.510   8.266  21.129  0.00  0.00    +0.000 N 
ATOM      2  C   UNL     1       0.659   9.363  21.002  0.00  0.00    +0.000 C 
ATOM      3  O   UNL     1       0.315   9.827  19.915  0.00  0.00    +0.000 OA
ATOM      4  N   UNL     1       0.226   9.881  22.216  0.00  0.00    +0.000 N 
ATOM      5  H   UNL     1       1.802   7.917  22.029  0.00  0.00    +0.000 HD
ATOM      6  H   UNL     1       0.520   9.446  23.077  0.00  0.00    +0.000 HD
ENDROOT
BRANCH   1   8
ATOM      7  C   UNL     1       2.547   6.532  20.048  0.00  0.00    +0.000 C 
ATOM      8  N   UNL     1       1.996   7.700  19.984  0.00  0.00    +0.000 NA
BRANCH   7  12
ATOM      9  C   UNL     1       4.303   4.671  16.594  0.00  0.00    +0.000 A 
ATOM     10  C   UNL     1       4.625   5.990  16.940  0.00  0.00    +0.000 A 
ATOM     11  C   UNL     1       4.041   6.601  18.051  0.00  0.00    +0.000 A 
ATOM     12  C   UNL     1       3.107   5.907  18.822  0.00  0.00    +0.000 A 
ATOM     13  C   UNL     1       2.716   4.622  18.437  0.00  0.00    +0.000 A 
ATOM     14  C   UNL     1       3.285   4.009  17.305  0.00  0.00    +0.000 A 
BRANCH   9  15
ATOM     15  O   UNL     1       4.966   3.999  15.600  0.00  0.00    +0.000 OA
BRANCH  15  17
ATOM     16  C   UNL     1       6.243   3.951  13.564  0.00  0.00    +0.000 C 
ATOM     17  C   UNL     1       5.842   4.775  14.775  0.00  0.00    +0.000 C 
ENDBRANCH  15  17
ENDBRANCH   9  15
BRANCH  14  18
ATOM     18  O   UNL     1       2.771   2.758  17.055  0.00  0.00    +0.000 OA
BRANCH  18  19
ATOM     19  C   UNL     1       2.510   1.916  18.180  0.00  0.00    +0.000 C 
ATOM     20  C   UNL     1       3.791   1.180  18.544  0.00  0.00    +0.000 C 
ENDBRANCH  18  19
ENDBRANCH  14  18
ENDBRANCH   7  12
ENDBRANCH   1   8
BRANCH   4  21
ATOM     21  C   UNL     1      -0.645  10.952  22.266  0.00  0.00    +0.000 C 
ATOM     22  C   UNL     1      -1.588  11.143  23.204  0.00  0.00    +0.000 C 
BRANCH  22  23
ATOM     23  C   UNL     1      -2.528  12.288  23.161  0.00  0.00    +0.000 A 
ATOM     24  C   UNL     1      -3.691  12.313  23.936  0.00  0.00    +0.000 A 
ATOM     25  C   UNL     1      -4.563  13.412  23.916  0.00  0.00    +0.000 A 
ATOM     26  C   UNL     1      -4.303  14.547  23.135  0.00  0.00    +0.000 A 
ATOM     27  C   UNL     1      -3.124  14.522  22.365  0.00  0.00    +0.000 A 
ATOM     28  C   UNL     1      -2.248  13.417  22.382  0.00  0.00    +0.000 A 
BRANCH  26  29
ATOM     29  C   UNL     1      -5.237  15.775  23.132  0.00  0.00    +0.000 C 
ATOM     30  C   UNL     1      -5.594  16.273  21.711  0.00  0.00    +0.000 C 
ATOM     31  C   UNL     1      -6.566  15.423  23.837  0.00  0.00    +0.000 C 
ATOM     32  C   UNL     1      -4.584  16.962  23.873  0.00  0.00    +0.000 C 
ENDBRANCH  26  29
ENDBRANCH  22  23
ENDBRANCH   4  21
TORSDOF 9
ENDMDL
MODEL 8
REMARK VINA RESULT:      -6.8      2.492      3.284
REMARK  Name = 
REMARK  14 active torsions:
REMARK  status: ('A' for Active; 'I' for Inactive)
REMARK    1  A    between atoms: C_1  and  C_2
REMARK    2  A    between atoms: C_2  and  O_3
REMARK    3  A    between atoms: O_3  and  C_4
REMARK    4  A    between atoms: C_7  and  C_8
REMARK    5  A    between atoms: N_9  and  N_10
REMARK    6  A    between atoms: N_13  and  C_14
REMARK    7  A    between atoms: C_15  and  C_16
REMARK    8  A    between atoms: C_19  and  C_20
REMARK    9  A    between atoms: C_20  and  C_21
REMARK   10  A    between atoms: C_20  and  C_22
REMARK   11  A    between atoms: C_20  and  C_23
REMARK   12  A    between atoms: C_27  and  O_28
REMARK   13  A    between atoms: O_28  and  C_29
REMARK   14  A    between atoms: C_29  and  C_30
REMARK                            x       y       z     vdW  Elec       q    Type
REMARK                         _______ _______ _______ _____ _____    ______ ____
ROOT
ATOM      1  N   UNL     1       1.466  10.524  17.936  0.00  0.00    +0.000 N 
ATOM      2  C   UNL     1       0.393  10.883  18.750  0.00  0.00    +0.000 C 
ATOM      3  O   UNL     1       0.148  10.331  19.823  0.00  0.00    +0.000 OA
ATOM      4  N   UNL     1      -0.372  11.926  18.244  0.00  0.00    +0.000 N 
ATOM      5  H   UNL     1       1.635  10.970  17.047  0.00  0.00    +0.000 HD
ATOM      6  H   UNL     1      -0.111  12.357  17.371  0.00  0.00    +0.000 HD
ENDROOT
BRANCH   1   8
ATOM      7  C   UNL     1       2.107   8.327  17.823  0.00  0.00    +0.000 C 
ATOM      8  N   UNL     1       2.267   9.497  18.350  0.00  0.00    +0.000 NA
BRANCH   7  12
ATOM      9  C   UNL     1       4.435   4.925  19.042  0.00  0.00    +0.000 A 
ATOM     10  C   UNL     1       3.305   5.321  19.772  0.00  0.00    +0.000 A 
ATOM     11  C   UNL     1       2.560   6.437  19.386  0.00  0.00    +0.000 A 
ATOM     12  C   UNL     1       2.947   7.188  18.276  0.00  0.00    +0.000 A 
ATOM     13  C   UNL     1       4.118   6.852  17.591  0.00  0.00    +0.000 A 
ATOM     14  C   UNL     1       4.887   5.742  17.989  0.00  0.00    +0.000 A 
BRANCH   9  15
ATOM     15  O   UNL     1       5.098   3.756  19.309  0.00  0.00    +0.000 OA
BRANCH  15  17
ATOM     16  C   UNL     1       3.577   2.058  18.546  0.00  0.00    +0.000 C 
ATOM     17  C   UNL     1       4.298   2.650  19.744  0.00  0.00    +0.000 C 
ENDBRANCH  15  17
ENDBRANCH   9  15
BRANCH  14  18
ATOM     18  O   UNL     1       6.017   5.568  17.225  0.00  0.00    +0.000 OA
BRANCH  18  19
ATOM     19  C   UNL     1       6.908   6.679  17.104  0.00  0.00    +0.000 C 
ATOM     20  C   UNL     1       7.806   6.716  18.331  0.00  0.00    +0.000 C 
ENDBRANCH  18  19
ENDBRANCH  14  18
ENDBRANCH   7  12
ENDBRANCH   1   8
BRANCH   4  21
ATOM     21  C   UNL     1      -1.456  12.421  18.942  0.00  0.00    +0.000 C 
ATOM     22  C   UNL     1      -1.387  13.197  20.036  0.00  0.00    +0.000 C 
BRANCH  22  23
ATOM     23  C   UNL     1      -2.596  13.644  20.769  0.00  0.00    +0.000 A 
ATOM     24  C   UNL     1      -3.438  12.737  21.420  0.00  0.00    +0.000 A 
ATOM     25  C   UNL     1      -4.564  13.166  22.138  0.00  0.00    +0.000 A 
ATOM     26  C   UNL     1      -4.891  14.523  22.256  0.00  0.00    +0.000 A 
ATOM     27  C   UNL     1      -4.033  15.434  21.609  0.00  0.00    +0.000 A 
ATOM     28  C   UNL     1      -2.903  15.004  20.885  0.00  0.00    +0.000 A 
BRANCH  26  29
ATOM     29  C   UNL     1      -6.108  15.008  23.072  0.00  0.00    +0.000 C 
ATOM     30  C   UNL     1      -6.839  13.869  23.823  0.00  0.00    +0.000 C 
ATOM     31  C   UNL     1      -5.650  16.032  24.134  0.00  0.00    +0.000 C 
ATOM     32  C   UNL     1      -7.151  15.681  22.153  0.00  0.00    +0.000 C 
ENDBRANCH  26  29
ENDBRANCH  22  23
ENDBRANCH   4  21
TORSDOF 9
ENDMDL
MODEL 9
REMARK VINA RESULT:      -6.6      2.649      3.565
REMARK  Name = 
REMARK  14 active torsions:
REMARK  status: ('A' for Active; 'I' for Inactive)
REMARK    1  A    between atoms: C_1  and  C_2
REMARK    2  A    between atoms: C_2  and  O_3
REMARK    3  A    between atoms: O_3  and  C_4
REMARK    4  A    between atoms: C_7  and  C_8
REMARK    5  A    between atoms: N_9  and  N_10
REMARK    6  A    between atoms: N_13  and  C_14
REMARK    7  A    between atoms: C_15  and  C_16
REMARK    8  A    between atoms: C_19  and  C_20
REMARK    9  A    between atoms: C_20  and  C_21
REMARK   10  A    between atoms: C_20  and  C_22
REMARK   11  A    between atoms: C_20  and  C_23
REMARK   12  A    between atoms: C_27  and  O_28
REMARK   13  A    between atoms: O_28  and  C_29
REMARK   14  A    between atoms: C_29  and  C_30
REMARK                            x       y       z     vdW  Elec       q    Type
REMARK                         _______ _______ _______ _____ _____    ______ ____
ROOT
ATOM      1  N   UNL     1       0.755   9.771  17.880  0.00  0.00    +0.000 N 
ATOM      2  C   UNL     1      -0.089  10.414  18.784  0.00  0.00    +0.000 C 
ATOM      3  O   UNL     1      -0.214  10.061  19.956  0.00  0.00    +0.000 OA
ATOM      4  N   UNL     1      -0.771  11.496  18.243  0.00  0.00    +0.000 N 
ATOM      5  H   UNL     1       0.824  10.058  16.915  0.00  0.00    +0.000 HD
ATOM      6  H   UNL     1      -0.612  11.756  17.282  0.00  0.00    +0.000 HD
ENDROOT
BRANCH   1   8
ATOM      7  C   UNL     1       2.541   8.345  17.705  0.00  0.00    +0.000 C 
ATOM      8  N   UNL     1       1.457   8.685  18.323  0.00  0.00    +0.000 NA
BRANCH   7  12
ATOM      9  C   UNL     1       4.650   4.796  18.901  0.00  0.00    +0.000 A 
ATOM     10  C   UNL     1       3.538   5.249  19.625  0.00  0.00    +0.000 A 
ATOM     11  C   UNL     1       2.865   6.412  19.248  0.00  0.00    +0.000 A 
ATOM     12  C   UNL     1       3.307   7.153  18.151  0.00  0.00    +0.000 A 
ATOM     13  C   UNL     1       4.462   6.756  17.472  0.00  0.00    +0.000 A 
ATOM     14  C   UNL     1       5.159   5.597  17.862  0.00  0.00    +0.000 A 
BRANCH   9  15
ATOM     15  O   UNL     1       5.239   3.585  19.158  0.00  0.00    +0.000 OA
BRANCH  15  17
ATOM     16  C   UNL     1       3.608   2.166  18.109  0.00  0.00    +0.000 C 
ATOM     17  C   UNL     1       4.359   2.480  19.391  0.00  0.00    +0.000 C 
ENDBRANCH  15  17
ENDBRANCH   9  15
BRANCH  14  18
ATOM     18  O   UNL     1       6.284   5.366  17.106  0.00  0.00    +0.000 OA
BRANCH  18  19
ATOM     19  C   UNL     1       6.126   5.318  15.686  0.00  0.00    +0.000 C 
ATOM     20  C   UNL     1       5.694   3.913  15.294  0.00  0.00    +0.000 C 
ENDBRANCH  18  19
ENDBRANCH  14  18
ENDBRANCH   7  12
ENDBRANCH   1   8
BRANCH   4  21
ATOM     21  C   UNL     1      -1.627  12.259  19.014  0.00  0.00    +0.000 C 
ATOM     22  C   UNL     1      -2.898  11.942  19.308  0.00  0.00    +0.000 C 
BRANCH  22  23
ATOM     23  C   UNL     1      -3.776  12.841  20.095  0.00  0.00    +0.000 A 
ATOM     24  C   UNL     1      -3.273  13.965  20.757  0.00  0.00    +0.000 A 
ATOM     25  C   UNL     1      -4.112  14.830  21.475  0.00  0.00    +0.000 A 
ATOM     26  C   UNL     1      -5.496  14.624  21.550  0.00  0.00    +0.000 A 
ATOM     27  C   UNL     1      -6.000  13.497  20.871  0.00  0.00    +0.000 A 
ATOM     28  C   UNL     1      -5.158  12.625  20.151  0.00  0.00    +0.000 A 
BRANCH  26  29
ATOM     29  C   UNL     1      -6.432  15.588  22.308  0.00  0.00    +0.000 C 
ATOM     30  C   UNL     1      -7.917  15.151  22.285  0.00  0.00    +0.000 C 
ATOM     31  C   UNL     1      -6.007  15.672  23.791  0.00  0.00    +0.000 C 
ATOM     32  C   UNL     1      -6.373  17.004  21.696  0.00  0.00    +0.000 C 
ENDBRANCH  26  29
ENDBRANCH  22  23
ENDBRANCH   4  21
TORSDOF 9
ENDMDL
