MODEL 1
REMARK VINA RESULT:      -8.1      0.000      0.000
REMARK  Name = 
REMARK  6 active torsions:
REMARK  status: ('A' for Active; 'I' for Inactive)
REMARK    1  A    between atoms: C_1  and  O_2
REMARK    2  A    between atoms: O_2  and  C_3
REMARK    3  A    between atoms: C_6  and  C_7
REMARK    4  A    between atoms: C_7  and  C_8
REMARK    5  A    between atoms: C_7  and  O_9
REMARK    6  A    between atoms: C_7  and  C_10
REMARK                            x       y       z     vdW  Elec       q    Type
REMARK                         _______ _______ _______ _____ _____    ______ ____
ROOT
ATOM      1  C   UNL     1       2.094   3.678  18.115  0.00  0.00    +0.000 C 
ATOM      2  C   UNL     1       1.094   2.782  18.852  0.00  0.00    +0.000 C 
ENDROOT
BRANCH   1   3
ATOM      3  C   UNL     1       3.548   3.061  17.910  0.00  0.00    +0.000 A 
ATOM      4  N   UNL     1       3.826   2.261  18.953  0.00  0.00    +0.000 NA
ATOM      5  C   UNL     1       4.733   2.730  19.807  0.00  0.00    +0.000 A 
ATOM      6  N   UNL     1       5.534   3.776  19.599  0.00  0.00    +0.000 NA
ATOM      7  C   UNL     1       5.592   4.227  18.345  0.00  0.00    +0.000 A 
ATOM      8  C   UNL     1       6.705   4.999  17.958  0.00  0.00    +0.000 A 
ATOM      9 CL   UNL     1       7.759   5.686  19.159  0.00  0.00    +0.000 Cl
ATOM     10  C   UNL     1       7.079   5.129  16.632  0.00  0.00    +0.000 A 
ATOM     11  C   UNL     1       6.281   4.545  15.651  0.00  0.00    +0.000 A 
ATOM     12  C   UNL     1       5.047   3.956  16.009  0.00  0.00    +0.000 A 
ATOM     13  C   UNL     1       4.652   3.812  17.382  0.00  0.00    +0.000 A 
ENDBRANCH   1   3
BRANCH   1  17
ATOM     14  C   UNL     1       1.852   7.569  20.303  0.00  0.00    +0.000 A 
ATOM     15  C   UNL     1       1.545   6.356  20.916  0.00  0.00    +0.000 A 
ATOM     16  C   UNL     1       1.648   5.135  20.223  0.00  0.00    +0.000 A 
ATOM     17  C   UNL     1       2.069   5.072  18.879  0.00  0.00    +0.000 A 
ATOM     18  C   UNL     1       2.381   6.316  18.278  0.00  0.00    +0.000 A 
ATOM     19  C   UNL     1       2.272   7.548  18.977  0.00  0.00    +0.000 A 
BRANCH  14  21
ATOM     20  C   UNL     1       0.367   8.861  21.674  0.00  0.00    +0.000 C 
ATOM     21  O   UNL     1       1.648   8.674  21.083  0.00  0.00    +0.000 OA
ENDBRANCH  14  21
ENDBRANCH   1  17
BRANCH   1  22
ATOM     22  O   UNL     1       1.573   3.847  16.778  0.00  0.00    +0.000 OA
ATOM     23  H   UNL     1       0.610   3.917  16.831  0.00  0.00    +0.000 HD
ENDBRANCH   1  22
TORSDOF 4
ENDMDL
MODEL 2
REMARK VINA RESULT:      -7.8      0.271      1.054
REMARK  Name = 
REMARK  6 active torsions:
REMARK  status: ('A' for Active; 'I' for Inactive)
REMARK    1  A    between atoms: C_1  and  O_2
REMARK    2  A    between atoms: O_2  and  C_3
REMARK    3  A    between atoms: C_6  and  C_7
REMARK    4  A    between atoms: C_7  and  C_8
REMARK    5  A    between atoms: C_7  and  O_9
REMARK    6  A    between atoms: C_7  and  C_10
REMARK                            x       y       z     vdW  Elec       q    Type
REMARK                         _______ _______ _______ _____ _____    ______ ____
ROOT
ATOM      1  C   UNL     1       2.128   3.445  18.010  0.00  0.00    +0.000 C 
ATOM      2  C   UNL     1       1.131   2.473  18.649  0.00  0.00    +0.000 C 
ENDROOT
BRANCH   1   3
ATOM      3  C   UNL     1       3.622   2.909  17.879  0.00  0.00    +0.000 A 
ATOM      4  N   UNL     1       3.886   2.112  18.927  0.00  0.00    +0.000 NA
ATOM      5  C   UNL     1       4.720   2.618  19.833  0.00  0.00    +0.000 A 
ATOM      6  N   UNL     1       5.473   3.708  19.679  0.00  0.00    +0.000 NA
ATOM      7  C   UNL     1       5.573   4.177  18.435  0.00  0.00    +0.000 A 
ATOM      8  C   UNL     1       6.663   5.011  18.115  0.00  0.00    +0.000 A 
ATOM      9 CL   UNL     1       7.612   5.739  19.378  0.00  0.00    +0.000 Cl
ATOM     10  C   UNL     1       7.100   5.177  16.813  0.00  0.00    +0.000 A 
ATOM     11  C   UNL     1       6.388   4.563  15.785  0.00  0.00    +0.000 A 
ATOM     12  C   UNL     1       5.171   3.906  16.070  0.00  0.00    +0.000 A 
ATOM     13  C   UNL     1       4.711   3.724  17.418  0.00  0.00    +0.000 A 
ENDBRANCH   1   3
BRANCH   1  17
ATOM     14  C   UNL     1       1.893   7.304  20.254  0.00  0.00    +0.000 A 
ATOM     15  C   UNL     1       2.298   7.248  18.923  0.00  0.00    +0.000 A 
ATOM     16  C   UNL     1       2.345   6.029  18.220  0.00  0.00    +0.000 A 
ATOM     17  C   UNL     1       1.983   4.805  18.819  0.00  0.00    +0.000 A 
ATOM     18  C   UNL     1       1.569   4.888  20.171  0.00  0.00    +0.000 A 
ATOM     19  C   UNL     1       1.526   6.118  20.881  0.00  0.00    +0.000 A 
BRANCH  14  21
ATOM     20  C   UNL     1       0.986   8.893  21.805  0.00  0.00    +0.000 C 
ATOM     21  O   UNL     1       1.953   8.548  20.820  0.00  0.00    +0.000 OA
ENDBRANCH  14  21
ENDBRANCH   1  17
BRANCH   1  22
ATOM     22  O   UNL     1       1.685   3.640  16.649  0.00  0.00    +0.000 OA
ATOM     23  H   UNL     1       2.287   3.164  16.059  0.00  0.00    +0.000 HD
ENDBRANCH   1  22
TORSDOF 4
ENDMDL
MODEL 3
REMARK VINA RESULT:      -7.4      1.011      1.502
REMARK  Name = 
REMARK  6 active torsions:
REMARK  status: ('A' for Active; 'I' for Inactive)
REMARK    1  A    between atoms: C_1  and  O_2
REMARK    2  A    between atoms: O_2  and  C_3
REMARK    3  A    between atoms: C_6  and  C_7
REMARK    4  A    between atoms: C_7  and  C_8
REMARK    5  A    between atoms: C_7  and  O_9
REMARK    6  A    between atoms: C_7  and  C_10
REMARK                            x       y       z     vdW  Elec       q    Type
REMARK                         _______ _______ _______ _____ _____    ______ ____
ROOT
ATOM      1  C   UNL     1       2.704   3.618  18.200  0.00  0.00    +0.000 C 
ATOM      2  C   UNL     1       1.937   2.547  18.982  0.00  0.00    +0.000 C 
ENDROOT
BRANCH   1   3
ATOM      3  C   UNL     1       4.269   3.367  18.046  0.00  0.00    +0.000 A 
ATOM      4  N   UNL     1       4.807   3.247  19.270  0.00  0.00    +0.000 NA
ATOM      5  C   UNL     1       5.558   4.272  19.668  0.00  0.00    +0.000 A 
ATOM      6  N   UNL     1       5.999   5.263  18.893  0.00  0.00    +0.000 NA
ATOM      7  C   UNL     1       5.879   5.074  17.578  0.00  0.00    +0.000 A 
ATOM      8  C   UNL     1       6.696   5.828  16.712  0.00  0.00    +0.000 A 
ATOM      9 CL   UNL     1       7.531   7.237  17.295  0.00  0.00    +0.000 Cl
ATOM     10  C   UNL     1       6.972   5.412  15.421  0.00  0.00    +0.000 A 
ATOM     11  C   UNL     1       6.356   4.257  14.943  0.00  0.00    +0.000 A 
ATOM     12  C   UNL     1       5.369   3.615  15.724  0.00  0.00    +0.000 A 
ATOM     13  C   UNL     1       5.079   4.035  17.065  0.00  0.00    +0.000 A 
ENDBRANCH   1   3
BRANCH   1  17
ATOM     14  C   UNL     1       1.793   7.573  20.076  0.00  0.00    +0.000 A 
ATOM     15  C   UNL     1       2.260   7.466  18.768  0.00  0.00    +0.000 A 
ATOM     16  C   UNL     1       2.521   6.213  18.180  0.00  0.00    +0.000 A 
ATOM     17  C   UNL     1       2.321   5.004  18.878  0.00  0.00    +0.000 A 
ATOM     18  C   UNL     1       1.841   5.137  20.203  0.00  0.00    +0.000 A 
ATOM     19  C   UNL     1       1.582   6.402  20.797  0.00  0.00    +0.000 A 
BRANCH  14  21
ATOM     20  C   UNL     1       0.604   9.653  19.969  0.00  0.00    +0.000 C 
ATOM     21  O   UNL     1       1.642   8.855  20.528  0.00  0.00    +0.000 OA
ENDBRANCH  14  21
ENDBRANCH   1  17
BRANCH   1  22
ATOM     22  O   UNL     1       2.189   3.578  16.851  0.00  0.00    +0.000 OA
ATOM     23  H   UNL     1       2.682   2.909  16.354  0.00  0.00    +0.000 HD
ENDBRANCH   1  22
TORSDOF 4
ENDMDL
MODEL 4
REMARK VINA RESULT:      -7.3      3.045      6.417
REMARK  Name = 
REMARK  6 active torsions:
REMARK  status: ('A' for Active; 'I' for Inactive)
REMARK    1  A    between atoms: C_1  and  O_2
REMARK    2  A    between atoms: O_2  and  C_3
REMARK    3  A    between atoms: C_6  and  C_7
REMARK    4  A    between atoms: C_7  and  C_8
REMARK    5  A    between atoms: C_7  and  O_9
REMARK    6  A    between atoms: C_7  and  C_10
REMARK                            x       y       z     vdW  Elec       q    Type
REMARK                         _______ _______ _______ _____ _____    ______ ____
ROOT
ATOM      1  C   UNL     1       5.200   5.644  17.280  0.00  0.00    +0.000 C 
ATOM      2  C   UNL     1       6.150   4.996  18.293  0.00  0.00    +0.000 C 
ENDROOT
BRANCH   1   3
ATOM      3  C   UNL     1       3.647   5.440  17.569  0.00  0.00    +0.000 A 
ATOM      4  N   UNL     1       3.143   6.592  18.040  0.00  0.00    +0.000 NA
ATOM      5  C   UNL     1       2.832   6.592  19.334  0.00  0.00    +0.000 A 
ATOM      6  N   UNL     1       2.758   5.517  20.120  0.00  0.00    +0.000 NA
ATOM      7  C   UNL     1       2.757   4.338  19.497  0.00  0.00    +0.000 A 
ATOM      8  C   UNL     1       2.245   3.216  20.178  0.00  0.00    +0.000 A 
ATOM      9 CL   UNL     1       2.001   3.269  21.899  0.00  0.00    +0.000 Cl
ATOM     10  C   UNL     1       1.793   2.094  19.505  0.00  0.00    +0.000 A 
ATOM     11  C   UNL     1       1.929   2.046  18.119  0.00  0.00    +0.000 A 
ATOM     12  C   UNL     1       2.639   3.067  17.448  0.00  0.00    +0.000 A 
ATOM     13  C   UNL     1       3.106   4.237  18.136  0.00  0.00    +0.000 A 
ENDBRANCH   1   3
BRANCH   1  17
ATOM     14  C   UNL     1       6.498   4.049  13.311  0.00  0.00    +0.000 A 
ATOM     15  C   UNL     1       5.191   3.909  13.772  0.00  0.00    +0.000 A 
ATOM     16  C   UNL     1       4.788   4.436  15.013  0.00  0.00    +0.000 A 
ATOM     17  C   UNL     1       5.680   5.136  15.853  0.00  0.00    +0.000 A 
ATOM     18  C   UNL     1       7.001   5.270  15.361  0.00  0.00    +0.000 A 
ATOM     19  C   UNL     1       7.408   4.734  14.110  0.00  0.00    +0.000 A 
BRANCH  14  21
ATOM     20  C   UNL     1       5.858   2.424  11.668  0.00  0.00    +0.000 C 
ATOM     21  O   UNL     1       6.754   3.435  12.115  0.00  0.00    +0.000 OA
ENDBRANCH  14  21
ENDBRANCH   1  17
BRANCH   1  22
ATOM     22  O   UNL     1       5.411   7.069  17.385  0.00  0.00    +0.000 OA
ATOM     23  H   UNL     1       5.116   7.484  16.562  0.00  0.00    +0.000 HD
ENDBRANCH   1  22
TORSDOF 4
ENDMDL
MODEL 5
REMARK VINA RESULT:      -7.2      3.097      5.370
REMARK  Name = 
REMARK  6 active torsions:
REMARK  status: ('A' for Active; 'I' for Inactive)
REMARK    1  A    between atoms: C_1  and  O_2
REMARK    2  A    between atoms: O_2  and  C_3
REMARK    3  A    between atoms: C_6  and  C_7
REMARK    4  A    between atoms: C_7  and  C_8
REMARK    5  A    between atoms: C_7  and  O_9
REMARK    6  A    between atoms: C_7  and  C_10
REMARK                            x       y       z     vdW  Elec       q    Type
REMARK                         _______ _______ _______ _____ _____    ______ ____
ROOT
ATOM      1  C   UNL     1       5.165   4.716  16.709  0.00  0.00    +0.000 C 
ATOM      2  C   UNL     1       5.377   4.879  15.201  0.00  0.00    +0.000 C 
ENDROOT
BRANCH   1   3
ATOM      3  C   UNL     1       3.659   4.851  17.209  0.00  0.00    +0.000 A 
ATOM      4  N   UNL     1       3.434   6.130  17.553  0.00  0.00    +0.000 NA
ATOM      5  C   UNL     1       3.321   6.359  18.860  0.00  0.00    +0.000 A 
ATOM      6  N   UNL     1       3.179   5.430  19.806  0.00  0.00    +0.000 NA
ATOM      7  C   UNL     1       2.885   4.201  19.378  0.00  0.00    +0.000 A 
ATOM      8  C   UNL     1       2.293   3.297  20.282  0.00  0.00    +0.000 A 
ATOM      9 CL   UNL     1       2.316   3.619  21.990  0.00  0.00    +0.000 Cl
ATOM     10  C   UNL     1       1.562   2.203  19.849  0.00  0.00    +0.000 A 
ATOM     11  C   UNL     1       1.484   1.949  18.482  0.00  0.00    +0.000 A 
ATOM     12  C   UNL     1       2.252   2.719  17.580  0.00  0.00    +0.000 A 
ATOM     13  C   UNL     1       3.009   3.858  18.018  0.00  0.00    +0.000 A 
ENDBRANCH   1   3
BRANCH   1  17
ATOM     14  C   UNL     1       8.115   7.564  18.492  0.00  0.00    +0.000 A 
ATOM     15  C   UNL     1       7.334   7.903  17.389  0.00  0.00    +0.000 A 
ATOM     16  C   UNL     1       6.392   7.006  16.851  0.00  0.00    +0.000 A 
ATOM     17  C   UNL     1       6.184   5.723  17.399  0.00  0.00    +0.000 A 
ATOM     18  C   UNL     1       6.984   5.402  18.522  0.00  0.00    +0.000 A 
ATOM     19  C   UNL     1       7.938   6.307  19.061  0.00  0.00    +0.000 A 
BRANCH  14  21
ATOM     20  C   UNL     1       8.770   9.870  18.517  0.00  0.00    +0.000 C 
ATOM     21  O   UNL     1       9.025   8.514  18.864  0.00  0.00    +0.000 OA
ENDBRANCH  14  21
ENDBRANCH   1  17
BRANCH   1  22
ATOM     22  O   UNL     1       5.538   3.356  17.024  0.00  0.00    +0.000 OA
ATOM     23  H   UNL     1       5.075   3.090  17.831  0.00  0.00    +0.000 HD
ENDBRANCH   1  22
TORSDOF 4
ENDMDL
MODEL 6
REMARK VINA RESULT:      -7.2      2.979      6.212
REMARK  Name = 
REMARK  6 active torsions:
REMARK  status: ('A' for Active; 'I' for Inactive)
REMARK    1  A    between atoms: C_1  and  O_2
REMARK    2  A    between atoms: O_2  and  C_3
REMARK    3  A    between atoms: C_6  and  C_7
REMARK    4  A    between atoms: C_7  and  C_8
REMARK    5  A    between atoms: C_7  and  O_9
REMARK    6  A    between atoms: C_7  and  C_10
REMARK                            x       y       z     vdW  Elec       q    Type
REMARK                         _______ _______ _______ _____ _____    ______ ____
ROOT
ATOM      1  C   UNL     1       4.549   6.038  17.913  0.00  0.00    +0.000 C 
ATOM      2  C   UNL     1       5.487   5.686  19.073  0.00  0.00    +0.000 C 
ENDROOT
BRANCH   1   3
ATOM      3  C   UNL     1       3.007   5.722  18.157  0.00  0.00    +0.000 A 
ATOM      4  N   UNL     1       2.455   6.758  18.810  0.00  0.00    +0.000 NA
ATOM      5  C   UNL     1       2.148   6.531  20.086  0.00  0.00    +0.000 A 
ATOM      6  N   UNL     1       2.123   5.339  20.683  0.00  0.00    +0.000 NA
ATOM      7  C   UNL     1       2.172   4.280  19.874  0.00  0.00    +0.000 A 
ATOM      8  C   UNL     1       1.711   3.040  20.359  0.00  0.00    +0.000 A 
ATOM      9 CL   UNL     1       1.471   2.797  22.064  0.00  0.00    +0.000 Cl
ATOM     10  C   UNL     1       1.306   2.026  19.508  0.00  0.00    +0.000 A 
ATOM     11  C   UNL     1       1.440   2.213  18.134  0.00  0.00    +0.000 A 
ATOM     12  C   UNL     1       2.102   3.360  17.643  0.00  0.00    +0.000 A 
ATOM     13  C   UNL     1       2.520   4.419  18.517  0.00  0.00    +0.000 A 
ENDBRANCH   1   3
BRANCH   1  17
ATOM     14  C   UNL     1       6.148   4.110  14.210  0.00  0.00    +0.000 A 
ATOM     15  C   UNL     1       5.727   5.438  14.229  0.00  0.00    +0.000 A 
ATOM     16  C   UNL     1       5.247   6.040  15.407  0.00  0.00    +0.000 A 
ATOM     17  C   UNL     1       5.171   5.339  16.628  0.00  0.00    +0.000 A 
ATOM     18  C   UNL     1       5.610   3.993  16.587  0.00  0.00    +0.000 A 
ATOM     19  C   UNL     1       6.089   3.384  15.396  0.00  0.00    +0.000 A 
BRANCH  14  21
ATOM     20  C   UNL     1       5.526   3.220  12.072  0.00  0.00    +0.000 C 
ATOM     21  O   UNL     1       6.533   3.647  12.982  0.00  0.00    +0.000 OA
ENDBRANCH  14  21
ENDBRANCH   1  17
BRANCH   1  22
ATOM     22  O   UNL     1       4.613   7.473  17.765  0.00  0.00    +0.000 OA
ATOM     23  H   UNL     1       5.299   7.684  17.115  0.00  0.00    +0.000 HD
ENDBRANCH   1  22
TORSDOF 4
ENDMDL
MODEL 7
REMARK VINA RESULT:      -7.0      3.087      6.521
REMARK  Name = 
REMARK  6 active torsions:
REMARK  status: ('A' for Active; 'I' for Inactive)
REMARK    1  A    between atoms: C_1  and  O_2
REMARK    2  A    between atoms: O_2  and  C_3
REMARK    3  A    between atoms: C_6  and  C_7
REMARK    4  A    between atoms: C_7  and  C_8
REMARK    5  A    between atoms: C_7  and  O_9
REMARK    6  A    between atoms: C_7  and  C_10
REMARK                            x       y       z     vdW  Elec       q    Type
REMARK                         _______ _______ _______ _____ _____    ______ ____
ROOT
ATOM      1  C   UNL     1       5.238   5.582  17.224  0.00  0.00    +0.000 C 
ATOM      2  C   UNL     1       6.187   4.960  18.254  0.00  0.00    +0.000 C 
ENDROOT
BRANCH   1   3
ATOM      3  C   UNL     1       3.684   5.420  17.537  0.00  0.00    +0.000 A 
ATOM      4  N   UNL     1       3.219   6.586  18.012  0.00  0.00    +0.000 NA
ATOM      5  C   UNL     1       2.928   6.598  19.312  0.00  0.00    +0.000 A 
ATOM      6  N   UNL     1       2.837   5.528  20.101  0.00  0.00    +0.000 NA
ATOM      7  C   UNL     1       2.796   4.347  19.482  0.00  0.00    +0.000 A 
ATOM      8  C   UNL     1       2.264   3.241  20.175  0.00  0.00    +0.000 A 
ATOM      9 CL   UNL     1       2.049   3.305  21.899  0.00  0.00    +0.000 Cl
ATOM     10  C   UNL     1       1.773   2.130  19.512  0.00  0.00    +0.000 A 
ATOM     11  C   UNL     1       1.886   2.075  18.124  0.00  0.00    +0.000 A 
ATOM     12  C   UNL     1       2.611   3.075  17.439  0.00  0.00    +0.000 A 
ATOM     13  C   UNL     1       3.120   4.233  18.116  0.00  0.00    +0.000 A 
ENDBRANCH   1   3
BRANCH   1  17
ATOM     14  C   UNL     1       6.564   4.122  13.212  0.00  0.00    +0.000 A 
ATOM     15  C   UNL     1       7.425   4.796  14.075  0.00  0.00    +0.000 A 
ATOM     16  C   UNL     1       7.002   5.230  15.345  0.00  0.00    +0.000 A 
ATOM     17  C   UNL     1       5.692   5.004  15.815  0.00  0.00    +0.000 A 
ATOM     18  C   UNL     1       4.836   4.312  14.923  0.00  0.00    +0.000 A 
ATOM     19  C   UNL     1       5.262   3.879  13.640  0.00  0.00    +0.000 A 
BRANCH  14  21
ATOM     20  C   UNL     1       6.919   2.497  11.485  0.00  0.00    +0.000 C 
ATOM     21  O   UNL     1       7.099   3.815  11.991  0.00  0.00    +0.000 OA
ENDBRANCH  14  21
ENDBRANCH   1  17
BRANCH   1  22
ATOM     22  O   UNL     1       5.477   7.006  17.266  0.00  0.00    +0.000 OA
ATOM     23  H   UNL     1       5.757   7.244  18.161  0.00  0.00    +0.000 HD
ENDBRANCH   1  22
TORSDOF 4
ENDMDL
MODEL 8
REMARK VINA RESULT:      -7.0      2.967      6.160
REMARK  Name = 
REMARK  6 active torsions:
REMARK  status: ('A' for Active; 'I' for Inactive)
REMARK    1  A    between atoms: C_1  and  O_2
REMARK    2  A    between atoms: O_2  and  C_3
REMARK    3  A    between atoms: C_6  and  C_7
REMARK    4  A    between atoms: C_7  and  C_8
REMARK    5  A    between atoms: C_7  and  O_9
REMARK    6  A    between atoms: C_7  and  C_10
REMARK                            x       y       z     vdW  Elec       q    Type
REMARK                         _______ _______ _______ _____ _____    ______ ____
ROOT
ATOM      1  C   UNL     1       4.425   6.036  18.004  0.00  0.00    +0.000 C 
ATOM      2  C   UNL     1       5.393   5.546  19.087  0.00  0.00    +0.000 C 
ENDROOT
BRANCH   1   3
ATOM      3  C   UNL     1       2.881   5.774  18.294  0.00  0.00    +0.000 A 
ATOM      4  N   UNL     1       2.397   6.804  19.007  0.00  0.00    +0.000 NA
ATOM      5  C   UNL     1       2.128   6.538  20.284  0.00  0.00    +0.000 A 
ATOM      6  N   UNL     1       2.074   5.325  20.834  0.00  0.00    +0.000 NA
ATOM      7  C   UNL     1       2.048   4.298  19.983  0.00  0.00    +0.000 A 
ATOM      8  C   UNL     1       1.552   3.059  20.437  0.00  0.00    +0.000 A 
ATOM      9 CL   UNL     1       1.364   2.758  22.139  0.00  0.00    +0.000 Cl
ATOM     10  C   UNL     1       1.075   2.099  19.562  0.00  0.00    +0.000 A 
ATOM     11  C   UNL     1       1.166   2.335  18.193  0.00  0.00    +0.000 A 
ATOM     12  C   UNL     1       1.858   3.474  17.722  0.00  0.00    +0.000 A 
ATOM     13  C   UNL     1       2.353   4.479  18.620  0.00  0.00    +0.000 A 
ENDBRANCH   1   3
BRANCH   1  17
ATOM     14  C   UNL     1       6.064   4.237  14.254  0.00  0.00    +0.000 A 
ATOM     15  C   UNL     1       5.850   3.480  15.404  0.00  0.00    +0.000 A 
ATOM     16  C   UNL     1       5.311   4.054  16.571  0.00  0.00    +0.000 A 
ATOM     17  C   UNL     1       4.956   5.416  16.640  0.00  0.00    +0.000 A 
ATOM     18  C   UNL     1       5.176   6.164  15.457  0.00  0.00    +0.000 A 
ATOM     19  C   UNL     1       5.724   5.586  14.281  0.00  0.00    +0.000 A 
BRANCH  14  21
ATOM     20  C   UNL     1       5.832   3.172  12.118  0.00  0.00    +0.000 C 
ATOM     21  O   UNL     1       6.646   3.556  13.220  0.00  0.00    +0.000 OA
ENDBRANCH  14  21
ENDBRANCH   1  17
BRANCH   1  22
ATOM     22  O   UNL     1       4.555   7.474  17.968  0.00  0.00    +0.000 OA
ATOM     23  H   UNL     1       4.736   7.743  17.056  0.00  0.00    +0.000 HD
ENDBRANCH   1  22
TORSDOF 4
ENDMDL
MODEL 9
REMARK VINA RESULT:      -7.0      3.072      5.296
REMARK  Name = 
REMARK  6 active torsions:
REMARK  status: ('A' for Active; 'I' for Inactive)
REMARK    1  A    between atoms: C_1  and  O_2
REMARK    2  A    between atoms: O_2  and  C_3
REMARK    3  A    between atoms: C_6  and  C_7
REMARK    4  A    between atoms: C_7  and  C_8
REMARK    5  A    between atoms: C_7  and  O_9
REMARK    6  A    between atoms: C_7  and  C_10
REMARK                            x       y       z     vdW  Elec       q    Type
REMARK                         _______ _______ _______ _____ _____    ______ ____
ROOT
ATOM      1  C   UNL     1       5.155   4.628  16.732  0.00  0.00    +0.000 C 
ATOM      2  C   UNL     1       5.312   4.580  15.209  0.00  0.00    +0.000 C 
ENDROOT
BRANCH   1   3
ATOM      3  C   UNL     1       3.672   4.865  17.263  0.00  0.00    +0.000 A 
ATOM      4  N   UNL     1       3.553   6.146  17.646  0.00  0.00    +0.000 NA
ATOM      5  C   UNL     1       3.478   6.344  18.961  0.00  0.00    +0.000 A 
ATOM      6  N   UNL     1       3.279   5.401  19.882  0.00  0.00    +0.000 NA
ATOM      7  C   UNL     1       2.883   4.212  19.425  0.00  0.00    +0.000 A 
ATOM      8  C   UNL     1       2.236   3.330  20.313  0.00  0.00    +0.000 A 
ATOM      9 CL   UNL     1       2.311   3.599  22.030  0.00  0.00    +0.000 Cl
ATOM     10  C   UNL     1       1.416   2.310  19.863  0.00  0.00    +0.000 A 
ATOM     11  C   UNL     1       1.297   2.103  18.490  0.00  0.00    +0.000 A 
ATOM     12  C   UNL     1       2.109   2.838  17.597  0.00  0.00    +0.000 A 
ATOM     13  C   UNL     1       2.959   3.901  18.054  0.00  0.00    +0.000 A 
ENDBRANCH   1   3
BRANCH   1  17
ATOM     14  C   UNL     1       8.067   7.622  18.327  0.00  0.00    +0.000 A 
ATOM     15  C   UNL     1       7.918   6.360  18.898  0.00  0.00    +0.000 A 
ATOM     16  C   UNL     1       7.014   5.418  18.372  0.00  0.00    +0.000 A 
ATOM     17  C   UNL     1       6.218   5.695  17.242  0.00  0.00    +0.000 A 
ATOM     18  C   UNL     1       6.390   6.981  16.675  0.00  0.00    +0.000 A 
ATOM     19  C   UNL     1       7.299   7.934  17.209  0.00  0.00    +0.000 A 
BRANCH  14  21
ATOM     20  C   UNL     1       8.859   9.848  18.736  0.00  0.00    +0.000 C 
ATOM     21  O   UNL     1       8.938   8.449  18.982  0.00  0.00    +0.000 OA
ENDBRANCH  14  21
ENDBRANCH   1  17
BRANCH   1  22
ATOM     22  O   UNL     1       5.515   3.315  17.215  0.00  0.00    +0.000 OA
ATOM     23  H   UNL     1       5.686   2.744  16.452  0.00  0.00    +0.000 HD
ENDBRANCH   1  22
TORSDOF 4
ENDMDL
