MODEL 1
REMARK VINA RESULT:      -6.9      0.000      0.000
REMARK  Name = 
REMARK  5 active torsions:
REMARK  status: ('A' for Active; 'I' for Inactive)
REMARK    1  A    between atoms: C_1  and  C_2
REMARK    2  A    between atoms: C_2  and  C_4
REMARK    3  A    between atoms: C_7  and  N_8
REMARK    4  A    between atoms: C_9  and  C_11
REMARK    5  A    between atoms: C_11  and  N_12
REMARK                            x       y       z     vdW  Elec       q    Type
REMARK                         _______ _______ _______ _____ _____    ______ ____
ROOT
ATOM      1  N   UNL     1       4.037   5.528  18.583  0.00  0.00    +0.000 N 
ATOM      2  C   UNL     1       3.054   6.492  18.757  0.00  0.00    +0.000 C 
ATOM      3  O   UNL     1       2.726   7.353  17.942  0.00  0.00    +0.000 OA
ATOM      4  H   UNL     1       4.207   4.843  19.312  0.00  0.00    +0.000 HD
ENDROOT
BRANCH   1   8
ATOM      5  C   UNL     1       6.397   5.055  15.089  0.00  0.00    +0.000 A 
ATOM      6  C   UNL     1       6.729   6.032  16.025  0.00  0.00    +0.000 A 
ATOM      7  C   UNL     1       5.965   6.192  17.184  0.00  0.00    +0.000 A 
ATOM      8  C   UNL     1       4.855   5.384  17.435  0.00  0.00    +0.000 A 
ATOM      9  C   UNL     1       4.529   4.389  16.502  0.00  0.00    +0.000 A 
ATOM     10  C   UNL     1       5.295   4.228  15.337  0.00  0.00    +0.000 A 
BRANCH   5  12
ATOM     11  C   UNL     1       6.717   3.880  12.815  0.00  0.00    +0.000 C 
ATOM     12  C   UNL     1       7.190   4.884  13.839  0.00  0.00    +0.000 C 
ATOM     13  O   UNL     1       8.205   5.553  13.668  0.00  0.00    +0.000 OA
ENDBRANCH   5  12
ENDBRANCH   1   8
BRANCH   2  14
ATOM     14  C   UNL     1       2.255   6.395  20.040  0.00  0.00    +0.000 C 
BRANCH  14  15
ATOM     15  N   UNL     1       1.936   4.978  20.335  0.00  0.00    +0.000 N 
ATOM     16  C   UNL     1       2.407   4.410  21.469  0.00  0.00    +0.000 A 
ATOM     17  C   UNL     1       2.133   3.082  21.765  0.00  0.00    +0.000 A 
ATOM     18  C   UNL     1       1.362   2.330  20.889  0.00  0.00    +0.000 A 
ATOM     19  C   UNL     1       0.868   2.930  19.737  0.00  0.00    +0.000 A 
ATOM     20  C   UNL     1       1.158   4.262  19.481  0.00  0.00    +0.000 A 
ENDBRANCH  14  15
ENDBRANCH   2  14
TORSDOF 4
ENDMDL
MODEL 2
REMARK VINA RESULT:      -6.7      2.885      6.757
REMARK  Name = 
REMARK  5 active torsions:
REMARK  status: ('A' for Active; 'I' for Inactive)
REMARK    1  A    between atoms: C_1  and  C_2
REMARK    2  A    between atoms: C_2  and  C_4
REMARK    3  A    between atoms: C_7  and  N_8
REMARK    4  A    between atoms: C_9  and  C_11
REMARK    5  A    between atoms: C_11  and  N_12
REMARK                            x       y       z     vdW  Elec       q    Type
REMARK                         _______ _______ _______ _____ _____    ______ ____
ROOT
ATOM      1  N   UNL     1       3.314   6.210  19.142  0.00  0.00    +0.000 N 
ATOM      2  C   UNL     1       2.923   4.941  18.736  0.00  0.00    +0.000 C 
ATOM      3  O   UNL     1       1.822   4.627  18.285  0.00  0.00    +0.000 OA
ATOM      4  H   UNL     1       4.261   6.365  19.472  0.00  0.00    +0.000 HD
ENDROOT
BRANCH   1   8
ATOM      5  C   UNL     1       0.848   9.659  18.988  0.00  0.00    +0.000 A 
ATOM      6  C   UNL     1       0.977   8.949  20.180  0.00  0.00    +0.000 A 
ATOM      7  C   UNL     1       1.792   7.816  20.246  0.00  0.00    +0.000 A 
ATOM      8  C   UNL     1       2.496   7.366  19.128  0.00  0.00    +0.000 A 
ATOM      9  C   UNL     1       2.381   8.089  17.932  0.00  0.00    +0.000 A 
ATOM     10  C   UNL     1       1.561   9.226  17.864  0.00  0.00    +0.000 A 
BRANCH   5  12
ATOM     11  C   UNL     1      -1.339  10.738  18.148  0.00  0.00    +0.000 C 
ATOM     12  C   UNL     1      -0.033  10.858  18.896  0.00  0.00    +0.000 C 
ATOM     13  O   UNL     1       0.318  11.910  19.423  0.00  0.00    +0.000 OA
ENDBRANCH   5  12
ENDBRANCH   1   8
BRANCH   2  14
ATOM     14  C   UNL     1       4.001   3.877  18.769  0.00  0.00    +0.000 C 
BRANCH  14  15
ATOM     15  N   UNL     1       5.017   4.149  17.724  0.00  0.00    +0.000 N 
ATOM     16  C   UNL     1       6.274   4.488  18.089  0.00  0.00    +0.000 A 
ATOM     17  C   UNL     1       7.243   4.760  17.132  0.00  0.00    +0.000 A 
ATOM     18  C   UNL     1       6.917   4.677  15.786  0.00  0.00    +0.000 A 
ATOM     19  C   UNL     1       5.627   4.309  15.423  0.00  0.00    +0.000 A 
ATOM     20  C   UNL     1       4.689   4.039  16.410  0.00  0.00    +0.000 A 
ENDBRANCH  14  15
ENDBRANCH   2  14
TORSDOF 4
ENDMDL
MODEL 3
REMARK VINA RESULT:      -6.7      2.908      6.787
REMARK  Name = 
REMARK  5 active torsions:
REMARK  status: ('A' for Active; 'I' for Inactive)
REMARK    1  A    between atoms: C_1  and  C_2
REMARK    2  A    between atoms: C_2  and  C_4
REMARK    3  A    between atoms: C_7  and  N_8
REMARK    4  A    between atoms: C_9  and  C_11
REMARK    5  A    between atoms: C_11  and  N_12
REMARK                            x       y       z     vdW  Elec       q    Type
REMARK                         _______ _______ _______ _____ _____    ______ ____
ROOT
ATOM      1  N   UNL     1       3.329   6.286  19.120  0.00  0.00    +0.000 N 
ATOM      2  C   UNL     1       2.938   4.986  18.831  0.00  0.00    +0.000 C 
ATOM      3  O   UNL     1       1.823   4.627  18.454  0.00  0.00    +0.000 OA
ATOM      4  H   UNL     1       4.287   6.476  19.395  0.00  0.00    +0.000 HD
ENDROOT
BRANCH   1   8
ATOM      5  C   UNL     1       0.851   9.728  19.023  0.00  0.00    +0.000 A 
ATOM      6  C   UNL     1       1.507   9.312  17.867  0.00  0.00    +0.000 A 
ATOM      7  C   UNL     1       2.320   8.175  17.884  0.00  0.00    +0.000 A 
ATOM      8  C   UNL     1       2.496   7.430  19.051  0.00  0.00    +0.000 A 
ATOM      9  C   UNL     1       1.822   7.837  20.211  0.00  0.00    +0.000 A 
ATOM     10  C   UNL     1       1.008   8.980  20.196  0.00  0.00    +0.000 A 
BRANCH   5  12
ATOM     11  C   UNL     1      -1.461  10.813  18.655  0.00  0.00    +0.000 C 
ATOM     12  C   UNL     1      -0.004  10.950  19.027  0.00  0.00    +0.000 C 
ATOM     13  O   UNL     1       0.489  12.034  19.327  0.00  0.00    +0.000 OA
ENDBRANCH   5  12
ENDBRANCH   1   8
BRANCH   2  14
ATOM     14  C   UNL     1       4.030   3.938  18.900  0.00  0.00    +0.000 C 
BRANCH  14  15
ATOM     15  N   UNL     1       5.040   4.186  17.844  0.00  0.00    +0.000 N 
ATOM     16  C   UNL     1       6.300   4.532  18.195  0.00  0.00    +0.000 A 
ATOM     17  C   UNL     1       7.264   4.781  17.227  0.00  0.00    +0.000 A 
ATOM     18  C   UNL     1       6.930   4.669  15.884  0.00  0.00    +0.000 A 
ATOM     19  C   UNL     1       5.638   4.295  15.536  0.00  0.00    +0.000 A 
ATOM     20  C   UNL     1       4.706   4.048  16.534  0.00  0.00    +0.000 A 
ENDBRANCH  14  15
ENDBRANCH   2  14
TORSDOF 4
ENDMDL
MODEL 4
REMARK VINA RESULT:      -6.7      2.952      6.834
REMARK  Name = 
REMARK  5 active torsions:
REMARK  status: ('A' for Active; 'I' for Inactive)
REMARK    1  A    between atoms: C_1  and  C_2
REMARK    2  A    between atoms: C_2  and  C_4
REMARK    3  A    between atoms: C_7  and  N_8
REMARK    4  A    between atoms: C_9  and  C_11
REMARK    5  A    between atoms: C_11  and  N_12
REMARK                            x       y       z     vdW  Elec       q    Type
REMARK                         _______ _______ _______ _____ _____    ______ ____
ROOT
ATOM      1  N   UNL     1       3.251   6.283  19.483  0.00  0.00    +0.000 N 
ATOM      2  C   UNL     1       2.916   4.998  19.081  0.00  0.00    +0.000 C 
ATOM      3  O   UNL     1       1.854   4.649  18.567  0.00  0.00    +0.000 OA
ATOM      4  H   UNL     1       4.171   6.468  19.871  0.00  0.00    +0.000 HD
ENDROOT
BRANCH   1   8
ATOM      5  C   UNL     1       0.718   9.664  19.093  0.00  0.00    +0.000 A 
ATOM      6  C   UNL     1       0.862   9.043  20.331  0.00  0.00    +0.000 A 
ATOM      7  C   UNL     1       1.700   7.934  20.475  0.00  0.00    +0.000 A 
ATOM      8  C   UNL     1       2.411   7.420  19.389  0.00  0.00    +0.000 A 
ATOM      9  C   UNL     1       2.280   8.053  18.145  0.00  0.00    +0.000 A 
ATOM     10  C   UNL     1       1.437   9.166  18.000  0.00  0.00    +0.000 A 
BRANCH   5  12
ATOM     11  C   UNL     1      -1.388  10.693  18.015  0.00  0.00    +0.000 C 
ATOM     12  C   UNL     1      -0.187  10.836  18.919  0.00  0.00    +0.000 C 
ATOM     13  O   UNL     1       0.061  11.886  19.506  0.00  0.00    +0.000 OA
ENDBRANCH   5  12
ENDBRANCH   1   8
BRANCH   2  14
ATOM     14  C   UNL     1       4.012   3.960  19.209  0.00  0.00    +0.000 C 
BRANCH  14  15
ATOM     15  N   UNL     1       5.029   4.161  18.149  0.00  0.00    +0.000 N 
ATOM     16  C   UNL     1       4.709   3.902  16.860  0.00  0.00    +0.000 A 
ATOM     17  C   UNL     1       5.644   4.071  15.848  0.00  0.00    +0.000 A 
ATOM     18  C   UNL     1       6.920   4.515  16.163  0.00  0.00    +0.000 A 
ATOM     19  C   UNL     1       7.233   4.796  17.488  0.00  0.00    +0.000 A 
ATOM     20  C   UNL     1       6.267   4.621  18.469  0.00  0.00    +0.000 A 
ENDBRANCH  14  15
ENDBRANCH   2  14
TORSDOF 4
ENDMDL
MODEL 5
REMARK VINA RESULT:      -6.7      0.551      1.220
REMARK  Name = 
REMARK  5 active torsions:
REMARK  status: ('A' for Active; 'I' for Inactive)
REMARK    1  A    between atoms: C_1  and  C_2
REMARK    2  A    between atoms: C_2  and  C_4
REMARK    3  A    between atoms: C_7  and  N_8
REMARK    4  A    between atoms: C_9  and  C_11
REMARK    5  A    between atoms: C_11  and  N_12
REMARK                            x       y       z     vdW  Elec       q    Type
REMARK                         _______ _______ _______ _____ _____    ______ ____
ROOT
ATOM      1  N   UNL     1       3.833   5.512  18.438  0.00  0.00    +0.000 N 
ATOM      2  C   UNL     1       2.938   6.542  18.693  0.00  0.00    +0.000 C 
ATOM      3  O   UNL     1       2.644   7.458  17.927  0.00  0.00    +0.000 OA
ATOM      4  H   UNL     1       3.981   4.788  19.133  0.00  0.00    +0.000 HD
ENDROOT
BRANCH   1   8
ATOM      5  C   UNL     1       6.044   4.925  14.865  0.00  0.00    +0.000 A 
ATOM      6  C   UNL     1       5.647   6.208  15.233  0.00  0.00    +0.000 A 
ATOM      7  C   UNL     1       4.926   6.416  16.412  0.00  0.00    +0.000 A 
ATOM      8  C   UNL     1       4.584   5.351  17.247  0.00  0.00    +0.000 A 
ATOM      9  C   UNL     1       4.998   4.061  16.887  0.00  0.00    +0.000 A 
ATOM     10  C   UNL     1       5.721   3.851  15.703  0.00  0.00    +0.000 A 
BRANCH   5  12
ATOM     11  C   UNL     1       6.325   3.588  12.677  0.00  0.00    +0.000 C 
ATOM     12  C   UNL     1       6.798   4.684  13.601  0.00  0.00    +0.000 C 
ATOM     13  O   UNL     1       7.780   5.374  13.340  0.00  0.00    +0.000 OA
ENDBRANCH   5  12
ENDBRANCH   1   8
BRANCH   2  14
ATOM     14  C   UNL     1       2.193   6.457  20.009  0.00  0.00    +0.000 C 
BRANCH  14  15
ATOM     15  N   UNL     1       1.906   5.041  20.340  0.00  0.00    +0.000 N 
ATOM     16  C   UNL     1       1.116   4.311  19.520  0.00  0.00    +0.000 A 
ATOM     17  C   UNL     1       0.821   2.986  19.811  0.00  0.00    +0.000 A 
ATOM     18  C   UNL     1       1.347   2.403  20.955  0.00  0.00    +0.000 A 
ATOM     19  C   UNL     1       2.173   3.157  21.782  0.00  0.00    +0.000 A 
ATOM     20  C   UNL     1       2.449   4.477  21.451  0.00  0.00    +0.000 A 
ENDBRANCH  14  15
ENDBRANCH   2  14
TORSDOF 4
ENDMDL
MODEL 6
REMARK VINA RESULT:      -6.7      2.926      6.896
REMARK  Name = 
REMARK  5 active torsions:
REMARK  status: ('A' for Active; 'I' for Inactive)
REMARK    1  A    between atoms: C_1  and  C_2
REMARK    2  A    between atoms: C_2  and  C_4
REMARK    3  A    between atoms: C_7  and  N_8
REMARK    4  A    between atoms: C_9  and  C_11
REMARK    5  A    between atoms: C_11  and  N_12
REMARK                            x       y       z     vdW  Elec       q    Type
REMARK                         _______ _______ _______ _____ _____    ______ ____
ROOT
ATOM      1  N   UNL     1       3.324   6.244  19.093  0.00  0.00    +0.000 N 
ATOM      2  C   UNL     1       2.918   4.948  18.810  0.00  0.00    +0.000 C 
ATOM      3  O   UNL     1       1.794   4.598  18.451  0.00  0.00    +0.000 OA
ATOM      4  H   UNL     1       4.288   6.427  19.353  0.00  0.00    +0.000 HD
ENDROOT
BRANCH   1   8
ATOM      5  C   UNL     1       0.871   9.706  19.043  0.00  0.00    +0.000 A 
ATOM      6  C   UNL     1       1.511   9.291  17.877  0.00  0.00    +0.000 A 
ATOM      7  C   UNL     1       2.314   8.147  17.879  0.00  0.00    +0.000 A 
ATOM      8  C   UNL     1       2.499   7.395  19.040  0.00  0.00    +0.000 A 
ATOM      9  C   UNL     1       1.842   7.802  20.210  0.00  0.00    +0.000 A 
ATOM     10  C   UNL     1       1.036   8.951  20.210  0.00  0.00    +0.000 A 
BRANCH   5  12
ATOM     11  C   UNL     1       0.700  12.277  18.914  0.00  0.00    +0.000 C 
ATOM     12  C   UNL     1       0.026  10.934  19.063  0.00  0.00    +0.000 C 
ATOM     13  O   UNL     1      -1.189  10.831  19.202  0.00  0.00    +0.000 OA
ENDBRANCH   5  12
ENDBRANCH   1   8
BRANCH   2  14
ATOM     14  C   UNL     1       4.002   3.892  18.859  0.00  0.00    +0.000 C 
BRANCH  14  15
ATOM     15  N   UNL     1       5.007   4.144  17.798  0.00  0.00    +0.000 N 
ATOM     16  C   UNL     1       4.649   4.021  16.499  0.00  0.00    +0.000 A 
ATOM     17  C   UNL     1       5.572   4.240  15.485  0.00  0.00    +0.000 A 
ATOM     18  C   UNL     1       6.874   4.594  15.809  0.00  0.00    +0.000 A 
ATOM     19  C   UNL     1       7.225   4.735  17.147  0.00  0.00    +0.000 A 
ATOM     20  C   UNL     1       6.271   4.514  18.131  0.00  0.00    +0.000 A 
ENDBRANCH  14  15
ENDBRANCH   2  14
TORSDOF 4
ENDMDL
MODEL 7
REMARK VINA RESULT:      -6.4      0.952      1.806
REMARK  Name = 
REMARK  5 active torsions:
REMARK  status: ('A' for Active; 'I' for Inactive)
REMARK    1  A    between atoms: C_1  and  C_2
REMARK    2  A    between atoms: C_2  and  C_4
REMARK    3  A    between atoms: C_7  and  N_8
REMARK    4  A    between atoms: C_9  and  C_11
REMARK    5  A    between atoms: C_11  and  N_12
REMARK                            x       y       z     vdW  Elec       q    Type
REMARK                         _______ _______ _______ _____ _____    ______ ____
ROOT
ATOM      1  N   UNL     1       4.900   4.937  18.082  0.00  0.00    +0.000 N 
ATOM      2  C   UNL     1       3.998   5.888  18.539  0.00  0.00    +0.000 C 
ATOM      3  O   UNL     1       3.554   6.839  17.897  0.00  0.00    +0.000 OA
ATOM      4  H   UNL     1       5.180   4.173  18.689  0.00  0.00    +0.000 HD
ENDROOT
BRANCH   1   8
ATOM      5  C   UNL     1       6.756   4.861  14.268  0.00  0.00    +0.000 A 
ATOM      6  C   UNL     1       5.467   4.358  14.423  0.00  0.00    +0.000 A 
ATOM      7  C   UNL     1       4.841   4.385  15.672  0.00  0.00    +0.000 A 
ATOM      8  C   UNL     1       5.486   4.912  16.792  0.00  0.00    +0.000 A 
ATOM      9  C   UNL     1       6.778   5.434  16.634  0.00  0.00    +0.000 A 
ATOM     10  C   UNL     1       7.408   5.406  15.380  0.00  0.00    +0.000 A 
BRANCH   5  12
ATOM     11  C   UNL     1       7.080   3.726  11.973  0.00  0.00    +0.000 C 
ATOM     12  C   UNL     1       7.445   4.822  12.946  0.00  0.00    +0.000 C 
ATOM     13  O   UNL     1       8.290   5.671  12.677  0.00  0.00    +0.000 OA
ENDBRANCH   5  12
ENDBRANCH   1   8
BRANCH   2  14
ATOM     14  C   UNL     1       3.448   5.659  19.932  0.00  0.00    +0.000 C 
BRANCH  14  15
ATOM     15  N   UNL     1       2.504   4.517  19.924  0.00  0.00    +0.000 N 
ATOM     16  C   UNL     1       1.975   4.097  18.752  0.00  0.00    +0.000 A 
ATOM     17  C   UNL     1       1.079   3.036  18.717  0.00  0.00    +0.000 A 
ATOM     18  C   UNL     1       0.728   2.398  19.898  0.00  0.00    +0.000 A 
ATOM     19  C   UNL     1       1.291   2.826  21.094  0.00  0.00    +0.000 A 
ATOM     20  C   UNL     1       2.189   3.885  21.086  0.00  0.00    +0.000 A 
ENDBRANCH  14  15
ENDBRANCH   2  14
TORSDOF 4
ENDMDL
MODEL 8
REMARK VINA RESULT:      -6.4      3.492      7.578
REMARK  Name = 
REMARK  5 active torsions:
REMARK  status: ('A' for Active; 'I' for Inactive)
REMARK    1  A    between atoms: C_1  and  C_2
REMARK    2  A    between atoms: C_2  and  C_4
REMARK    3  A    between atoms: C_7  and  N_8
REMARK    4  A    between atoms: C_9  and  C_11
REMARK    5  A    between atoms: C_11  and  N_12
REMARK                            x       y       z     vdW  Elec       q    Type
REMARK                         _______ _______ _______ _____ _____    ______ ____
ROOT
ATOM      1  N   UNL     1       2.947   7.502  18.066  0.00  0.00    +0.000 N 
ATOM      2  C   UNL     1       2.972   6.116  18.144  0.00  0.00    +0.000 C 
ATOM      3  O   UNL     1       2.184   5.407  18.768  0.00  0.00    +0.000 OA
ATOM      4  H   UNL     1       3.631   7.988  17.496  0.00  0.00    +0.000 HD
ENDROOT
BRANCH   1   8
ATOM      5  C   UNL     1       0.208  10.012  20.114  0.00  0.00    +0.000 A 
ATOM      6  C   UNL     1       0.414  10.178  18.746  0.00  0.00    +0.000 A 
ATOM      7  C   UNL     1       1.307   9.353  18.059  0.00  0.00    +0.000 A 
ATOM      8  C   UNL     1       2.014   8.345  18.718  0.00  0.00    +0.000 A 
ATOM      9  C   UNL     1       1.795   8.165  20.091  0.00  0.00    +0.000 A 
ATOM     10  C   UNL     1       0.899   8.995  20.783  0.00  0.00    +0.000 A 
BRANCH   5  12
ATOM     11  C   UNL     1      -0.659  10.905  22.374  0.00  0.00    +0.000 C 
ATOM     12  C   UNL     1      -0.727  10.897  20.865  0.00  0.00    +0.000 C 
ATOM     13  O   UNL     1      -1.529  11.594  20.250  0.00  0.00    +0.000 OA
ENDBRANCH   5  12
ENDBRANCH   1   8
BRANCH   2  14
ATOM     14  C   UNL     1       4.020   5.427  17.293  0.00  0.00    +0.000 C 
BRANCH  14  15
ATOM     15  N   UNL     1       5.377   5.791  17.764  0.00  0.00    +0.000 N 
ATOM     16  C   UNL     1       5.855   5.248  18.907  0.00  0.00    +0.000 A 
ATOM     17  C   UNL     1       7.119   5.580  19.377  0.00  0.00    +0.000 A 
ATOM     18  C   UNL     1       7.901   6.476  18.663  0.00  0.00    +0.000 A 
ATOM     19  C   UNL     1       7.407   7.014  17.480  0.00  0.00    +0.000 A 
ATOM     20  C   UNL     1       6.142   6.650  17.040  0.00  0.00    +0.000 A 
ENDBRANCH  14  15
ENDBRANCH   2  14
TORSDOF 4
ENDMDL
MODEL 9
REMARK VINA RESULT:      -6.3      4.523      6.658
REMARK  Name = 
REMARK  5 active torsions:
REMARK  status: ('A' for Active; 'I' for Inactive)
REMARK    1  A    between atoms: C_1  and  C_2
REMARK    2  A    between atoms: C_2  and  C_4
REMARK    3  A    between atoms: C_7  and  N_8
REMARK    4  A    between atoms: C_9  and  C_11
REMARK    5  A    between atoms: C_11  and  N_12
REMARK                            x       y       z     vdW  Elec       q    Type
REMARK                         _______ _______ _______ _____ _____    ______ ____
ROOT
ATOM      1  N   UNL     1       1.666   8.136  21.303  0.00  0.00    +0.000 N 
ATOM      2  C   UNL     1       0.419   8.491  21.798  0.00  0.00    +0.000 C 
ATOM      3  O   UNL     1      -0.653   7.950  21.529  0.00  0.00    +0.000 OA
ATOM      4  H   UNL     1       2.494   8.633  21.615  0.00  0.00    +0.000 HD
ENDROOT
BRANCH   1   8
ATOM      5  C   UNL     1       2.491   5.081  18.477  0.00  0.00    +0.000 A 
ATOM      6  C   UNL     1       2.039   4.745  19.751  0.00  0.00    +0.000 A 
ATOM      7  C   UNL     1       1.755   5.742  20.688  0.00  0.00    +0.000 A 
ATOM      8  C   UNL     1       1.917   7.093  20.377  0.00  0.00    +0.000 A 
ATOM      9  C   UNL     1       2.356   7.434  19.090  0.00  0.00    +0.000 A 
ATOM     10  C   UNL     1       2.642   6.433  18.148  0.00  0.00    +0.000 A 
BRANCH   5  12
ATOM     11  C   UNL     1       4.214   3.981  16.903  0.00  0.00    +0.000 C 
ATOM     12  C   UNL     1       2.816   4.029  17.472  0.00  0.00    +0.000 C 
ATOM     13  O   UNL     1       1.949   3.231  17.128  0.00  0.00    +0.000 OA
ENDBRANCH   5  12
ENDBRANCH   1   8
BRANCH   2  14
ATOM     14  C   UNL     1       0.412   9.590  22.841  0.00  0.00    +0.000 C 
BRANCH  14  15
ATOM     15  N   UNL     1      -0.454  10.708  22.396  0.00  0.00    +0.000 N 
ATOM     16  C   UNL     1      -0.209  11.310  21.210  0.00  0.00    +0.000 A 
ATOM     17  C   UNL     1      -0.997  12.367  20.773  0.00  0.00    +0.000 A 
ATOM     18  C   UNL     1      -2.051  12.806  21.562  0.00  0.00    +0.000 A 
ATOM     19  C   UNL     1      -2.305  12.168  22.771  0.00  0.00    +0.000 A 
ATOM     20  C   UNL     1      -1.498  11.110  23.168  0.00  0.00    +0.000 A 
ENDBRANCH  14  15
ENDBRANCH   2  14
TORSDOF 4
ENDMDL
