MODEL 1
REMARK VINA RESULT:      -9.0      0.000      0.000
REMARK  Name = 
REMARK  6 active torsions:
REMARK  status: ('A' for Active; 'I' for Inactive)
REMARK    1  A    between atoms: C_2  and  C_12
REMARK    2  A    between atoms: N_3  and  C_4
REMARK    3  A    between atoms: C_4  and  C_5
REMARK    4  A    between atoms: N_17  and  C_18
REMARK    5  A    between atoms: C_18  and  C_19
REMARK    6  A    between atoms: C_19  and  C_20
REMARK                            x       y       z     vdW  Elec       q    Type
REMARK                         _______ _______ _______ _____ _____    ______ ____
ROOT
ATOM      1  C   UNL     1       5.754   6.028  16.528  0.00  0.00    +0.000 C 
ATOM      2  C   UNL     1       6.327   4.659  16.856  0.00  0.00    +0.000 C 
ATOM      3  C   UNL     1       6.570   4.562  18.351  0.00  0.00    +0.000 C 
ATOM      4  C   UNL     1       7.359   5.721  18.939  0.00  0.00    +0.000 C 
ATOM      5  O   UNL     1       7.888   5.582  20.043  0.00  0.00    +0.000 OA
ATOM      6  N   UNL     1       7.403   6.916  18.221  0.00  0.00    +0.000 N 
ATOM      7  C   UNL     1       6.847   7.042  16.867  0.00  0.00    +0.000 C 
ENDROOT
BRANCH   1   9
ATOM      8  O   UNL     1       4.165   7.447  17.698  0.00  0.00    +0.000 OA
ATOM      9  C   UNL     1       4.440   6.332  17.262  0.00  0.00    +0.000 C 
ATOM     10  N   UNL     1       3.571   5.265  17.368  0.00  0.00    +0.000 N 
ATOM     11  H   UNL     1       3.883   4.336  17.119  0.00  0.00    +0.000 HD
BRANCH  10  12
ATOM     12  C   UNL     1       2.350   5.363  18.147  0.00  0.00    +0.000 C 
BRANCH  12  13
ATOM     13  C   UNL     1       2.350   4.411  19.317  0.00  0.00    +0.000 A 
ATOM     14  C   UNL     1       1.227   4.258  20.139  0.00  0.00    +0.000 A 
ATOM     15  C   UNL     1       1.226   3.332  21.190  0.00  0.00    +0.000 A 
ATOM     16  C   UNL     1       2.353   2.548  21.430  0.00  0.00    +0.000 A 
ATOM     17  C   UNL     1       3.467   2.694  20.614  0.00  0.00    +0.000 A 
ATOM     18  F   UNL     1       4.548   1.930  20.827  0.00  0.00    +0.000 F 
ATOM     19  C   UNL     1       3.475   3.610  19.565  0.00  0.00    +0.000 A 
ENDBRANCH  12  13
ENDBRANCH  10  12
ENDBRANCH   1   9
BRANCH   6  20
ATOM     20  C   UNL     1       8.376   7.929  18.670  0.00  0.00    +0.000 C 
BRANCH  20  21
ATOM     21  C   UNL     1       8.273   9.296  17.977  0.00  0.00    +0.000 C 
BRANCH  21  22
ATOM     22  C   UNL     1       9.141  10.353  18.620  0.00  0.00    +0.000 A 
ATOM     23  C   UNL     1       9.276  10.410  20.015  0.00  0.00    +0.000 A 
ATOM     24  C   UNL     1      10.068  11.391  20.617  0.00  0.00    +0.000 A 
ATOM     25  C   UNL     1      10.728  12.333  19.831  0.00  0.00    +0.000 A 
ATOM     26  C   UNL     1      10.585  12.288  18.450  0.00  0.00    +0.000 A 
ATOM     27  F   UNL     1      11.210  13.200  17.693  0.00  0.00    +0.000 F 
ATOM     28  C   UNL     1       9.799  11.314  17.840  0.00  0.00    +0.000 A 
ENDBRANCH  21  22
ENDBRANCH  20  21
ENDBRANCH   6  20
TORSDOF 6
ENDMDL
MODEL 2
REMARK VINA RESULT:      -8.4      1.086      1.429
REMARK  Name = 
REMARK  6 active torsions:
REMARK  status: ('A' for Active; 'I' for Inactive)
REMARK    1  A    between atoms: C_2  and  C_12
REMARK    2  A    between atoms: N_3  and  C_4
REMARK    3  A    between atoms: C_4  and  C_5
REMARK    4  A    between atoms: N_17  and  C_18
REMARK    5  A    between atoms: C_18  and  C_19
REMARK    6  A    between atoms: C_19  and  C_20
REMARK                            x       y       z     vdW  Elec       q    Type
REMARK                         _______ _______ _______ _____ _____    ______ ____
ROOT
ATOM      1  C   UNL     1       6.371   5.726  16.325  0.00  0.00    +0.000 C 
ATOM      2  C   UNL     1       7.108   4.470  16.763  0.00  0.00    +0.000 C 
ATOM      3  C   UNL     1       7.172   4.428  18.279  0.00  0.00    +0.000 C 
ATOM      4  C   UNL     1       7.686   5.706  18.924  0.00  0.00    +0.000 C 
ATOM      5  O   UNL     1       8.087   5.665  20.089  0.00  0.00    +0.000 OA
ATOM      6  N   UNL     1       7.632   6.885  18.181  0.00  0.00    +0.000 N 
ATOM      7  C   UNL     1       7.239   6.906  16.766  0.00  0.00    +0.000 C 
ENDROOT
BRANCH   1   9
ATOM      8  O   UNL     1       4.465   6.870  17.307  0.00  0.00    +0.000 OA
ATOM      9  C   UNL     1       4.944   5.822  16.883  0.00  0.00    +0.000 C 
ATOM     10  N   UNL     1       4.222   4.646  16.841  0.00  0.00    +0.000 N 
ATOM     11  H   UNL     1       4.687   3.779  16.612  0.00  0.00    +0.000 HD
BRANCH  10  12
ATOM     12  C   UNL     1       2.908   4.549  17.450  0.00  0.00    +0.000 C 
BRANCH  12  13
ATOM     13  C   UNL     1       2.939   3.761  18.735  0.00  0.00    +0.000 A 
ATOM     14  C   UNL     1       4.107   3.129  19.182  0.00  0.00    +0.000 A 
ATOM     15  C   UNL     1       4.132   2.444  20.404  0.00  0.00    +0.000 A 
ATOM     16  C   UNL     1       2.985   2.384  21.193  0.00  0.00    +0.000 A 
ATOM     17  C   UNL     1       1.827   3.013  20.756  0.00  0.00    +0.000 A 
ATOM     18  F   UNL     1       0.725   2.975  21.519  0.00  0.00    +0.000 F 
ATOM     19  C   UNL     1       1.795   3.699  19.545  0.00  0.00    +0.000 A 
ENDBRANCH  12  13
ENDBRANCH  10  12
ENDBRANCH   1   9
BRANCH   6  20
ATOM     20  C   UNL     1       8.367   8.045  18.717  0.00  0.00    +0.000 C 
BRANCH  20  21
ATOM     21  C   UNL     1       8.255   9.336  17.891  0.00  0.00    +0.000 C 
BRANCH  21  22
ATOM     22  C   UNL     1       8.961  10.510  18.527  0.00  0.00    +0.000 A 
ATOM     23  C   UNL     1       9.556  10.382  19.791  0.00  0.00    +0.000 A 
ATOM     24  C   UNL     1      10.202  11.467  20.390  0.00  0.00    +0.000 A 
ATOM     25  C   UNL     1      10.254  12.695  19.736  0.00  0.00    +0.000 A 
ATOM     26  C   UNL     1       9.653  12.829  18.490  0.00  0.00    +0.000 A 
ATOM     27  F   UNL     1       9.693  14.013  17.864  0.00  0.00    +0.000 F 
ATOM     28  C   UNL     1       9.009  11.755  17.883  0.00  0.00    +0.000 A 
ENDBRANCH  21  22
ENDBRANCH  20  21
ENDBRANCH   6  20
TORSDOF 6
ENDMDL
MODEL 3
REMARK VINA RESULT:      -8.3      1.395      1.813
REMARK  Name = 
REMARK  6 active torsions:
REMARK  status: ('A' for Active; 'I' for Inactive)
REMARK    1  A    between atoms: C_2  and  C_12
REMARK    2  A    between atoms: N_3  and  C_4
REMARK    3  A    between atoms: C_4  and  C_5
REMARK    4  A    between atoms: N_17  and  C_18
REMARK    5  A    between atoms: C_18  and  C_19
REMARK    6  A    between atoms: C_19  and  C_20
REMARK                            x       y       z     vdW  Elec       q    Type
REMARK                         _______ _______ _______ _____ _____    ______ ____
ROOT
ATOM      1  C   UNL     1       5.681   6.358  16.591  0.00  0.00    +0.000 C 
ATOM      2  C   UNL     1       6.269   4.963  16.732  0.00  0.00    +0.000 C 
ATOM      3  C   UNL     1       6.670   4.732  18.178  0.00  0.00    +0.000 C 
ATOM      4  C   UNL     1       7.531   5.832  18.778  0.00  0.00    +0.000 C 
ATOM      5  O   UNL     1       8.174   5.593  19.801  0.00  0.00    +0.000 OA
ATOM      6  N   UNL     1       7.513   7.086  18.168  0.00  0.00    +0.000 N 
ATOM      7  C   UNL     1       6.817   7.334  16.899  0.00  0.00    +0.000 C 
ENDROOT
BRANCH   1   9
ATOM      8  O   UNL     1       3.666   7.519  17.299  0.00  0.00    +0.000 OA
ATOM      9  C   UNL     1       4.457   6.599  17.487  0.00  0.00    +0.000 C 
ATOM     10  N   UNL     1       4.292   5.681  18.505  0.00  0.00    +0.000 N 
ATOM     11  H   UNL     1       5.029   5.022  18.712  0.00  0.00    +0.000 HD
BRANCH  10  12
ATOM     12  C   UNL     1       3.259   5.852  19.510  0.00  0.00    +0.000 C 
BRANCH  12  13
ATOM     13  C   UNL     1       2.359   4.645  19.605  0.00  0.00    +0.000 A 
ATOM     14  C   UNL     1       1.859   4.010  18.461  0.00  0.00    +0.000 A 
ATOM     15  C   UNL     1       1.066   2.860  18.565  0.00  0.00    +0.000 A 
ATOM     16  C   UNL     1       0.764   2.332  19.819  0.00  0.00    +0.000 A 
ATOM     17  C   UNL     1       1.262   2.957  20.956  0.00  0.00    +0.000 A 
ATOM     18  F   UNL     1       0.991   2.444  22.164  0.00  0.00    +0.000 F 
ATOM     19  C   UNL     1       2.053   4.098  20.860  0.00  0.00    +0.000 A 
ENDBRANCH  12  13
ENDBRANCH  10  12
ENDBRANCH   1   9
BRANCH   6  20
ATOM     20  C   UNL     1       8.542   8.052  18.598  0.00  0.00    +0.000 C 
BRANCH  20  21
ATOM     21  C   UNL     1       8.385   9.475  18.040  0.00  0.00    +0.000 C 
BRANCH  21  22
ATOM     22  C   UNL     1       9.358  10.460  18.645  0.00  0.00    +0.000 A 
ATOM     23  C   UNL     1      10.363  11.041  17.858  0.00  0.00    +0.000 A 
ATOM     24  C   UNL     1      11.273  11.944  18.413  0.00  0.00    +0.000 A 
ATOM     25  C   UNL     1      11.193  12.271  19.765  0.00  0.00    +0.000 A 
ATOM     26  C   UNL     1      10.208  11.687  20.550  0.00  0.00    +0.000 A 
ATOM     27  F   UNL     1      10.136  11.993  21.853  0.00  0.00    +0.000 F 
ATOM     28  C   UNL     1       9.295  10.787  20.007  0.00  0.00    +0.000 A 
ENDBRANCH  21  22
ENDBRANCH  20  21
ENDBRANCH   6  20
TORSDOF 6
ENDMDL
MODEL 4
REMARK VINA RESULT:      -8.2      2.591      8.097
REMARK  Name = 
REMARK  6 active torsions:
REMARK  status: ('A' for Active; 'I' for Inactive)
REMARK    1  A    between atoms: C_2  and  C_12
REMARK    2  A    between atoms: N_3  and  C_4
REMARK    3  A    between atoms: C_4  and  C_5
REMARK    4  A    between atoms: N_17  and  C_18
REMARK    5  A    between atoms: C_18  and  C_19
REMARK    6  A    between atoms: C_19  and  C_20
REMARK                            x       y       z     vdW  Elec       q    Type
REMARK                         _______ _______ _______ _____ _____    ______ ____
ROOT
ATOM      1  C   UNL     1       7.355   5.850  18.547  0.00  0.00    +0.000 C 
ATOM      2  C   UNL     1       7.785   4.650  17.719  0.00  0.00    +0.000 C 
ATOM      3  C   UNL     1       6.869   4.516  16.516  0.00  0.00    +0.000 C 
ATOM      4  C   UNL     1       5.385   4.541  16.846  0.00  0.00    +0.000 C 
ATOM      5  O   UNL     1       4.583   4.115  16.014  0.00  0.00    +0.000 OA
ATOM      6  N   UNL     1       4.993   5.099  18.062  0.00  0.00    +0.000 N 
ATOM      7  C   UNL     1       5.961   5.521  19.083  0.00  0.00    +0.000 C 
ENDROOT
BRANCH   1   9
ATOM      8  O   UNL     1       6.668   7.368  16.778  0.00  0.00    +0.000 OA
ATOM      9  C   UNL     1       7.372   7.171  17.764  0.00  0.00    +0.000 C 
ATOM     10  N   UNL     1       8.216   8.138  18.272  0.00  0.00    +0.000 N 
ATOM     11  H   UNL     1       8.875   7.897  19.000  0.00  0.00    +0.000 HD
BRANCH  10  12
ATOM     12  C   UNL     1       8.438   9.387  17.568  0.00  0.00    +0.000 C 
BRANCH  12  13
ATOM     13  C   UNL     1       9.027  10.444  18.468  0.00  0.00    +0.000 A 
ATOM     14  C   UNL     1       9.225  10.218  19.836  0.00  0.00    +0.000 A 
ATOM     15  C   UNL     1       9.821  11.192  20.648  0.00  0.00    +0.000 A 
ATOM     16  C   UNL     1      10.227  12.406  20.097  0.00  0.00    +0.000 A 
ATOM     17  C   UNL     1      10.037  12.633  18.740  0.00  0.00    +0.000 A 
ATOM     18  F   UNL     1      10.442  13.790  18.199  0.00  0.00    +0.000 F 
ATOM     19  C   UNL     1       9.449  11.668  17.926  0.00  0.00    +0.000 A 
ENDBRANCH  12  13
ENDBRANCH  10  12
ENDBRANCH   1   9
BRANCH   6  20
ATOM     20  C   UNL     1       3.595   4.879  18.478  0.00  0.00    +0.000 C 
BRANCH  20  21
ATOM     21  C   UNL     1       3.142   5.669  19.715  0.00  0.00    +0.000 C 
BRANCH  21  22
ATOM     22  C   UNL     1       2.483   6.985  19.369  0.00  0.00    +0.000 A 
ATOM     23  C   UNL     1       2.604   7.523  18.079  0.00  0.00    +0.000 A 
ATOM     24  C   UNL     1       2.006   8.744  17.756  0.00  0.00    +0.000 A 
ATOM     25  C   UNL     1       1.287   9.446  18.721  0.00  0.00    +0.000 A 
ATOM     26  C   UNL     1       1.178   8.922  20.003  0.00  0.00    +0.000 A 
ATOM     27  F   UNL     1       0.496   9.600  20.936  0.00  0.00    +0.000 F 
ATOM     28  C   UNL     1       1.768   7.706  20.336  0.00  0.00    +0.000 A 
ENDBRANCH  21  22
ENDBRANCH  20  21
ENDBRANCH   6  20
TORSDOF 6
ENDMDL
MODEL 5
REMARK VINA RESULT:      -8.2      1.324      1.843
REMARK  Name = 
REMARK  6 active torsions:
REMARK  status: ('A' for Active; 'I' for Inactive)
REMARK    1  A    between atoms: C_2  and  C_12
REMARK    2  A    between atoms: N_3  and  C_4
REMARK    3  A    between atoms: C_4  and  C_5
REMARK    4  A    between atoms: N_17  and  C_18
REMARK    5  A    between atoms: C_18  and  C_19
REMARK    6  A    between atoms: C_19  and  C_20
REMARK                            x       y       z     vdW  Elec       q    Type
REMARK                         _______ _______ _______ _____ _____    ______ ____
ROOT
ATOM      1  C   UNL     1       6.330   5.781  16.274  0.00  0.00    +0.000 C 
ATOM      2  C   UNL     1       7.115   4.541  16.670  0.00  0.00    +0.000 C 
ATOM      3  C   UNL     1       7.248   4.493  18.182  0.00  0.00    +0.000 C 
ATOM      4  C   UNL     1       7.760   5.779  18.811  0.00  0.00    +0.000 C 
ATOM      5  O   UNL     1       8.213   5.742  19.956  0.00  0.00    +0.000 OA
ATOM      6  N   UNL     1       7.644   6.960  18.079  0.00  0.00    +0.000 N 
ATOM      7  C   UNL     1       7.188   6.979  16.683  0.00  0.00    +0.000 C 
ENDROOT
BRANCH   1   9
ATOM      8  O   UNL     1       4.467   6.860  17.403  0.00  0.00    +0.000 OA
ATOM      9  C   UNL     1       4.927   5.841  16.895  0.00  0.00    +0.000 C 
ATOM     10  N   UNL     1       4.202   4.669  16.810  0.00  0.00    +0.000 N 
ATOM     11  H   UNL     1       4.657   3.818  16.508  0.00  0.00    +0.000 HD
BRANCH  10  12
ATOM     12  C   UNL     1       2.915   4.532  17.465  0.00  0.00    +0.000 C 
BRANCH  12  13
ATOM     13  C   UNL     1       3.010   3.718  18.731  0.00  0.00    +0.000 A 
ATOM     14  C   UNL     1       4.197   3.074  19.103  0.00  0.00    +0.000 A 
ATOM     15  C   UNL     1       4.284   2.365  20.308  0.00  0.00    +0.000 A 
ATOM     16  C   UNL     1       3.179   2.292  21.155  0.00  0.00    +0.000 A 
ATOM     17  C   UNL     1       2.002   2.933  20.793  0.00  0.00    +0.000 A 
ATOM     18  F   UNL     1       0.942   2.883  21.611  0.00  0.00    +0.000 F 
ATOM     19  C   UNL     1       1.909   3.643  19.598  0.00  0.00    +0.000 A 
ENDBRANCH  12  13
ENDBRANCH  10  12
ENDBRANCH   1   9
BRANCH   6  20
ATOM     20  C   UNL     1       8.376   8.135  18.588  0.00  0.00    +0.000 C 
BRANCH  20  21
ATOM     21  C   UNL     1       8.253   9.409  17.737  0.00  0.00    +0.000 C 
BRANCH  21  22
ATOM     22  C   UNL     1       8.858  10.625  18.399  0.00  0.00    +0.000 A 
ATOM     23  C   UNL     1       8.865  11.863  17.740  0.00  0.00    +0.000 A 
ATOM     24  C   UNL     1       9.432  12.990  18.341  0.00  0.00    +0.000 A 
ATOM     25  C   UNL     1      10.007  12.889  19.606  0.00  0.00    +0.000 A 
ATOM     26  C   UNL     1      10.015  11.661  20.255  0.00  0.00    +0.000 A 
ATOM     27  F   UNL     1      10.576  11.560  21.467  0.00  0.00    +0.000 F 
ATOM     28  C   UNL     1       9.451  10.533  19.666  0.00  0.00    +0.000 A 
ENDBRANCH  21  22
ENDBRANCH  20  21
ENDBRANCH   6  20
TORSDOF 6
ENDMDL
MODEL 6
REMARK VINA RESULT:      -8.2      1.888      9.104
REMARK  Name = 
REMARK  6 active torsions:
REMARK  status: ('A' for Active; 'I' for Inactive)
REMARK    1  A    between atoms: C_2  and  C_12
REMARK    2  A    between atoms: N_3  and  C_4
REMARK    3  A    between atoms: C_4  and  C_5
REMARK    4  A    between atoms: N_17  and  C_18
REMARK    5  A    between atoms: C_18  and  C_19
REMARK    6  A    between atoms: C_19  and  C_20
REMARK                            x       y       z     vdW  Elec       q    Type
REMARK                         _______ _______ _______ _____ _____    ______ ____
ROOT
ATOM      1  C   UNL     1       7.367   6.159  18.566  0.00  0.00    +0.000 C 
ATOM      2  C   UNL     1       7.740   4.788  18.026  0.00  0.00    +0.000 C 
ATOM      3  C   UNL     1       7.132   4.610  16.646  0.00  0.00    +0.000 C 
ATOM      4  C   UNL     1       5.647   4.924  16.566  0.00  0.00    +0.000 C 
ATOM      5  O   UNL     1       5.000   4.502  15.606  0.00  0.00    +0.000 OA
ATOM      6  N   UNL     1       5.091   5.727  17.561  0.00  0.00    +0.000 N 
ATOM      7  C   UNL     1       5.848   6.148  18.747  0.00  0.00    +0.000 C 
ENDROOT
BRANCH   1   9
ATOM      8  O   UNL     1       8.061   7.178  16.471  0.00  0.00    +0.000 OA
ATOM      9  C   UNL     1       7.829   7.317  17.669  0.00  0.00    +0.000 C 
ATOM     10  N   UNL     1       7.933   8.539  18.303  0.00  0.00    +0.000 N 
ATOM     11  H   UNL     1       7.865   8.590  19.310  0.00  0.00    +0.000 HD
BRANCH  10  12
ATOM     12  C   UNL     1       8.482   9.696  17.619  0.00  0.00    +0.000 C 
BRANCH  12  13
ATOM     13  C   UNL     1       9.426  10.475  18.500  0.00  0.00    +0.000 A 
ATOM     14  C   UNL     1      10.613  11.025  18.000  0.00  0.00    +0.000 A 
ATOM     15  C   UNL     1      11.453  11.790  18.819  0.00  0.00    +0.000 A 
ATOM     16  C   UNL     1      11.113  12.012  20.153  0.00  0.00    +0.000 A 
ATOM     17  C   UNL     1       9.935  11.473  20.652  0.00  0.00    +0.000 A 
ATOM     18  F   UNL     1       9.592  11.698  21.928  0.00  0.00    +0.000 F 
ATOM     19  C   UNL     1       9.093  10.714  19.842  0.00  0.00    +0.000 A 
ENDBRANCH  12  13
ENDBRANCH  10  12
ENDBRANCH   1   9
BRANCH   6  20
ATOM     20  C   UNL     1       3.619   5.802  17.613  0.00  0.00    +0.000 C 
BRANCH  20  21
ATOM     21  C   UNL     1       3.006   5.785  19.022  0.00  0.00    +0.000 C 
BRANCH  21  22
ATOM     22  C   UNL     1       2.242   4.516  19.321  0.00  0.00    +0.000 A 
ATOM     23  C   UNL     1       1.732   3.731  18.277  0.00  0.00    +0.000 A 
ATOM     24  C   UNL     1       1.015   2.562  18.546  0.00  0.00    +0.000 A 
ATOM     25  C   UNL     1       0.794   2.168  19.864  0.00  0.00    +0.000 A 
ATOM     26  C   UNL     1       1.286   2.951  20.900  0.00  0.00    +0.000 A 
ATOM     27  F   UNL     1       1.066   2.579  22.168  0.00  0.00    +0.000 F 
ATOM     28  C   UNL     1       2.003   4.117  20.644  0.00  0.00    +0.000 A 
ENDBRANCH  21  22
ENDBRANCH  20  21
ENDBRANCH   6  20
TORSDOF 6
ENDMDL
MODEL 7
REMARK VINA RESULT:      -8.2      3.661      5.914
REMARK  Name = 
REMARK  6 active torsions:
REMARK  status: ('A' for Active; 'I' for Inactive)
REMARK    1  A    between atoms: C_2  and  C_12
REMARK    2  A    between atoms: N_3  and  C_4
REMARK    3  A    between atoms: C_4  and  C_5
REMARK    4  A    between atoms: N_17  and  C_18
REMARK    5  A    between atoms: C_18  and  C_19
REMARK    6  A    between atoms: C_19  and  C_20
REMARK                            x       y       z     vdW  Elec       q    Type
REMARK                         _______ _______ _______ _____ _____    ______ ____
ROOT
ATOM      1  C   UNL     1       1.172   3.680  18.478  0.00  0.00    +0.000 C 
ATOM      2  C   UNL     1       1.147   2.230  18.936  0.00  0.00    +0.000 C 
ATOM      3  C   UNL     1       2.449   1.905  19.645  0.00  0.00    +0.000 C 
ATOM      4  C   UNL     1       3.701   2.289  18.874  0.00  0.00    +0.000 C 
ATOM      5  O   UNL     1       4.777   1.781  19.194  0.00  0.00    +0.000 OA
ATOM      6  N   UNL     1       3.584   3.247  17.867  0.00  0.00    +0.000 N 
ATOM      7  C   UNL     1       2.285   3.778  17.433  0.00  0.00    +0.000 C 
ENDROOT
BRANCH   1   9
ATOM      8  O   UNL     1       0.822   4.559  20.717  0.00  0.00    +0.000 OA
ATOM      9  C   UNL     1       1.372   4.680  19.626  0.00  0.00    +0.000 C 
ATOM     10  N   UNL     1       2.248   5.712  19.353  0.00  0.00    +0.000 N 
ATOM     11  H   UNL     1       2.577   5.855  18.408  0.00  0.00    +0.000 HD
BRANCH  10  12
ATOM     12  C   UNL     1       2.438   6.804  20.290  0.00  0.00    +0.000 C 
BRANCH  12  13
ATOM     13  C   UNL     1       1.913   8.110  19.747  0.00  0.00    +0.000 A 
ATOM     14  C   UNL     1       2.280   8.580  18.480  0.00  0.00    +0.000 A 
ATOM     15  C   UNL     1       1.744   9.769  17.970  0.00  0.00    +0.000 A 
ATOM     16  C   UNL     1       0.831  10.503  18.726  0.00  0.00    +0.000 A 
ATOM     17  C   UNL     1       0.460  10.038  19.981  0.00  0.00    +0.000 A 
ATOM     18  F   UNL     1      -0.431  10.728  20.706  0.00  0.00    +0.000 F 
ATOM     19  C   UNL     1       0.987   8.854  20.493  0.00  0.00    +0.000 A 
ENDBRANCH  12  13
ENDBRANCH  10  12
ENDBRANCH   1   9
BRANCH   6  20
ATOM     20  C   UNL     1       4.739   3.412  16.965  0.00  0.00    +0.000 C 
BRANCH  20  21
ATOM     21  C   UNL     1       4.969   4.837  16.441  0.00  0.00    +0.000 C 
BRANCH  21  22
ATOM     22  C   UNL     1       6.054   5.576  17.190  0.00  0.00    +0.000 A 
ATOM     23  C   UNL     1       6.794   4.929  18.191  0.00  0.00    +0.000 A 
ATOM     24  C   UNL     1       7.791   5.608  18.895  0.00  0.00    +0.000 A 
ATOM     25  C   UNL     1       8.056   6.946  18.611  0.00  0.00    +0.000 A 
ATOM     26  C   UNL     1       7.316   7.594  17.630  0.00  0.00    +0.000 A 
ATOM     27  F   UNL     1       7.562   8.883  17.363  0.00  0.00    +0.000 F 
ATOM     28  C   UNL     1       6.321   6.926  16.922  0.00  0.00    +0.000 A 
ENDBRANCH  21  22
ENDBRANCH  20  21
ENDBRANCH   6  20
TORSDOF 6
ENDMDL
MODEL 8
REMARK VINA RESULT:      -8.1      1.980      8.790
REMARK  Name = 
REMARK  6 active torsions:
REMARK  status: ('A' for Active; 'I' for Inactive)
REMARK    1  A    between atoms: C_2  and  C_12
REMARK    2  A    between atoms: N_3  and  C_4
REMARK    3  A    between atoms: C_4  and  C_5
REMARK    4  A    between atoms: N_17  and  C_18
REMARK    5  A    between atoms: C_18  and  C_19
REMARK    6  A    between atoms: C_19  and  C_20
REMARK                            x       y       z     vdW  Elec       q    Type
REMARK                         _______ _______ _______ _____ _____    ______ ____
ROOT
ATOM      1  C   UNL     1       6.943   5.984  18.639  0.00  0.00    +0.000 C 
ATOM      2  C   UNL     1       7.901   4.865  18.263  0.00  0.00    +0.000 C 
ATOM      3  C   UNL     1       7.716   4.517  16.796  0.00  0.00    +0.000 C 
ATOM      4  C   UNL     1       6.274   4.263  16.386  0.00  0.00    +0.000 C 
ATOM      5  O   UNL     1       6.052   3.662  15.333  0.00  0.00    +0.000 OA
ATOM      6  N   UNL     1       5.260   4.772  17.197  0.00  0.00    +0.000 N 
ATOM      7  C   UNL     1       5.534   5.407  18.493  0.00  0.00    +0.000 C 
ENDROOT
BRANCH   1   9
ATOM      8  O   UNL     1       6.483   7.486  16.784  0.00  0.00    +0.000 OA
ATOM      9  C   UNL     1       7.131   7.257  17.802  0.00  0.00    +0.000 C 
ATOM     10  N   UNL     1       8.064   8.147  18.297  0.00  0.00    +0.000 N 
ATOM     11  H   UNL     1       8.670   7.868  19.056  0.00  0.00    +0.000 HD
BRANCH  10  12
ATOM     12  C   UNL     1       8.445   9.331  17.549  0.00  0.00    +0.000 C 
BRANCH  12  13
ATOM     13  C   UNL     1       9.243  10.296  18.389  0.00  0.00    +0.000 A 
ATOM     14  C   UNL     1      10.160  11.186  17.815  0.00  0.00    +0.000 A 
ATOM     15  C   UNL     1      10.855  12.111  18.604  0.00  0.00    +0.000 A 
ATOM     16  C   UNL     1      10.640  12.155  19.981  0.00  0.00    +0.000 A 
ATOM     17  C   UNL     1       9.728  11.277  20.553  0.00  0.00    +0.000 A 
ATOM     18  F   UNL     1       9.501  11.327  21.873  0.00  0.00    +0.000 F 
ATOM     19  C   UNL     1       9.030  10.357  19.774  0.00  0.00    +0.000 A 
ENDBRANCH  12  13
ENDBRANCH  10  12
ENDBRANCH   1   9
BRANCH   6  20
ATOM     20  C   UNL     1       3.890   4.297  16.930  0.00  0.00    +0.000 C 
BRANCH  20  21
ATOM     21  C   UNL     1       3.515   2.961  17.589  0.00  0.00    +0.000 C 
BRANCH  21  22
ATOM     22  C   UNL     1       2.907   3.127  18.962  0.00  0.00    +0.000 A 
ATOM     23  C   UNL     1       3.431   2.427  20.060  0.00  0.00    +0.000 A 
ATOM     24  C   UNL     1       2.867   2.567  21.331  0.00  0.00    +0.000 A 
ATOM     25  C   UNL     1       1.768   3.403  21.518  0.00  0.00    +0.000 A 
ATOM     26  C   UNL     1       1.239   4.085  20.430  0.00  0.00    +0.000 A 
ATOM     27  F   UNL     1       0.175   4.881  20.606  0.00  0.00    +0.000 F 
ATOM     28  C   UNL     1       1.793   3.954  19.160  0.00  0.00    +0.000 A 
ENDBRANCH  21  22
ENDBRANCH  20  21
ENDBRANCH   6  20
TORSDOF 6
ENDMDL
MODEL 9
REMARK VINA RESULT:      -8.0      4.140      7.310
REMARK  Name = 
REMARK  6 active torsions:
REMARK  status: ('A' for Active; 'I' for Inactive)
REMARK    1  A    between atoms: C_2  and  C_12
REMARK    2  A    between atoms: N_3  and  C_4
REMARK    3  A    between atoms: C_4  and  C_5
REMARK    4  A    between atoms: N_17  and  C_18
REMARK    5  A    between atoms: C_18  and  C_19
REMARK    6  A    between atoms: C_19  and  C_20
REMARK                            x       y       z     vdW  Elec       q    Type
REMARK                         _______ _______ _______ _____ _____    ______ ____
ROOT
ATOM      1  C   UNL     1       7.741   5.394  17.928  0.00  0.00    +0.000 C 
ATOM      2  C   UNL     1       7.697   6.900  17.730  0.00  0.00    +0.000 C 
ATOM      3  C   UNL     1       6.262   7.333  17.486  0.00  0.00    +0.000 C 
ATOM      4  C   UNL     1       5.541   6.544  16.404  0.00  0.00    +0.000 C 
ATOM      5  O   UNL     1       4.519   7.016  15.905  0.00  0.00    +0.000 OA
ATOM      6  N   UNL     1       6.043   5.289  16.062  0.00  0.00    +0.000 N 
ATOM      7  C   UNL     1       7.311   4.775  16.597  0.00  0.00    +0.000 C 
ENDROOT
BRANCH   1   9
ATOM      8  O   UNL     1       6.975   5.354  20.234  0.00  0.00    +0.000 OA
ATOM      9  C   UNL     1       6.873   4.905  19.096  0.00  0.00    +0.000 C 
ATOM     10  N   UNL     1       5.940   3.942  18.765  0.00  0.00    +0.000 N 
ATOM     11  H   UNL     1       5.973   3.502  17.855  0.00  0.00    +0.000 HD
BRANCH  10  12
ATOM     12  C   UNL     1       5.138   3.291  19.784  0.00  0.00    +0.000 C 
BRANCH  12  13
ATOM     13  C   UNL     1       3.668   3.314  19.445  0.00  0.00    +0.000 A 
ATOM     14  C   UNL     1       3.219   3.548  18.139  0.00  0.00    +0.000 A 
ATOM     15  C   UNL     1       1.852   3.516  17.831  0.00  0.00    +0.000 A 
ATOM     16  C   UNL     1       0.919   3.249  18.832  0.00  0.00    +0.000 A 
ATOM     17  C   UNL     1       1.361   3.011  20.127  0.00  0.00    +0.000 A 
ATOM     18  F   UNL     1       0.470   2.735  21.090  0.00  0.00    +0.000 F 
ATOM     19  C   UNL     1       2.718   3.038  20.439  0.00  0.00    +0.000 A 
ENDBRANCH  12  13
ENDBRANCH  10  12
ENDBRANCH   1   9
BRANCH   6  20
ATOM     20  C   UNL     1       5.496   4.660  14.845  0.00  0.00    +0.000 C 
BRANCH  20  21
ATOM     21  C   UNL     1       6.495   4.475  13.693  0.00  0.00    +0.000 C 
BRANCH  21  22
ATOM     22  C   UNL     1       6.003   3.521  12.629  0.00  0.00    +0.000 A 
ATOM     23  C   UNL     1       6.862   2.549  12.094  0.00  0.00    +0.000 A 
ATOM     24  C   UNL     1       6.417   1.670  11.103  0.00  0.00    +0.000 A 
ATOM     25  C   UNL     1       5.110   1.757  10.630  0.00  0.00    +0.000 A 
ATOM     26  C   UNL     1       4.262   2.728  11.147  0.00  0.00    +0.000 A 
ATOM     27  F   UNL     1       3.007   2.821  10.685  0.00  0.00    +0.000 F 
ATOM     28  C   UNL     1       4.694   3.608  12.136  0.00  0.00    +0.000 A 
ENDBRANCH  21  22
ENDBRANCH  20  21
ENDBRANCH   6  20
TORSDOF 6
ENDMDL
