MODEL 1
REMARK VINA RESULT:      -6.9      0.000      0.000
REMARK  Name = 
REMARK  7 active torsions:
REMARK  status: ('A' for Active; 'I' for Inactive)
REMARK    1  A    between atoms: N_6  and  C_7
REMARK    2  A    between atoms: C_7  and  C_8
REMARK    3  A    between atoms: C_8  and  N_9
REMARK    4  A    between atoms: C_13  and  C_14
REMARK    5  A    between atoms: C_13  and  C_16
REMARK    6  A    between atoms: C_14  and  O_15
REMARK    7  A    between atoms: C_16  and  C_17
REMARK                            x       y       z     vdW  Elec       q    Type
REMARK                         _______ _______ _______ _____ _____    ______ ____
ROOT
ATOM      1  N   UNL     1       5.159   5.975  17.047  0.00  0.00    +0.000 NA
ATOM      2  C   UNL     1       4.288   7.158  17.181  0.00  0.00    +0.000 C 
ATOM      3  C   UNL     1       3.375   7.034  18.405  0.00  0.00    +0.000 C 
ATOM      4  C   UNL     1       2.593   5.718  18.434  0.00  0.00    +0.000 C 
ATOM      5  C   UNL     1       3.448   4.462  18.124  0.00  0.00    +0.000 C 
ATOM      6  C   UNL     1       4.315   4.771  16.863  0.00  0.00    +0.000 C 
ENDROOT
BRANCH   1   7
ATOM      7  C   UNL     1       6.115   6.109  15.921  0.00  0.00    +0.000 C 
BRANCH   7   8
ATOM      8  C   UNL     1       6.886   4.811  15.591  0.00  0.00    +0.000 C 
BRANCH   8  14
ATOM      9  O   UNL     1       8.613   5.859  13.463  0.00  0.00    +0.000 OA
ATOM     10  C   UNL     1       7.725   5.062  13.238  0.00  0.00    +0.000 C 
ATOM     11  C   UNL     1       7.286   4.593  11.870  0.00  0.00    +0.000 C 
ATOM     12  C   UNL     1       6.386   3.403  12.185  0.00  0.00    +0.000 C 
ATOM     13  C   UNL     1       5.816   3.736  13.551  0.00  0.00    +0.000 C 
ATOM     14  N   UNL     1       6.884   4.474  14.174  0.00  0.00    +0.000 N 
ENDBRANCH   8  14
ENDBRANCH   7   8
ENDBRANCH   1   7
BRANCH   5  15
ATOM     15  C   UNL     1       4.374   4.083  19.314  0.00  0.00    +0.000 C 
BRANCH  15  16
ATOM     16  O   UNL     1       5.697   3.728  18.931  0.00  0.00    +0.000 OA
ATOM     17  H   UNL     1       5.681   2.775  18.707  0.00  0.00    +0.000 HD
ENDBRANCH  15  16
ENDBRANCH   5  15
BRANCH   5  18
ATOM     18  C   UNL     1       2.537   3.238  17.772  0.00  0.00    +0.000 C 
BRANCH  18  19
ATOM     19  C   UNL     1       1.151   3.237  18.378  0.00  0.00    +0.000 C 
ATOM     20  C   UNL     1       0.609   1.950  18.965  0.00  0.00    +0.000 C 
ATOM     21  C   UNL     1       0.934   3.107  19.865  0.00  0.00    +0.000 C 
ENDBRANCH  18  19
ENDBRANCH   5  18
TORSDOF 7
ENDMDL
MODEL 2
REMARK VINA RESULT:      -6.8      2.500      6.853
REMARK  Name = 
REMARK  7 active torsions:
REMARK  status: ('A' for Active; 'I' for Inactive)
REMARK    1  A    between atoms: N_6  and  C_7
REMARK    2  A    between atoms: C_7  and  C_8
REMARK    3  A    between atoms: C_8  and  N_9
REMARK    4  A    between atoms: C_13  and  C_14
REMARK    5  A    between atoms: C_13  and  C_16
REMARK    6  A    between atoms: C_14  and  O_15
REMARK    7  A    between atoms: C_16  and  C_17
REMARK                            x       y       z     vdW  Elec       q    Type
REMARK                         _______ _______ _______ _____ _____    ______ ____
ROOT
ATOM      1  N   UNL     1       4.696   4.435  17.114  0.00  0.00    +0.000 NA
ATOM      2  C   UNL     1       5.184   4.078  15.769  0.00  0.00    +0.000 C 
ATOM      3  C   UNL     1       6.696   4.295  15.656  0.00  0.00    +0.000 C 
ATOM      4  C   UNL     1       7.131   5.698  16.089  0.00  0.00    +0.000 C 
ATOM      5  C   UNL     1       6.497   6.179  17.420  0.00  0.00    +0.000 C 
ATOM      6  C   UNL     1       4.967   5.871  17.362  0.00  0.00    +0.000 C 
ENDROOT
BRANCH   1   7
ATOM      7  C   UNL     1       3.249   4.151  17.277  0.00  0.00    +0.000 C 
BRANCH   7   8
ATOM      8  C   UNL     1       2.942   2.753  17.860  0.00  0.00    +0.000 C 
BRANCH   8  14
ATOM      9  O   UNL     1       4.667   2.496  20.220  0.00  0.00    +0.000 OA
ATOM     10  C   UNL     1       3.460   2.605  20.312  0.00  0.00    +0.000 C 
ATOM     11  C   UNL     1       2.659   2.497  21.589  0.00  0.00    +0.000 C 
ATOM     12  C   UNL     1       1.285   3.013  21.179  0.00  0.00    +0.000 C 
ATOM     13  C   UNL     1       1.196   2.665  19.705  0.00  0.00    +0.000 C 
ATOM     14  N   UNL     1       2.563   2.776  19.266  0.00  0.00    +0.000 N 
ENDBRANCH   8  14
ENDBRANCH   7   8
ENDBRANCH   1   7
BRANCH   5  15
ATOM     15  C   UNL     1       7.125   5.468  18.652  0.00  0.00    +0.000 C 
BRANCH  15  16
ATOM     16  O   UNL     1       6.186   4.774  19.465  0.00  0.00    +0.000 OA
ATOM     17  H   UNL     1       5.904   3.984  18.959  0.00  0.00    +0.000 HD
ENDBRANCH  15  16
ENDBRANCH   5  15
BRANCH   5  18
ATOM     18  C   UNL     1       6.652   7.728  17.587  0.00  0.00    +0.000 C 
BRANCH  18  19
ATOM     19  C   UNL     1       8.067   8.263  17.598  0.00  0.00    +0.000 C 
ATOM     20  C   UNL     1       8.288   9.745  17.818  0.00  0.00    +0.000 C 
ATOM     21  C   UNL     1       8.718   8.759  18.865  0.00  0.00    +0.000 C 
ENDBRANCH  18  19
ENDBRANCH   5  18
TORSDOF 7
ENDMDL
MODEL 3
REMARK VINA RESULT:      -6.7      1.219      1.328
REMARK  Name = 
REMARK  7 active torsions:
REMARK  status: ('A' for Active; 'I' for Inactive)
REMARK    1  A    between atoms: N_6  and  C_7
REMARK    2  A    between atoms: C_7  and  C_8
REMARK    3  A    between atoms: C_8  and  N_9
REMARK    4  A    between atoms: C_13  and  C_14
REMARK    5  A    between atoms: C_13  and  C_16
REMARK    6  A    between atoms: C_14  and  O_15
REMARK    7  A    between atoms: C_16  and  C_17
REMARK                            x       y       z     vdW  Elec       q    Type
REMARK                         _______ _______ _______ _____ _____    ______ ____
ROOT
ATOM      1  N   UNL     1       5.284   5.235  17.338  0.00  0.00    +0.000 NA
ATOM      2  C   UNL     1       5.073   6.540  16.682  0.00  0.00    +0.000 C 
ATOM      3  C   UNL     1       4.050   7.383  17.449  0.00  0.00    +0.000 C 
ATOM      4  C   UNL     1       2.740   6.637  17.713  0.00  0.00    +0.000 C 
ATOM      5  C   UNL     1       2.926   5.190  18.242  0.00  0.00    +0.000 C 
ATOM      6  C   UNL     1       4.003   4.490  17.355  0.00  0.00    +0.000 C 
ENDROOT
BRANCH   1   7
ATOM      7  C   UNL     1       6.335   4.434  16.665  0.00  0.00    +0.000 C 
BRANCH   7   8
ATOM      8  C   UNL     1       7.153   5.220  15.615  0.00  0.00    +0.000 C 
BRANCH   8  14
ATOM      9  O   UNL     1       8.716   5.910  13.230  0.00  0.00    +0.000 OA
ATOM     10  C   UNL     1       7.779   5.137  13.186  0.00  0.00    +0.000 C 
ATOM     11  C   UNL     1       7.198   4.526  11.932  0.00  0.00    +0.000 C 
ATOM     12  C   UNL     1       6.285   3.431  12.473  0.00  0.00    +0.000 C 
ATOM     13  C   UNL     1       5.857   3.958  13.830  0.00  0.00    +0.000 C 
ATOM     14  N   UNL     1       7.007   4.712  14.259  0.00  0.00    +0.000 N 
ENDBRANCH   8  14
ENDBRANCH   7   8
ENDBRANCH   1   7
BRANCH   5  15
ATOM     15  C   UNL     1       3.382   5.171  19.728  0.00  0.00    +0.000 C 
BRANCH  15  16
ATOM     16  O   UNL     1       2.790   6.183  20.532  0.00  0.00    +0.000 OA
ATOM     17  H   UNL     1       3.440   6.913  20.592  0.00  0.00    +0.000 HD
ENDBRANCH  15  16
ENDBRANCH   5  15
BRANCH   5  18
ATOM     18  C   UNL     1       1.601   4.368  18.100  0.00  0.00    +0.000 C 
BRANCH  18  19
ATOM     19  C   UNL     1       1.328   3.344  19.180  0.00  0.00    +0.000 C 
ATOM     20  C   UNL     1       0.496   2.125  18.839  0.00  0.00    +0.000 C 
ATOM     21  C   UNL     1       1.957   1.974  19.152  0.00  0.00    +0.000 C 
ENDBRANCH  18  19
ENDBRANCH   5  18
TORSDOF 7
ENDMDL
MODEL 4
REMARK VINA RESULT:      -6.6      1.920      6.627
REMARK  Name = 
REMARK  7 active torsions:
REMARK  status: ('A' for Active; 'I' for Inactive)
REMARK    1  A    between atoms: N_6  and  C_7
REMARK    2  A    between atoms: C_7  and  C_8
REMARK    3  A    between atoms: C_8  and  N_9
REMARK    4  A    between atoms: C_13  and  C_14
REMARK    5  A    between atoms: C_13  and  C_16
REMARK    6  A    between atoms: C_14  and  O_15
REMARK    7  A    between atoms: C_16  and  C_17
REMARK                            x       y       z     vdW  Elec       q    Type
REMARK                         _______ _______ _______ _____ _____    ______ ____
ROOT
ATOM      1  N   UNL     1       4.872   5.679  17.867  0.00  0.00    +0.000 NA
ATOM      2  C   UNL     1       5.951   5.290  18.795  0.00  0.00    +0.000 C 
ATOM      3  C   UNL     1       7.314   5.317  18.097  0.00  0.00    +0.000 C 
ATOM      4  C   UNL     1       7.335   4.510  16.797  0.00  0.00    +0.000 C 
ATOM      5  C   UNL     1       6.118   4.766  15.869  0.00  0.00    +0.000 C 
ATOM      6  C   UNL     1       4.827   4.711  16.746  0.00  0.00    +0.000 C 
ENDROOT
BRANCH   1   7
ATOM      7  C   UNL     1       3.552   5.745  18.541  0.00  0.00    +0.000 C 
BRANCH   7   8
ATOM      8  C   UNL     1       2.703   4.462  18.394  0.00  0.00    +0.000 C 
BRANCH   8  14
ATOM      9  O   UNL     1       4.368   2.507  19.812  0.00  0.00    +0.000 OA
ATOM     10  C   UNL     1       3.277   2.846  20.227  0.00  0.00    +0.000 C 
ATOM     11  C   UNL     1       2.561   2.250  21.416  0.00  0.00    +0.000 C 
ATOM     12  C   UNL     1       1.422   3.234  21.661  0.00  0.00    +0.000 C 
ATOM     13  C   UNL     1       1.137   3.804  20.285  0.00  0.00    +0.000 C 
ATOM     14  N   UNL     1       2.434   3.791  19.657  0.00  0.00    +0.000 N 
ENDBRANCH   8  14
ENDBRANCH   7   8
ENDBRANCH   1   7
BRANCH   5  15
ATOM     15  C   UNL     1       6.209   6.146  15.161  0.00  0.00    +0.000 C 
BRANCH  15  16
ATOM     16  O   UNL     1       5.059   6.966  15.332  0.00  0.00    +0.000 OA
ATOM     17  H   UNL     1       5.379   7.886  15.426  0.00  0.00    +0.000 HD
ENDBRANCH  15  16
ENDBRANCH   5  15
BRANCH   5  18
ATOM     18  C   UNL     1       5.992   3.640  14.788  0.00  0.00    +0.000 C 
BRANCH  18  19
ATOM     19  C   UNL     1       5.782   4.100  13.362  0.00  0.00    +0.000 C 
ATOM     20  C   UNL     1       6.710   3.583  12.282  0.00  0.00    +0.000 C 
ATOM     21  C   UNL     1       5.267   3.167  12.295  0.00  0.00    +0.000 C 
ENDBRANCH  18  19
ENDBRANCH   5  18
TORSDOF 7
ENDMDL
MODEL 5
REMARK VINA RESULT:      -6.6      2.046      6.377
REMARK  Name = 
REMARK  7 active torsions:
REMARK  status: ('A' for Active; 'I' for Inactive)
REMARK    1  A    between atoms: N_6  and  C_7
REMARK    2  A    between atoms: C_7  and  C_8
REMARK    3  A    between atoms: C_8  and  N_9
REMARK    4  A    between atoms: C_13  and  C_14
REMARK    5  A    between atoms: C_13  and  C_16
REMARK    6  A    between atoms: C_14  and  O_15
REMARK    7  A    between atoms: C_16  and  C_17
REMARK                            x       y       z     vdW  Elec       q    Type
REMARK                         _______ _______ _______ _____ _____    ______ ____
ROOT
ATOM      1  N   UNL     1       5.238   5.641  18.611  0.00  0.00    +0.000 NA
ATOM      2  C   UNL     1       6.467   5.244  19.326  0.00  0.00    +0.000 C 
ATOM      3  C   UNL     1       7.691   5.335  18.410  0.00  0.00    +0.000 C 
ATOM      4  C   UNL     1       7.506   4.580  17.091  0.00  0.00    +0.000 C 
ATOM      5  C   UNL     1       6.144   4.840  16.394  0.00  0.00    +0.000 C 
ATOM      6  C   UNL     1       5.022   4.718  17.473  0.00  0.00    +0.000 C 
ENDROOT
BRANCH   1   7
ATOM      7  C   UNL     1       4.051   5.646  19.500  0.00  0.00    +0.000 C 
BRANCH   7   8
ATOM      8  C   UNL     1       2.704   5.523  18.753  0.00  0.00    +0.000 C 
BRANCH   8  14
ATOM      9  O   UNL     1       1.969   3.245  17.057  0.00  0.00    +0.000 OA
ATOM     10  C   UNL     1       1.613   3.326  18.216  0.00  0.00    +0.000 C 
ATOM     11  C   UNL     1       0.665   2.382  18.917  0.00  0.00    +0.000 C 
ATOM     12  C   UNL     1       0.821   2.762  20.385  0.00  0.00    +0.000 C 
ATOM     13  C   UNL     1       1.192   4.232  20.338  0.00  0.00    +0.000 C 
ATOM     14  N   UNL     1       1.942   4.335  19.113  0.00  0.00    +0.000 N 
ENDBRANCH   8  14
ENDBRANCH   7   8
ENDBRANCH   1   7
BRANCH   5  15
ATOM     15  C   UNL     1       6.087   6.250  15.741  0.00  0.00    +0.000 C 
BRANCH  15  16
ATOM     16  O   UNL     1       6.450   7.312  16.614  0.00  0.00    +0.000 OA
ATOM     17  H   UNL     1       6.062   7.104  17.489  0.00  0.00    +0.000 HD
ENDBRANCH  15  16
ENDBRANCH   5  15
BRANCH   5  18
ATOM     18  C   UNL     1       5.859   3.756  15.301  0.00  0.00    +0.000 C 
BRANCH  18  19
ATOM     19  C   UNL     1       5.715   4.256  13.881  0.00  0.00    +0.000 C 
ATOM     20  C   UNL     1       6.818   3.958  12.885  0.00  0.00    +0.000 C 
ATOM     21  C   UNL     1       5.471   3.313  12.728  0.00  0.00    +0.000 C 
ENDBRANCH  18  19
ENDBRANCH   5  18
TORSDOF 7
ENDMDL
MODEL 6
REMARK VINA RESULT:      -6.6      2.483      6.897
REMARK  Name = 
REMARK  7 active torsions:
REMARK  status: ('A' for Active; 'I' for Inactive)
REMARK    1  A    between atoms: N_6  and  C_7
REMARK    2  A    between atoms: C_7  and  C_8
REMARK    3  A    between atoms: C_8  and  N_9
REMARK    4  A    between atoms: C_13  and  C_14
REMARK    5  A    between atoms: C_13  and  C_16
REMARK    6  A    between atoms: C_14  and  O_15
REMARK    7  A    between atoms: C_16  and  C_17
REMARK                            x       y       z     vdW  Elec       q    Type
REMARK                         _______ _______ _______ _____ _____    ______ ____
ROOT
ATOM      1  N   UNL     1       4.872   3.873  16.629  0.00  0.00    +0.000 NA
ATOM      2  C   UNL     1       5.132   3.798  15.179  0.00  0.00    +0.000 C 
ATOM      3  C   UNL     1       6.570   4.214  14.855  0.00  0.00    +0.000 C 
ATOM      4  C   UNL     1       6.946   5.573  15.452  0.00  0.00    +0.000 C 
ATOM      5  C   UNL     1       6.529   5.754  16.935  0.00  0.00    +0.000 C 
ATOM      6  C   UNL     1       5.051   5.273  17.080  0.00  0.00    +0.000 C 
ENDROOT
BRANCH   1   7
ATOM      7  C   UNL     1       3.514   3.391  16.980  0.00  0.00    +0.000 C 
BRANCH   7   8
ATOM      8  C   UNL     1       2.634   4.445  17.689  0.00  0.00    +0.000 C 
BRANCH   8  14
ATOM      9  O   UNL     1       0.622   2.453  18.458  0.00  0.00    +0.000 OA
ATOM     10  C   UNL     1       1.217   3.119  19.282  0.00  0.00    +0.000 C 
ATOM     11  C   UNL     1       0.945   3.134  20.768  0.00  0.00    +0.000 C 
ATOM     12  C   UNL     1       2.151   3.876  21.332  0.00  0.00    +0.000 C 
ATOM     13  C   UNL     1       2.562   4.804  20.205  0.00  0.00    +0.000 C 
ATOM     14  N   UNL     1       2.214   4.052  19.027  0.00  0.00    +0.000 N 
ENDBRANCH   8  14
ENDBRANCH   7   8
ENDBRANCH   1   7
BRANCH   5  15
ATOM     15  C   UNL     1       7.439   4.939  17.897  0.00  0.00    +0.000 C 
BRANCH  15  16
ATOM     16  O   UNL     1       6.728   4.183  18.870  0.00  0.00    +0.000 OA
ATOM     17  H   UNL     1       6.089   3.623  18.383  0.00  0.00    +0.000 HD
ENDBRANCH  15  16
ENDBRANCH   5  15
BRANCH   5  18
ATOM     18  C   UNL     1       6.569   7.264  17.347  0.00  0.00    +0.000 C 
BRANCH  18  19
ATOM     19  C   UNL     1       7.939   7.901  17.430  0.00  0.00    +0.000 C 
ATOM     20  C   UNL     1       8.043   9.370  17.783  0.00  0.00    +0.000 C 
ATOM     21  C   UNL     1       8.537   8.330  18.747  0.00  0.00    +0.000 C 
ENDBRANCH  18  19
ENDBRANCH   5  18
TORSDOF 7
ENDMDL
MODEL 7
REMARK VINA RESULT:      -6.5      2.514      6.112
REMARK  Name = 
REMARK  7 active torsions:
REMARK  status: ('A' for Active; 'I' for Inactive)
REMARK    1  A    between atoms: N_6  and  C_7
REMARK    2  A    between atoms: C_7  and  C_8
REMARK    3  A    between atoms: C_8  and  N_9
REMARK    4  A    between atoms: C_13  and  C_14
REMARK    5  A    between atoms: C_13  and  C_16
REMARK    6  A    between atoms: C_14  and  O_15
REMARK    7  A    between atoms: C_16  and  C_17
REMARK                            x       y       z     vdW  Elec       q    Type
REMARK                         _______ _______ _______ _____ _____    ______ ____
ROOT
ATOM      1  N   UNL     1       4.498   3.548  17.038  0.00  0.00    +0.000 NA
ATOM      2  C   UNL     1       5.089   3.630  15.689  0.00  0.00    +0.000 C 
ATOM      3  C   UNL     1       6.261   4.616  15.660  0.00  0.00    +0.000 C 
ATOM      4  C   UNL     1       5.899   5.990  16.230  0.00  0.00    +0.000 C 
ATOM      5  C   UNL     1       5.119   5.937  17.570  0.00  0.00    +0.000 C 
ATOM      6  C   UNL     1       3.978   4.882  17.420  0.00  0.00    +0.000 C 
ENDROOT
BRANCH   1   7
ATOM      7  C   UNL     1       3.418   2.535  17.115  0.00  0.00    +0.000 C 
BRANCH   7   8
ATOM      8  C   UNL     1       3.383   1.750  18.446  0.00  0.00    +0.000 C 
BRANCH   8  14
ATOM      9  O   UNL     1       4.163   2.208  21.237  0.00  0.00    +0.000 OA
ATOM     10  C   UNL     1       3.078   2.547  20.807  0.00  0.00    +0.000 C 
ATOM     11  C   UNL     1       1.943   3.115  21.626  0.00  0.00    +0.000 C 
ATOM     12  C   UNL     1       0.981   3.638  20.566  0.00  0.00    +0.000 C 
ATOM     13  C   UNL     1       1.230   2.731  19.376  0.00  0.00    +0.000 C 
ATOM     14  N   UNL     1       2.630   2.417  19.499  0.00  0.00    +0.000 N 
ENDBRANCH   8  14
ENDBRANCH   7   8
ENDBRANCH   1   7
BRANCH   5  15
ATOM     15  C   UNL     1       6.038   5.547  18.761  0.00  0.00    +0.000 C 
BRANCH  15  16
ATOM     16  O   UNL     1       5.618   4.383  19.463  0.00  0.00    +0.000 OA
ATOM     17  H   UNL     1       5.809   4.539  20.410  0.00  0.00    +0.000 HD
ENDBRANCH  15  16
ENDBRANCH   5  15
BRANCH   5  18
ATOM     18  C   UNL     1       4.439   7.315  17.876  0.00  0.00    +0.000 C 
BRANCH  18  19
ATOM     19  C   UNL     1       2.927   7.341  17.835  0.00  0.00    +0.000 C 
ATOM     20  C   UNL     1       2.171   7.848  19.046  0.00  0.00    +0.000 C 
ATOM     21  C   UNL     1       2.157   8.636  17.768  0.00  0.00    +0.000 C 
ENDBRANCH  18  19
ENDBRANCH   5  18
TORSDOF 7
ENDMDL
MODEL 8
REMARK VINA RESULT:      -6.5      2.758      7.165
REMARK  Name = 
REMARK  7 active torsions:
REMARK  status: ('A' for Active; 'I' for Inactive)
REMARK    1  A    between atoms: N_6  and  C_7
REMARK    2  A    between atoms: C_7  and  C_8
REMARK    3  A    between atoms: C_8  and  N_9
REMARK    4  A    between atoms: C_13  and  C_14
REMARK    5  A    between atoms: C_13  and  C_16
REMARK    6  A    between atoms: C_14  and  O_15
REMARK    7  A    between atoms: C_16  and  C_17
REMARK                            x       y       z     vdW  Elec       q    Type
REMARK                         _______ _______ _______ _____ _____    ______ ____
ROOT
ATOM      1  N   UNL     1       4.682   5.425  17.972  0.00  0.00    +0.000 NA
ATOM      2  C   UNL     1       4.623   4.560  16.778  0.00  0.00    +0.000 C 
ATOM      3  C   UNL     1       6.013   4.030  16.413  0.00  0.00    +0.000 C 
ATOM      4  C   UNL     1       7.061   5.139  16.288  0.00  0.00    +0.000 C 
ATOM      5  C   UNL     1       7.036   6.172  17.444  0.00  0.00    +0.000 C 
ATOM      6  C   UNL     1       5.551   6.590  17.683  0.00  0.00    +0.000 C 
ENDROOT
BRANCH   1   7
ATOM      7  C   UNL     1       3.337   5.881  18.398  0.00  0.00    +0.000 C 
BRANCH   7   8
ATOM      8  C   UNL     1       2.246   4.790  18.319  0.00  0.00    +0.000 C 
BRANCH   8  14
ATOM      9  O   UNL     1       0.807   2.273  18.770  0.00  0.00    +0.000 OA
ATOM     10  C   UNL     1       1.302   2.905  19.683  0.00  0.00    +0.000 C 
ATOM     11  C   UNL     1       1.156   2.593  21.154  0.00  0.00    +0.000 C 
ATOM     12  C   UNL     1       2.205   3.488  21.802  0.00  0.00    +0.000 C 
ATOM     13  C   UNL     1       2.302   4.671  20.858  0.00  0.00    +0.000 C 
ATOM     14  N   UNL     1       2.037   4.078  19.572  0.00  0.00    +0.000 N 
ENDBRANCH   8  14
ENDBRANCH   7   8
ENDBRANCH   1   7
BRANCH   5  15
ATOM     15  C   UNL     1       7.630   5.588  18.757  0.00  0.00    +0.000 C 
BRANCH  15  16
ATOM     16  O   UNL     1       6.697   5.493  19.826  0.00  0.00    +0.000 OA
ATOM     17  H   UNL     1       6.924   4.684  20.329  0.00  0.00    +0.000 HD
ENDBRANCH  15  16
ENDBRANCH   5  15
BRANCH   5  18
ATOM     18  C   UNL     1       7.826   7.467  17.055  0.00  0.00    +0.000 C 
BRANCH  18  19
ATOM     19  C   UNL     1       7.654   8.659  17.970  0.00  0.00    +0.000 C 
ATOM     20  C   UNL     1       8.849   9.156  18.757  0.00  0.00    +0.000 C 
ATOM     21  C   UNL     1       8.273   9.998  17.655  0.00  0.00    +0.000 C 
ENDBRANCH  18  19
ENDBRANCH   5  18
TORSDOF 7
ENDMDL
MODEL 9
REMARK VINA RESULT:      -6.5      3.266      6.749
REMARK  Name = 
REMARK  7 active torsions:
REMARK  status: ('A' for Active; 'I' for Inactive)
REMARK    1  A    between atoms: N_6  and  C_7
REMARK    2  A    between atoms: C_7  and  C_8
REMARK    3  A    between atoms: C_8  and  N_9
REMARK    4  A    between atoms: C_13  and  C_14
REMARK    5  A    between atoms: C_13  and  C_16
REMARK    6  A    between atoms: C_14  and  O_15
REMARK    7  A    between atoms: C_16  and  C_17
REMARK                            x       y       z     vdW  Elec       q    Type
REMARK                         _______ _______ _______ _____ _____    ______ ____
ROOT
ATOM      1  N   UNL     1       2.116   4.965  20.205  0.00  0.00    +0.000 NA
ATOM      2  C   UNL     1       1.010   3.992  20.274  0.00  0.00    +0.000 C 
ATOM      3  C   UNL     1       1.504   2.574  19.973  0.00  0.00    +0.000 C 
ATOM      4  C   UNL     1       2.290   2.482  18.663  0.00  0.00    +0.000 C 
ATOM      5  C   UNL     1       3.349   3.599  18.475  0.00  0.00    +0.000 C 
ATOM      6  C   UNL     1       2.677   4.962  18.833  0.00  0.00    +0.000 C 
ENDROOT
BRANCH   1   7
ATOM      7  C   UNL     1       1.682   6.333  20.578  0.00  0.00    +0.000 C 
BRANCH   7   8
ATOM      8  C   UNL     1       2.284   7.450  19.696  0.00  0.00    +0.000 C 
BRANCH   8  14
ATOM      9  O   UNL     1       2.078   9.275  17.409  0.00  0.00    +0.000 OA
ATOM     10  C   UNL     1       1.420   9.431  18.418  0.00  0.00    +0.000 C 
ATOM     11  C   UNL     1       0.523  10.609  18.715  0.00  0.00    +0.000 C 
ATOM     12  C   UNL     1      -0.268  10.143  19.932  0.00  0.00    +0.000 C 
ATOM     13  C   UNL     1       0.677   9.184  20.629  0.00  0.00    +0.000 C 
ATOM     14  N   UNL     1       1.411   8.603  19.534  0.00  0.00    +0.000 N 
ENDBRANCH   8  14
ENDBRANCH   7   8
ENDBRANCH   1   7
BRANCH   5  15
ATOM     15  C   UNL     1       4.593   3.377  19.382  0.00  0.00    +0.000 C 
BRANCH  15  16
ATOM     16  O   UNL     1       4.948   2.012  19.558  0.00  0.00    +0.000 OA
ATOM     17  H   UNL     1       4.421   1.677  20.312  0.00  0.00    +0.000 HD
ENDBRANCH  15  16
ENDBRANCH   5  15
BRANCH   5  18
ATOM     18  C   UNL     1       3.812   3.687  16.982  0.00  0.00    +0.000 C 
BRANCH  18  19
ATOM     19  C   UNL     1       5.161   4.323  16.734  0.00  0.00    +0.000 C 
ATOM     20  C   UNL     1       5.989   3.848  15.557  0.00  0.00    +0.000 C 
ATOM     21  C   UNL     1       5.406   5.232  15.554  0.00  0.00    +0.000 C 
ENDBRANCH  18  19
ENDBRANCH   5  18
TORSDOF 7
ENDMDL
