MODEL 1
REMARK VINA RESULT:      -8.5      0.000      0.000
REMARK  Name = 
REMARK  4 active torsions:
REMARK  status: ('A' for Active; 'I' for Inactive)
REMARK    1  A    between atoms: C_2  and  C_3
REMARK    2  A    between atoms: C_3  and  S_4
REMARK    3  A    between atoms: S_4  and  C_5
REMARK    4  A    between atoms: C_25  and  C_26
REMARK                            x       y       z     vdW  Elec       q    Type
REMARK                         _______ _______ _______ _____ _____    ______ ____
ROOT
ATOM      1  O   UNL     1       4.826   8.062  17.736  0.00  0.00    +0.000 OA
ATOM      2  C   UNL     1       4.381   6.984  18.146  0.00  0.00    +0.000 C 
ATOM      3  N   UNL     1       3.045   6.866  18.579  0.00  0.00    +0.000 N 
ATOM      4  C   UNL     1       2.283   8.084  18.691  0.00  0.00    +0.000 A 
ATOM      5  C   UNL     1       2.293   9.006  17.634  0.00  0.00    +0.000 A 
ATOM      6  C   UNL     1       1.561  10.186  17.689  0.00  0.00    +0.000 A 
ATOM      7  C   UNL     1       0.812  10.481  18.827  0.00  0.00    +0.000 A 
ATOM      8  C   UNL     1       0.812   9.592  19.902  0.00  0.00    +0.000 A 
ATOM      9  C   UNL     1       1.533   8.395  19.838  0.00  0.00    +0.000 A 
ATOM     10  S   UNL     1       1.529   7.328  21.249  0.00  0.00    +0.000 S 
ATOM     11  C   UNL     1       1.740   5.787  20.390  0.00  0.00    +0.000 A 
ATOM     12  C   UNL     1       1.140   4.659  20.955  0.00  0.00    +0.000 A 
ATOM     13  C   UNL     1       1.230   3.424  20.324  0.00  0.00    +0.000 A 
ATOM     14  C   UNL     1       1.933   3.297  19.125  0.00  0.00    +0.000 A 
ATOM     15  C   UNL     1       2.559   4.432  18.569  0.00  0.00    +0.000 A 
ATOM     16  C   UNL     1       2.478   5.694  19.194  0.00  0.00    +0.000 A 
ENDROOT
BRANCH  14  17
ATOM     17  C   UNL     1       1.966   1.962  18.419  0.00  0.00    +0.000 C 
ATOM     18  F   UNL     1       2.885   1.108  18.945  0.00  0.00    +0.000 F 
ATOM     19  F   UNL     1       0.772   1.312  18.484  0.00  0.00    +0.000 F 
ATOM     20  F   UNL     1       2.268   2.069  17.097  0.00  0.00    +0.000 F 
ENDBRANCH  14  17
BRANCH   2  21
ATOM     21  C   UNL     1       5.318   5.784  18.295  0.00  0.00    +0.000 C 
BRANCH  21  22
ATOM     22  S   UNL     1       6.926   6.156  17.479  0.00  0.00    +0.000 S 
BRANCH  22  23
ATOM     23  C   UNL     1       6.808   5.313  15.952  0.00  0.00    +0.000 A 
ATOM     24  N   UNL     1       7.595   5.602  14.964  0.00  0.00    +0.000 NA
ATOM     25  C   UNL     1       7.203   4.901  13.830  0.00  0.00    +0.000 A 
ATOM     26  C   UNL     1       7.790   5.008  12.554  0.00  0.00    +0.000 A 
ATOM     27  C   UNL     1       7.294   4.254  11.489  0.00  0.00    +0.000 A 
ATOM     28  C   UNL     1       6.215   3.396  11.682  0.00  0.00    +0.000 A 
ATOM     29  C   UNL     1       5.609   3.272  12.938  0.00  0.00    +0.000 A 
ATOM     30  C   UNL     1       6.121   4.038  14.006  0.00  0.00    +0.000 A 
ATOM     31  S   UNL     1       5.606   4.124  15.650  0.00  0.00    +0.000 S 
ENDBRANCH  22  23
ENDBRANCH  21  22
ENDBRANCH   2  21
TORSDOF 4
ENDMDL
MODEL 2
REMARK VINA RESULT:      -7.9      2.390      7.887
REMARK  Name = 
REMARK  4 active torsions:
REMARK  status: ('A' for Active; 'I' for Inactive)
REMARK    1  A    between atoms: C_2  and  C_3
REMARK    2  A    between atoms: C_3  and  S_4
REMARK    3  A    between atoms: S_4  and  C_5
REMARK    4  A    between atoms: C_25  and  C_26
REMARK                            x       y       z     vdW  Elec       q    Type
REMARK                         _______ _______ _______ _____ _____    ______ ____
ROOT
ATOM      1  O   UNL     1       4.471   7.752  17.424  0.00  0.00    +0.000 OA
ATOM      2  C   UNL     1       3.823   6.853  17.972  0.00  0.00    +0.000 C 
ATOM      3  N   UNL     1       4.161   5.497  17.789  0.00  0.00    +0.000 N 
ATOM      4  C   UNL     1       5.172   5.201  16.805  0.00  0.00    +0.000 A 
ATOM      5  C   UNL     1       6.372   5.928  16.805  0.00  0.00    +0.000 A 
ATOM      6  C   UNL     1       7.382   5.668  15.887  0.00  0.00    +0.000 A 
ATOM      7  C   UNL     1       7.200   4.676  14.925  0.00  0.00    +0.000 A 
ATOM      8  C   UNL     1       6.004   3.962  14.888  0.00  0.00    +0.000 A 
ATOM      9  C   UNL     1       4.995   4.210  15.825  0.00  0.00    +0.000 A 
ATOM     10  S   UNL     1       3.482   3.301  15.701  0.00  0.00    +0.000 S 
ATOM     11  C   UNL     1       3.051   3.311  17.425  0.00  0.00    +0.000 A 
ATOM     12  C   UNL     1       2.354   2.201  17.910  0.00  0.00    +0.000 A 
ATOM     13  C   UNL     1       2.012   2.118  19.254  0.00  0.00    +0.000 A 
ATOM     14  C   UNL     1       2.351   3.150  20.131  0.00  0.00    +0.000 A 
ATOM     15  C   UNL     1       3.033   4.280  19.634  0.00  0.00    +0.000 A 
ATOM     16  C   UNL     1       3.390   4.382  18.274  0.00  0.00    +0.000 A 
ENDROOT
BRANCH  14  17
ATOM     17  C   UNL     1       2.030   3.014  21.601  0.00  0.00    +0.000 C 
ATOM     18  F   UNL     1       2.744   2.027  22.208  0.00  0.00    +0.000 F 
ATOM     19  F   UNL     1       2.300   4.151  22.298  0.00  0.00    +0.000 F 
ATOM     20  F   UNL     1       0.721   2.727  21.833  0.00  0.00    +0.000 F 
ENDBRANCH  14  17
BRANCH   2  21
ATOM     21  C   UNL     1       2.565   7.203  18.768  0.00  0.00    +0.000 C 
BRANCH  21  22
ATOM     22  S   UNL     1       1.869   8.791  18.149  0.00  0.00    +0.000 S 
BRANCH  22  23
ATOM     23  C   UNL     1       0.892   9.352  19.485  0.00  0.00    +0.000 A 
ATOM     24  N   UNL     1       0.092  10.362  19.354  0.00  0.00    +0.000 NA
ATOM     25  C   UNL     1      -0.452  10.696  20.588  0.00  0.00    +0.000 A 
ATOM     26  C   UNL     1      -1.318  11.778  20.839  0.00  0.00    +0.000 A 
ATOM     27  C   UNL     1      -1.788  12.013  22.132  0.00  0.00    +0.000 A 
ATOM     28  C   UNL     1      -1.400  11.183  23.180  0.00  0.00    +0.000 A 
ATOM     29  C   UNL     1      -0.537  10.103  22.961  0.00  0.00    +0.000 A 
ATOM     30  C   UNL     1      -0.071   9.874  21.649  0.00  0.00    +0.000 A 
ATOM     31  S   UNL     1       0.993   8.656  21.053  0.00  0.00    +0.000 S 
ENDBRANCH  22  23
ENDBRANCH  21  22
ENDBRANCH   2  21
TORSDOF 4
ENDMDL
MODEL 3
REMARK VINA RESULT:      -7.9      2.399      7.825
REMARK  Name = 
REMARK  4 active torsions:
REMARK  status: ('A' for Active; 'I' for Inactive)
REMARK    1  A    between atoms: C_2  and  C_3
REMARK    2  A    between atoms: C_3  and  S_4
REMARK    3  A    between atoms: S_4  and  C_5
REMARK    4  A    between atoms: C_25  and  C_26
REMARK                            x       y       z     vdW  Elec       q    Type
REMARK                         _______ _______ _______ _____ _____    ______ ____
ROOT
ATOM      1  O   UNL     1       4.458   7.755  17.251  0.00  0.00    +0.000 OA
ATOM      2  C   UNL     1       3.820   6.861  17.819  0.00  0.00    +0.000 C 
ATOM      3  N   UNL     1       4.179   5.507  17.674  0.00  0.00    +0.000 N 
ATOM      4  C   UNL     1       5.199   5.200  16.703  0.00  0.00    +0.000 A 
ATOM      5  C   UNL     1       6.388   5.944  16.691  0.00  0.00    +0.000 A 
ATOM      6  C   UNL     1       7.407   5.675  15.785  0.00  0.00    +0.000 A 
ATOM      7  C   UNL     1       7.245   4.655  14.848  0.00  0.00    +0.000 A 
ATOM      8  C   UNL     1       6.060   3.923  14.824  0.00  0.00    +0.000 A 
ATOM      9  C   UNL     1       5.042   4.180  15.749  0.00  0.00    +0.000 A 
ATOM     10  S   UNL     1       3.544   3.246  15.642  0.00  0.00    +0.000 S 
ATOM     11  C   UNL     1       3.103   3.295  17.362  0.00  0.00    +0.000 A 
ATOM     12  C   UNL     1       2.419   2.189  17.873  0.00  0.00    +0.000 A 
ATOM     13  C   UNL     1       2.072   2.135  19.217  0.00  0.00    +0.000 A 
ATOM     14  C   UNL     1       2.390   3.195  20.068  0.00  0.00    +0.000 A 
ATOM     15  C   UNL     1       3.059   4.322  19.545  0.00  0.00    +0.000 A 
ATOM     16  C   UNL     1       3.421   4.393  18.184  0.00  0.00    +0.000 A 
ENDROOT
BRANCH  14  17
ATOM     17  C   UNL     1       2.064   3.093  21.539  0.00  0.00    +0.000 C 
ATOM     18  F   UNL     1       2.305   4.250  22.215  0.00  0.00    +0.000 F 
ATOM     19  F   UNL     1       0.754   2.798  21.760  0.00  0.00    +0.000 F 
ATOM     20  F   UNL     1       2.783   2.131  22.176  0.00  0.00    +0.000 F 
ENDBRANCH  14  17
BRANCH   2  21
ATOM     21  C   UNL     1       2.552   7.214  18.600  0.00  0.00    +0.000 C 
BRANCH  21  22
ATOM     22  S   UNL     1       1.771   8.706  17.859  0.00  0.00    +0.000 S 
BRANCH  22  23
ATOM     23  C   UNL     1       1.040   9.504  19.232  0.00  0.00    +0.000 A 
ATOM     24  N   UNL     1       1.015   8.941  20.399  0.00  0.00    +0.000 NA
ATOM     25  C   UNL     1       0.256   9.708  21.275  0.00  0.00    +0.000 A 
ATOM     26  C   UNL     1      -0.040   9.377  22.612  0.00  0.00    +0.000 A 
ATOM     27  C   UNL     1      -0.827  10.231  23.386  0.00  0.00    +0.000 A 
ATOM     28  C   UNL     1      -1.326  11.411  22.841  0.00  0.00    +0.000 A 
ATOM     29  C   UNL     1      -1.052  11.763  21.514  0.00  0.00    +0.000 A 
ATOM     30  C   UNL     1      -0.253  10.893  20.742  0.00  0.00    +0.000 A 
ATOM     31  S   UNL     1       0.254  11.025  19.100  0.00  0.00    +0.000 S 
ENDBRANCH  22  23
ENDBRANCH  21  22
ENDBRANCH   2  21
TORSDOF 4
ENDMDL
MODEL 4
REMARK VINA RESULT:      -7.6      4.762      7.067
REMARK  Name = 
REMARK  4 active torsions:
REMARK  status: ('A' for Active; 'I' for Inactive)
REMARK    1  A    between atoms: C_2  and  C_3
REMARK    2  A    between atoms: C_3  and  S_4
REMARK    3  A    between atoms: S_4  and  C_5
REMARK    4  A    between atoms: C_25  and  C_26
REMARK                            x       y       z     vdW  Elec       q    Type
REMARK                         _______ _______ _______ _____ _____    ______ ____
ROOT
ATOM      1  O   UNL     1       2.719  11.083  18.136  0.00  0.00    +0.000 OA
ATOM      2  C   UNL     1       1.496  10.995  18.295  0.00  0.00    +0.000 C 
ATOM      3  N   UNL     1       0.721  12.126  18.619  0.00  0.00    +0.000 N 
ATOM      4  C   UNL     1       1.432  13.341  18.929  0.00  0.00    +0.000 A 
ATOM      5  C   UNL     1       2.460  13.776  18.080  0.00  0.00    +0.000 A 
ATOM      6  C   UNL     1       3.163  14.949  18.328  0.00  0.00    +0.000 A 
ATOM      7  C   UNL     1       2.861  15.708  19.458  0.00  0.00    +0.000 A 
ATOM      8  C   UNL     1       1.862  15.279  20.330  0.00  0.00    +0.000 A 
ATOM      9  C   UNL     1       1.141  14.108  20.069  0.00  0.00    +0.000 A 
ATOM     10  S   UNL     1      -0.085  13.591  21.236  0.00  0.00    +0.000 S 
ATOM     11  C   UNL     1      -1.166  12.757  20.099  0.00  0.00    +0.000 A 
ATOM     12  C   UNL     1      -2.532  12.779  20.391  0.00  0.00    +0.000 A 
ATOM     13  C   UNL     1      -3.445  12.181  19.531  0.00  0.00    +0.000 A 
ATOM     14  C   UNL     1      -3.003  11.537  18.373  0.00  0.00    +0.000 A 
ATOM     15  C   UNL     1      -1.621  11.495  18.093  0.00  0.00    +0.000 A 
ATOM     16  C   UNL     1      -0.680  12.098  18.953  0.00  0.00    +0.000 A 
ENDROOT
BRANCH  14  17
ATOM     17  C   UNL     1      -4.013  10.949  17.417  0.00  0.00    +0.000 C 
ATOM     18  F   UNL     1      -3.533   9.869  16.741  0.00  0.00    +0.000 F 
ATOM     19  F   UNL     1      -5.139  10.522  18.050  0.00  0.00    +0.000 F 
ATOM     20  F   UNL     1      -4.422  11.833  16.468  0.00  0.00    +0.000 F 
ENDBRANCH  14  17
BRANCH   2  21
ATOM     21  C   UNL     1       0.824   9.621  18.254  0.00  0.00    +0.000 C 
BRANCH  21  22
ATOM     22  S   UNL     1       1.451   8.591  19.645  0.00  0.00    +0.000 S 
BRANCH  22  23
ATOM     23  C   UNL     1       2.505   7.443  18.853  0.00  0.00    +0.000 A 
ATOM     24  N   UNL     1       3.314   7.814  17.911  0.00  0.00    +0.000 NA
ATOM     25  C   UNL     1       3.927   6.700  17.351  0.00  0.00    +0.000 A 
ATOM     26  C   UNL     1       4.822   6.714  16.264  0.00  0.00    +0.000 A 
ATOM     27  C   UNL     1       5.363   5.519  15.786  0.00  0.00    +0.000 A 
ATOM     28  C   UNL     1       5.018   4.308  16.380  0.00  0.00    +0.000 A 
ATOM     29  C   UNL     1       4.128   4.263  17.459  0.00  0.00    +0.000 A 
ATOM     30  C   UNL     1       3.590   5.478  17.934  0.00  0.00    +0.000 A 
ATOM     31  S   UNL     1       2.476   5.765  19.219  0.00  0.00    +0.000 S 
ENDBRANCH  22  23
ENDBRANCH  21  22
ENDBRANCH   2  21
TORSDOF 4
ENDMDL
MODEL 5
REMARK VINA RESULT:      -7.6      5.011      7.773
REMARK  Name = 
REMARK  4 active torsions:
REMARK  status: ('A' for Active; 'I' for Inactive)
REMARK    1  A    between atoms: C_2  and  C_3
REMARK    2  A    between atoms: C_3  and  S_4
REMARK    3  A    between atoms: S_4  and  C_5
REMARK    4  A    between atoms: C_25  and  C_26
REMARK                            x       y       z     vdW  Elec       q    Type
REMARK                         _______ _______ _______ _____ _____    ______ ____
ROOT
ATOM      1  O   UNL     1       1.382  11.135  21.390  0.00  0.00    +0.000 OA
ATOM      2  C   UNL     1       0.355  10.980  20.720  0.00  0.00    +0.000 C 
ATOM      3  N   UNL     1      -0.534  12.049  20.492  0.00  0.00    +0.000 N 
ATOM      4  C   UNL     1      -0.287  13.271  21.215  0.00  0.00    +0.000 A 
ATOM      5  C   UNL     1       1.008  13.810  21.240  0.00  0.00    +0.000 A 
ATOM      6  C   UNL     1       1.292  14.995  21.910  0.00  0.00    +0.000 A 
ATOM      7  C   UNL     1       0.276  15.660  22.594  0.00  0.00    +0.000 A 
ATOM      8  C   UNL     1      -1.011  15.127  22.606  0.00  0.00    +0.000 A 
ATOM      9  C   UNL     1      -1.301  13.945  21.915  0.00  0.00    +0.000 A 
ATOM     10  S   UNL     1      -2.944  13.294  22.003  0.00  0.00    +0.000 S 
ATOM     11  C   UNL     1      -2.972  12.490  20.419  0.00  0.00    +0.000 A 
ATOM     12  C   UNL     1      -4.203  12.430  19.761  0.00  0.00    +0.000 A 
ATOM     13  C   UNL     1      -4.300  11.849  18.502  0.00  0.00    +0.000 A 
ATOM     14  C   UNL     1      -3.169  11.308  17.889  0.00  0.00    +0.000 A 
ATOM     15  C   UNL     1      -1.932  11.348  18.566  0.00  0.00    +0.000 A 
ATOM     16  C   UNL     1      -1.814  11.934  19.843  0.00  0.00    +0.000 A 
ENDROOT
BRANCH  14  17
ATOM     17  C   UNL     1      -3.278  10.740  16.494  0.00  0.00    +0.000 C 
ATOM     18  F   UNL     1      -4.513  10.914  15.948  0.00  0.00    +0.000 F 
ATOM     19  F   UNL     1      -2.403  11.319  15.628  0.00  0.00    +0.000 F 
ATOM     20  F   UNL     1      -3.033   9.403  16.445  0.00  0.00    +0.000 F 
ENDBRANCH  14  17
BRANCH   2  21
ATOM     21  C   UNL     1      -0.023   9.582  20.224  0.00  0.00    +0.000 C 
BRANCH  21  22
ATOM     22  S   UNL     1       0.588   8.322  21.419  0.00  0.00    +0.000 S 
BRANCH  22  23
ATOM     23  C   UNL     1       1.641   7.321  20.446  0.00  0.00    +0.000 A 
ATOM     24  N   UNL     1       2.321   7.821  19.463  0.00  0.00    +0.000 NA
ATOM     25  C   UNL     1       2.956   6.801  18.764  0.00  0.00    +0.000 A 
ATOM     26  C   UNL     1       3.735   6.963  17.601  0.00  0.00    +0.000 A 
ATOM     27  C   UNL     1       4.313   5.851  16.985  0.00  0.00    +0.000 A 
ATOM     28  C   UNL     1       4.120   4.578  17.515  0.00  0.00    +0.000 A 
ATOM     29  C   UNL     1       3.347   4.387  18.666  0.00  0.00    +0.000 A 
ATOM     30  C   UNL     1       2.771   5.518  19.281  0.00  0.00    +0.000 A 
ATOM     31  S   UNL     1       1.773   5.625  20.683  0.00  0.00    +0.000 S 
ENDBRANCH  22  23
ENDBRANCH  21  22
ENDBRANCH   2  21
TORSDOF 4
ENDMDL
MODEL 6
REMARK VINA RESULT:      -7.5      4.943      7.878
REMARK  Name = 
REMARK  4 active torsions:
REMARK  status: ('A' for Active; 'I' for Inactive)
REMARK    1  A    between atoms: C_2  and  C_3
REMARK    2  A    between atoms: C_3  and  S_4
REMARK    3  A    between atoms: S_4  and  C_5
REMARK    4  A    between atoms: C_25  and  C_26
REMARK                            x       y       z     vdW  Elec       q    Type
REMARK                         _______ _______ _______ _____ _____    ______ ____
ROOT
ATOM      1  O   UNL     1       1.419  11.884  19.943  0.00  0.00    +0.000 OA
ATOM      2  C   UNL     1       0.411  11.472  19.355  0.00  0.00    +0.000 C 
ATOM      3  N   UNL     1      -0.701  12.309  19.144  0.00  0.00    +0.000 N 
ATOM      4  C   UNL     1      -0.684  13.597  19.792  0.00  0.00    +0.000 A 
ATOM      5  C   UNL     1       0.460  14.402  19.700  0.00  0.00    +0.000 A 
ATOM      6  C   UNL     1       0.518  15.658  20.293  0.00  0.00    +0.000 A 
ATOM      7  C   UNL     1      -0.575  16.129  21.017  0.00  0.00    +0.000 A 
ATOM      8  C   UNL     1      -1.712  15.333  21.146  0.00  0.00    +0.000 A 
ATOM      9  C   UNL     1      -1.778  14.077  20.532  0.00  0.00    +0.000 A 
ATOM     10  S   UNL     1      -3.231  13.095  20.766  0.00  0.00    +0.000 S 
ATOM     11  C   UNL     1      -3.177  12.210  19.226  0.00  0.00    +0.000 A 
ATOM     12  C   UNL     1      -4.403  11.848  18.661  0.00  0.00    +0.000 A 
ATOM     13  C   UNL     1      -4.446  11.187  17.440  0.00  0.00    +0.000 A 
ATOM     14  C   UNL     1      -3.262  10.865  16.772  0.00  0.00    +0.000 A 
ATOM     15  C   UNL     1      -2.026  11.210  17.356  0.00  0.00    +0.000 A 
ATOM     16  C   UNL     1      -1.962  11.883  18.594  0.00  0.00    +0.000 A 
ENDROOT
BRANCH  14  17
ATOM     17  C   UNL     1      -3.329  10.205  15.415  0.00  0.00    +0.000 C 
ATOM     18  F   UNL     1      -2.666  10.905  14.454  0.00  0.00    +0.000 F 
ATOM     19  F   UNL     1      -2.778   8.961  15.416  0.00  0.00    +0.000 F 
ATOM     20  F   UNL     1      -4.601  10.056  14.959  0.00  0.00    +0.000 F 
ENDBRANCH  14  17
BRANCH   2  21
ATOM     21  C   UNL     1       0.319   9.999  18.952  0.00  0.00    +0.000 C 
BRANCH  21  22
ATOM     22  S   UNL     1       1.883   9.490  18.125  0.00  0.00    +0.000 S 
BRANCH  22  23
ATOM     23  C   UNL     1       2.166   7.882  18.750  0.00  0.00    +0.000 A 
ATOM     24  N   UNL     1       2.557   6.921  17.975  0.00  0.00    +0.000 NA
ATOM     25  C   UNL     1       2.565   5.723  18.679  0.00  0.00    +0.000 A 
ATOM     26  C   UNL     1       2.879   4.458  18.144  0.00  0.00    +0.000 A 
ATOM     27  C   UNL     1       2.839   3.324  18.958  0.00  0.00    +0.000 A 
ATOM     28  C   UNL     1       2.486   3.438  20.300  0.00  0.00    +0.000 A 
ATOM     29  C   UNL     1       2.164   4.681  20.857  0.00  0.00    +0.000 A 
ATOM     30  C   UNL     1       2.211   5.820  20.025  0.00  0.00    +0.000 A 
ATOM     31  S   UNL     1       1.869   7.470  20.391  0.00  0.00    +0.000 S 
ENDBRANCH  22  23
ENDBRANCH  21  22
ENDBRANCH   2  21
TORSDOF 4
ENDMDL
MODEL 7
REMARK VINA RESULT:      -7.5      4.979      7.755
REMARK  Name = 
REMARK  4 active torsions:
REMARK  status: ('A' for Active; 'I' for Inactive)
REMARK    1  A    between atoms: C_2  and  C_3
REMARK    2  A    between atoms: C_3  and  S_4
REMARK    3  A    between atoms: S_4  and  C_5
REMARK    4  A    between atoms: C_25  and  C_26
REMARK                            x       y       z     vdW  Elec       q    Type
REMARK                         _______ _______ _______ _____ _____    ______ ____
ROOT
ATOM      1  O   UNL     1       1.598  11.410  21.159  0.00  0.00    +0.000 OA
ATOM      2  C   UNL     1       0.569  11.183  20.512  0.00  0.00    +0.000 C 
ATOM      3  N   UNL     1      -0.387  12.193  20.286  0.00  0.00    +0.000 N 
ATOM      4  C   UNL     1      -0.201  13.439  20.986  0.00  0.00    +0.000 A 
ATOM      5  C   UNL     1       1.058  14.056  20.977  0.00  0.00    +0.000 A 
ATOM      6  C   UNL     1       1.283  15.266  21.624  0.00  0.00    +0.000 A 
ATOM      7  C   UNL     1       0.241  15.879  22.318  0.00  0.00    +0.000 A 
ATOM      8  C   UNL     1      -1.011  15.269  22.364  0.00  0.00    +0.000 A 
ATOM      9  C   UNL     1      -1.242  14.061  21.697  0.00  0.00    +0.000 A 
ATOM     10  S   UNL     1      -2.840  13.313  21.827  0.00  0.00    +0.000 S 
ATOM     11  C   UNL     1      -2.849  12.484  20.256  0.00  0.00    +0.000 A 
ATOM     12  C   UNL     1      -4.087  12.339  19.623  0.00  0.00    +0.000 A 
ATOM     13  C   UNL     1      -4.172  11.734  18.376  0.00  0.00    +0.000 A 
ATOM     14  C   UNL     1      -3.022  11.252  17.747  0.00  0.00    +0.000 A 
ATOM     15  C   UNL     1      -1.777  11.378  18.399  0.00  0.00    +0.000 A 
ATOM     16  C   UNL     1      -1.670  11.990  19.665  0.00  0.00    +0.000 A 
ENDROOT
BRANCH  14  17
ATOM     17  C   UNL     1      -3.123  10.656  16.363  0.00  0.00    +0.000 C 
ATOM     18  F   UNL     1      -2.452  11.380  15.426  0.00  0.00    +0.000 F 
ATOM     19  F   UNL     1      -2.609   9.398  16.301  0.00  0.00    +0.000 F 
ATOM     20  F   UNL     1      -4.405  10.565  15.918  0.00  0.00    +0.000 F 
ENDBRANCH  14  17
BRANCH   2  21
ATOM     21  C   UNL     1       0.267   9.758  20.045  0.00  0.00    +0.000 C 
BRANCH  21  22
ATOM     22  S   UNL     1       1.048   8.555  21.200  0.00  0.00    +0.000 S 
BRANCH  22  23
ATOM     23  C   UNL     1       1.808   7.402  20.128  0.00  0.00    +0.000 A 
ATOM     24  N   UNL     1       1.979   6.168  20.484  0.00  0.00    +0.000 NA
ATOM     25  C   UNL     1       2.731   5.502  19.523  0.00  0.00    +0.000 A 
ATOM     26  C   UNL     1       3.162   4.163  19.601  0.00  0.00    +0.000 A 
ATOM     27  C   UNL     1       3.925   3.612  18.570  0.00  0.00    +0.000 A 
ATOM     28  C   UNL     1       4.267   4.384  17.463  0.00  0.00    +0.000 A 
ATOM     29  C   UNL     1       3.857   5.718  17.361  0.00  0.00    +0.000 A 
ATOM     30  C   UNL     1       3.084   6.262  18.408  0.00  0.00    +0.000 A 
ATOM     31  S   UNL     1       2.436   7.850  18.593  0.00  0.00    +0.000 S 
ENDBRANCH  22  23
ENDBRANCH  21  22
ENDBRANCH   2  21
TORSDOF 4
ENDMDL
MODEL 8
REMARK VINA RESULT:      -7.5      7.709     12.438
REMARK  Name = 
REMARK  4 active torsions:
REMARK  status: ('A' for Active; 'I' for Inactive)
REMARK    1  A    between atoms: C_2  and  C_3
REMARK    2  A    between atoms: C_3  and  S_4
REMARK    3  A    between atoms: S_4  and  C_5
REMARK    4  A    between atoms: C_25  and  C_26
REMARK                            x       y       z     vdW  Elec       q    Type
REMARK                         _______ _______ _______ _____ _____    ______ ____
ROOT
ATOM      1  O   UNL     1      -0.145  12.985  22.071  0.00  0.00    +0.000 OA
ATOM      2  C   UNL     1      -0.900  12.873  21.098  0.00  0.00    +0.000 C 
ATOM      3  N   UNL     1      -1.090  11.629  20.464  0.00  0.00    +0.000 N 
ATOM      4  C   UNL     1      -0.240  10.543  20.884  0.00  0.00    +0.000 A 
ATOM      5  C   UNL     1      -0.071  10.286  22.252  0.00  0.00    +0.000 A 
ATOM      6  C   UNL     1       0.726   9.241  22.704  0.00  0.00    +0.000 A 
ATOM      7  C   UNL     1       1.394   8.435  21.784  0.00  0.00    +0.000 A 
ATOM      8  C   UNL     1       1.262   8.691  20.420  0.00  0.00    +0.000 A 
ATOM      9  C   UNL     1       0.445   9.731  19.964  0.00  0.00    +0.000 A 
ATOM     10  S   UNL     1       0.351  10.034  18.223  0.00  0.00    +0.000 S 
ATOM     11  C   UNL     1      -1.299  10.691  18.179  0.00  0.00    +0.000 A 
ATOM     12  C   UNL     1      -2.048  10.445  17.025  0.00  0.00    +0.000 A 
ATOM     13  C   UNL     1      -3.359  10.894  16.929  0.00  0.00    +0.000 A 
ATOM     14  C   UNL     1      -3.937  11.609  17.980  0.00  0.00    +0.000 A 
ATOM     15  C   UNL     1      -3.171  11.877  19.134  0.00  0.00    +0.000 A 
ATOM     16  C   UNL     1      -1.839  11.428  19.251  0.00  0.00    +0.000 A 
ENDROOT
BRANCH  14  17
ATOM     17  C   UNL     1      -5.383  12.033  17.886  0.00  0.00    +0.000 C 
ATOM     18  F   UNL     1      -5.771  12.822  18.925  0.00  0.00    +0.000 F 
ATOM     19  F   UNL     1      -5.642  12.748  16.758  0.00  0.00    +0.000 F 
ATOM     20  F   UNL     1      -6.244  10.980  17.874  0.00  0.00    +0.000 F 
ENDBRANCH  14  17
BRANCH   2  21
ATOM     21  C   UNL     1      -1.550  14.120  20.496  0.00  0.00    +0.000 C 
BRANCH  21  22
ATOM     22  S   UNL     1      -1.889  15.340  21.832  0.00  0.00    +0.000 S 
BRANCH  22  23
ATOM     23  C   UNL     1      -3.470  14.874  22.413  0.00  0.00    +0.000 A 
ATOM     24  N   UNL     1      -4.049  13.795  21.990  0.00  0.00    +0.000 NA
ATOM     25  C   UNL     1      -5.345  13.731  22.488  0.00  0.00    +0.000 A 
ATOM     26  C   UNL     1      -6.290  12.729  22.191  0.00  0.00    +0.000 A 
ATOM     27  C   UNL     1      -7.568  12.784  22.749  0.00  0.00    +0.000 A 
ATOM     28  C   UNL     1      -7.916  13.831  23.599  0.00  0.00    +0.000 A 
ATOM     29  C   UNL     1      -6.999  14.843  23.908  0.00  0.00    +0.000 A 
ATOM     30  C   UNL     1      -5.710  14.774  23.339  0.00  0.00    +0.000 A 
ATOM     31  S   UNL     1      -4.370  15.847  23.506  0.00  0.00    +0.000 S 
ENDBRANCH  22  23
ENDBRANCH  21  22
ENDBRANCH   2  21
TORSDOF 4
ENDMDL
MODEL 9
REMARK VINA RESULT:      -7.5      8.771     12.141
REMARK  Name = 
REMARK  4 active torsions:
REMARK  status: ('A' for Active; 'I' for Inactive)
REMARK    1  A    between atoms: C_2  and  C_3
REMARK    2  A    between atoms: C_3  and  S_4
REMARK    3  A    between atoms: S_4  and  C_5
REMARK    4  A    between atoms: C_25  and  C_26
REMARK                            x       y       z     vdW  Elec       q    Type
REMARK                         _______ _______ _______ _____ _____    ______ ____
ROOT
ATOM      1  O   UNL     1      -1.274   9.880  18.475  0.00  0.00    +0.000 OA
ATOM      2  C   UNL     1      -1.317  11.104  18.645  0.00  0.00    +0.000 C 
ATOM      3  N   UNL     1      -0.823  11.693  19.825  0.00  0.00    +0.000 N 
ATOM      4  C   UNL     1      -0.435  10.801  20.889  0.00  0.00    +0.000 A 
ATOM      5  C   UNL     1       0.387   9.701  20.604  0.00  0.00    +0.000 A 
ATOM      6  C   UNL     1       0.801   8.823  21.598  0.00  0.00    +0.000 A 
ATOM      7  C   UNL     1       0.378   9.020  22.912  0.00  0.00    +0.000 A 
ATOM      8  C   UNL     1      -0.462  10.091  23.212  0.00  0.00    +0.000 A 
ATOM      9  C   UNL     1      -0.863  10.986  22.215  0.00  0.00    +0.000 A 
ATOM     10  S   UNL     1      -1.965  12.300  22.649  0.00  0.00    +0.000 S 
ATOM     11  C   UNL     1      -1.427  13.480  21.434  0.00  0.00    +0.000 A 
ATOM     12  C   UNL     1      -1.495  14.830  21.789  0.00  0.00    +0.000 A 
ATOM     13  C   UNL     1      -1.059  15.812  20.907  0.00  0.00    +0.000 A 
ATOM     14  C   UNL     1      -0.561  15.458  19.652  0.00  0.00    +0.000 A 
ATOM     15  C   UNL     1      -0.515  14.096  19.287  0.00  0.00    +0.000 A 
ATOM     16  C   UNL     1      -0.952  13.086  20.169  0.00  0.00    +0.000 A 
ENDROOT
BRANCH  14  17
ATOM     17  C   UNL     1      -0.030  16.532  18.732  0.00  0.00    +0.000 C 
ATOM     18  F   UNL     1       1.202  16.239  18.233  0.00  0.00    +0.000 F 
ATOM     19  F   UNL     1      -0.832  16.730  17.650  0.00  0.00    +0.000 F 
ATOM     20  F   UNL     1       0.091  17.741  19.342  0.00  0.00    +0.000 F 
ENDBRANCH  14  17
BRANCH   2  21
ATOM     21  C   UNL     1      -2.019  11.988  17.612  0.00  0.00    +0.000 C 
BRANCH  21  22
ATOM     22  S   UNL     1      -3.571  11.167  17.056  0.00  0.00    +0.000 S 
BRANCH  22  23
ATOM     23  C   UNL     1      -4.701  11.531  18.340  0.00  0.00    +0.000 A 
ATOM     24  N   UNL     1      -4.382  12.330  19.308  0.00  0.00    +0.000 NA
ATOM     25  C   UNL     1      -5.389  12.335  20.265  0.00  0.00    +0.000 A 
ATOM     26  C   UNL     1      -5.362  13.041  21.484  0.00  0.00    +0.000 A 
ATOM     27  C   UNL     1      -6.438  12.954  22.369  0.00  0.00    +0.000 A 
ATOM     28  C   UNL     1      -7.541  12.165  22.053  0.00  0.00    +0.000 A 
ATOM     29  C   UNL     1      -7.594  11.448  20.852  0.00  0.00    +0.000 A 
ATOM     30  C   UNL     1      -6.501  11.547  19.965  0.00  0.00    +0.000 A 
ATOM     31  S   UNL     1      -6.252  10.797  18.433  0.00  0.00    +0.000 S 
ENDBRANCH  22  23
ENDBRANCH  21  22
ENDBRANCH   2  21
TORSDOF 4
ENDMDL
