MODEL 1
REMARK VINA RESULT:      -6.9      0.000      0.000
REMARK  Name = 
REMARK  8 active torsions:
REMARK  status: ('A' for Active; 'I' for Inactive)
REMARK    1  A    between atoms: C_1  and  C_2
REMARK    2  A    between atoms: C_5  and  N_6
REMARK    3  A    between atoms: C_7  and  C_9
REMARK    4  A    between atoms: C_9  and  N_10
REMARK    5  A    between atoms: N_10  and  C_11
REMARK    6  A    between atoms: C_12  and  C_14
REMARK    7  A    between atoms: C_14  and  S_15
REMARK    8  A    between atoms: S_15  and  C_16
REMARK                            x       y       z     vdW  Elec       q    Type
REMARK                         _______ _______ _______ _____ _____    ______ ____
ROOT
ATOM      1  N   UNL     1       2.541   3.004  17.950  0.00  0.00    +0.000 N 
ATOM      2  C   UNL     1       1.537   3.875  17.355  0.00  0.00    +0.000 C 
ATOM      3  C   UNL     1       2.652   2.779  19.325  0.00  0.00    +0.000 C 
ATOM      4  O   UNL     1       3.552   2.069  19.777  0.00  0.00    +0.000 OA
ENDROOT
BRANCH   1   5
ATOM      5  C   UNL     1       3.667   2.603  17.095  0.00  0.00    +0.000 C 
BRANCH   5   7
ATOM      6  N   UNL     1       4.993   4.507  17.935  0.00  0.00    +0.000 N 
ATOM      7  C   UNL     1       4.796   3.625  16.885  0.00  0.00    +0.000 C 
ATOM      8  O   UNL     1       5.387   3.647  15.807  0.00  0.00    +0.000 OA
ATOM      9  H   UNL     1       4.461   4.325  18.778  0.00  0.00    +0.000 HD
BRANCH   6  14
ATOM     10  C   UNL     1       8.621   8.964  18.069  0.00  0.00    +0.000 C 
ATOM     11  C   UNL     1       7.696   7.782  18.021  0.00  0.00    +0.000 A 
ATOM     12  C   UNL     1       7.987   6.623  18.737  0.00  0.00    +0.000 A 
ATOM     13  C   UNL     1       7.110   5.530  18.711  0.00  0.00    +0.000 A 
ATOM     14  C   UNL     1       5.927   5.571  17.969  0.00  0.00    +0.000 A 
ATOM     15  C   UNL     1       5.656   6.721  17.221  0.00  0.00    +0.000 A 
ATOM     16  C   UNL     1       6.525   7.822  17.255  0.00  0.00    +0.000 A 
ENDBRANCH   6  14
ENDBRANCH   5   7
ENDBRANCH   1   5
BRANCH   3  17
ATOM     17  C   UNL     1       1.573   3.380  20.231  0.00  0.00    +0.000 C 
BRANCH  17  18
ATOM     18  S   UNL     1       2.266   4.551  21.438  0.00  0.00    +0.000 S 
BRANCH  18  19
ATOM     19  C   UNL     1       2.103   6.040  20.549  0.00  0.00    +0.000 A 
ATOM     20  N   UNL     1       2.640   6.242  19.358  0.00  0.00    +0.000 NA
ATOM     21  C   UNL     1       2.248   7.519  19.038  0.00  0.00    +0.000 A 
ATOM     22  C   UNL     1       2.499   8.307  17.907  0.00  0.00    +0.000 A 
ATOM     23  C   UNL     1       1.963   9.604  17.870  0.00  0.00    +0.000 A 
ATOM     24  C   UNL     1       1.195  10.102  18.933  0.00  0.00    +0.000 A 
ATOM     25  C   UNL     1       0.930   9.322  20.066  0.00  0.00    +0.000 A 
ATOM     26  C   UNL     1       1.479   8.045  20.061  0.00  0.00    +0.000 A 
ATOM     27  O   UNL     1       1.369   7.094  21.030  0.00  0.00    +0.000 OA
ENDBRANCH  18  19
ENDBRANCH  17  18
ENDBRANCH   3  17
TORSDOF 6
ENDMDL
MODEL 2
REMARK VINA RESULT:      -6.9      2.396      6.638
REMARK  Name = 
REMARK  8 active torsions:
REMARK  status: ('A' for Active; 'I' for Inactive)
REMARK    1  A    between atoms: C_1  and  C_2
REMARK    2  A    between atoms: C_5  and  N_6
REMARK    3  A    between atoms: C_7  and  C_9
REMARK    4  A    between atoms: C_9  and  N_10
REMARK    5  A    between atoms: N_10  and  C_11
REMARK    6  A    between atoms: C_12  and  C_14
REMARK    7  A    between atoms: C_14  and  S_15
REMARK    8  A    between atoms: S_15  and  C_16
REMARK                            x       y       z     vdW  Elec       q    Type
REMARK                         _______ _______ _______ _____ _____    ______ ____
ROOT
ATOM      1  N   UNL     1       2.175   5.397  19.880  0.00  0.00    +0.000 N 
ATOM      2  C   UNL     1       2.211   4.788  21.203  0.00  0.00    +0.000 C 
ATOM      3  C   UNL     1       1.869   4.691  18.713  0.00  0.00    +0.000 C 
ATOM      4  O   UNL     1       1.900   5.248  17.613  0.00  0.00    +0.000 OA
ENDROOT
BRANCH   1   5
ATOM      5  C   UNL     1       2.790   6.725  19.741  0.00  0.00    +0.000 C 
BRANCH   5   7
ATOM      6  N   UNL     1       1.595   8.317  21.198  0.00  0.00    +0.000 N 
ATOM      7  C   UNL     1       1.873   7.949  19.892  0.00  0.00    +0.000 C 
ATOM      8  O   UNL     1       1.397   8.466  18.883  0.00  0.00    +0.000 OA
ATOM      9  H   UNL     1       2.108   7.825  21.921  0.00  0.00    +0.000 HD
BRANCH   6  14
ATOM     10  C   UNL     1      -1.830  12.542  23.060  0.00  0.00    +0.000 C 
ATOM     11  C   UNL     1      -0.952  11.437  22.547  0.00  0.00    +0.000 A 
ATOM     12  C   UNL     1      -0.206  11.605  21.383  0.00  0.00    +0.000 A 
ATOM     13  C   UNL     1       0.632  10.582  20.919  0.00  0.00    +0.000 A 
ATOM     14  C   UNL     1       0.740   9.370  21.606  0.00  0.00    +0.000 A 
ATOM     15  C   UNL     1      -0.039   9.189  22.754  0.00  0.00    +0.000 A 
ATOM     16  C   UNL     1      -0.869  10.217  23.228  0.00  0.00    +0.000 A 
ENDBRANCH   6  14
ENDBRANCH   5   7
ENDBRANCH   1   5
BRANCH   3  17
ATOM     17  C   UNL     1       1.421   3.235  18.862  0.00  0.00    +0.000 C 
BRANCH  17  18
ATOM     18  S   UNL     1       2.796   2.068  18.627  0.00  0.00    +0.000 S 
BRANCH  18  19
ATOM     19  C   UNL     1       4.089   3.182  18.277  0.00  0.00    +0.000 A 
ATOM     20  N   UNL     1       4.420   3.556  17.053  0.00  0.00    +0.000 NA
ATOM     21  C   UNL     1       5.457   4.435  17.252  0.00  0.00    +0.000 A 
ATOM     22  C   UNL     1       6.234   5.168  16.346  0.00  0.00    +0.000 A 
ATOM     23  C   UNL     1       7.249   5.992  16.858  0.00  0.00    +0.000 A 
ATOM     24  C   UNL     1       7.481   6.084  18.237  0.00  0.00    +0.000 A 
ATOM     25  C   UNL     1       6.706   5.364  19.155  0.00  0.00    +0.000 A 
ATOM     26  C   UNL     1       5.713   4.561  18.606  0.00  0.00    +0.000 A 
ATOM     27  O   UNL     1       4.827   3.769  19.273  0.00  0.00    +0.000 OA
ENDBRANCH  18  19
ENDBRANCH  17  18
ENDBRANCH   3  17
TORSDOF 6
ENDMDL
MODEL 3
REMARK VINA RESULT:      -6.7      0.639      1.489
REMARK  Name = 
REMARK  8 active torsions:
REMARK  status: ('A' for Active; 'I' for Inactive)
REMARK    1  A    between atoms: C_1  and  C_2
REMARK    2  A    between atoms: C_5  and  N_6
REMARK    3  A    between atoms: C_7  and  C_9
REMARK    4  A    between atoms: C_9  and  N_10
REMARK    5  A    between atoms: N_10  and  C_11
REMARK    6  A    between atoms: C_12  and  C_14
REMARK    7  A    between atoms: C_14  and  S_15
REMARK    8  A    between atoms: S_15  and  C_16
REMARK                            x       y       z     vdW  Elec       q    Type
REMARK                         _______ _______ _______ _____ _____    ______ ____
ROOT
ATOM      1  N   UNL     1       2.592   2.999  17.934  0.00  0.00    +0.000 N 
ATOM      2  C   UNL     1       1.541   3.833  17.369  0.00  0.00    +0.000 C 
ATOM      3  C   UNL     1       2.737   2.761  19.304  0.00  0.00    +0.000 C 
ATOM      4  O   UNL     1       3.676   2.085  19.730  0.00  0.00    +0.000 OA
ENDROOT
BRANCH   1   5
ATOM      5  C   UNL     1       3.719   2.659  17.053  0.00  0.00    +0.000 C 
BRANCH   5   7
ATOM      6  N   UNL     1       4.997   4.588  17.912  0.00  0.00    +0.000 N 
ATOM      7  C   UNL     1       4.800   3.730  16.842  0.00  0.00    +0.000 C 
ATOM      8  O   UNL     1       5.355   3.808  15.747  0.00  0.00    +0.000 OA
ATOM      9  H   UNL     1       4.499   4.360  18.765  0.00  0.00    +0.000 HD
BRANCH   6  14
ATOM     10  C   UNL     1       8.786   8.908  18.085  0.00  0.00    +0.000 C 
ATOM     11  C   UNL     1       7.774   7.798  18.051  0.00  0.00    +0.000 A 
ATOM     12  C   UNL     1       6.639   7.896  17.248  0.00  0.00    +0.000 A 
ATOM     13  C   UNL     1       5.708   6.850  17.199  0.00  0.00    +0.000 A 
ATOM     14  C   UNL     1       5.889   5.686  17.951  0.00  0.00    +0.000 A 
ATOM     15  C   UNL     1       7.009   5.606  18.784  0.00  0.00    +0.000 A 
ATOM     16  C   UNL     1       7.950   6.646  18.826  0.00  0.00    +0.000 A 
ENDBRANCH   6  14
ENDBRANCH   5   7
ENDBRANCH   1   5
BRANCH   3  17
ATOM     17  C   UNL     1       1.651   3.302  20.236  0.00  0.00    +0.000 C 
BRANCH  17  18
ATOM     18  S   UNL     1       2.316   4.473  21.458  0.00  0.00    +0.000 S 
BRANCH  18  19
ATOM     19  C   UNL     1       2.087   5.973  20.602  0.00  0.00    +0.000 A 
ATOM     20  N   UNL     1       1.375   6.982  21.074  0.00  0.00    +0.000 NA
ATOM     21  C   UNL     1       1.481   7.940  20.095  0.00  0.00    +0.000 A 
ATOM     22  C   UNL     1       0.948   9.232  20.004  0.00  0.00    +0.000 A 
ATOM     23  C   UNL     1       1.228   9.985  18.852  0.00  0.00    +0.000 A 
ATOM     24  C   UNL     1       2.020   9.464  17.820  0.00  0.00    +0.000 A 
ATOM     25  C   UNL     1       2.567   8.177  17.902  0.00  0.00    +0.000 A 
ATOM     26  C   UNL     1       2.266   7.466  19.058  0.00  0.00    +0.000 A 
ATOM     27  O   UNL     1       2.671   6.207  19.384  0.00  0.00    +0.000 OA
ENDBRANCH  18  19
ENDBRANCH  17  18
ENDBRANCH   3  17
TORSDOF 6
ENDMDL
MODEL 4
REMARK VINA RESULT:      -6.7      2.158      6.572
REMARK  Name = 
REMARK  8 active torsions:
REMARK  status: ('A' for Active; 'I' for Inactive)
REMARK    1  A    between atoms: C_1  and  C_2
REMARK    2  A    between atoms: C_5  and  N_6
REMARK    3  A    between atoms: C_7  and  C_9
REMARK    4  A    between atoms: C_9  and  N_10
REMARK    5  A    between atoms: N_10  and  C_11
REMARK    6  A    between atoms: C_12  and  C_14
REMARK    7  A    between atoms: C_14  and  S_15
REMARK    8  A    between atoms: S_15  and  C_16
REMARK                            x       y       z     vdW  Elec       q    Type
REMARK                         _______ _______ _______ _____ _____    ______ ____
ROOT
ATOM      1  N   UNL     1       2.189   5.338  19.831  0.00  0.00    +0.000 N 
ATOM      2  C   UNL     1       2.391   4.725  21.137  0.00  0.00    +0.000 C 
ATOM      3  C   UNL     1       1.929   4.609  18.667  0.00  0.00    +0.000 C 
ATOM      4  O   UNL     1       1.815   5.178  17.579  0.00  0.00    +0.000 OA
ENDROOT
BRANCH   1   5
ATOM      5  C   UNL     1       2.588   6.745  19.686  0.00  0.00    +0.000 C 
BRANCH   5   7
ATOM      6  N   UNL     1       1.389   8.874  19.338  0.00  0.00    +0.000 N 
ATOM      7  C   UNL     1       1.611   7.814  20.201  0.00  0.00    +0.000 C 
ATOM      8  O   UNL     1       1.158   7.708  21.340  0.00  0.00    +0.000 OA
ATOM      9  H   UNL     1       1.794   8.789  18.413  0.00  0.00    +0.000 HD
BRANCH   6  14
ATOM     10  C   UNL     1      -2.067  13.359  20.331  0.00  0.00    +0.000 C 
ATOM     11  C   UNL     1      -1.141  12.207  20.066  0.00  0.00    +0.000 A 
ATOM     12  C   UNL     1      -0.017  12.002  20.863  0.00  0.00    +0.000 A 
ATOM     13  C   UNL     1       0.834  10.912  20.630  0.00  0.00    +0.000 A 
ATOM     14  C   UNL     1       0.580  10.008  19.595  0.00  0.00    +0.000 A 
ATOM     15  C   UNL     1      -0.527  10.237  18.773  0.00  0.00    +0.000 A 
ATOM     16  C   UNL     1      -1.388  11.320  19.012  0.00  0.00    +0.000 A 
ENDBRANCH   6  14
ENDBRANCH   5   7
ENDBRANCH   1   5
BRANCH   3  17
ATOM     17  C   UNL     1       1.716   3.100  18.809  0.00  0.00    +0.000 C 
BRANCH  17  18
ATOM     18  S   UNL     1       3.102   2.143  18.121  0.00  0.00    +0.000 S 
BRANCH  18  19
ATOM     19  C   UNL     1       4.338   3.370  18.093  0.00  0.00    +0.000 A 
ATOM     20  N   UNL     1       5.080   3.682  19.142  0.00  0.00    +0.000 NA
ATOM     21  C   UNL     1       5.915   4.666  18.667  0.00  0.00    +0.000 A 
ATOM     22  C   UNL     1       6.928   5.402  19.295  0.00  0.00    +0.000 A 
ATOM     23  C   UNL     1       7.613   6.366  18.539  0.00  0.00    +0.000 A 
ATOM     24  C   UNL     1       7.298   6.589  17.192  0.00  0.00    +0.000 A 
ATOM     25  C   UNL     1       6.294   5.854  16.549  0.00  0.00    +0.000 A 
ATOM     26  C   UNL     1       5.640   4.911  17.333  0.00  0.00    +0.000 A 
ATOM     27  O   UNL     1       4.637   4.071  16.953  0.00  0.00    +0.000 OA
ENDBRANCH  18  19
ENDBRANCH  17  18
ENDBRANCH   3  17
TORSDOF 6
ENDMDL
MODEL 5
REMARK VINA RESULT:      -6.7      2.996      6.695
REMARK  Name = 
REMARK  8 active torsions:
REMARK  status: ('A' for Active; 'I' for Inactive)
REMARK    1  A    between atoms: C_1  and  C_2
REMARK    2  A    between atoms: C_5  and  N_6
REMARK    3  A    between atoms: C_7  and  C_9
REMARK    4  A    between atoms: C_9  and  N_10
REMARK    5  A    between atoms: N_10  and  C_11
REMARK    6  A    between atoms: C_12  and  C_14
REMARK    7  A    between atoms: C_14  and  S_15
REMARK    8  A    between atoms: S_15  and  C_16
REMARK                            x       y       z     vdW  Elec       q    Type
REMARK                         _______ _______ _______ _____ _____    ______ ____
ROOT
ATOM      1  N   UNL     1       4.218   4.000  18.737  0.00  0.00    +0.000 N 
ATOM      2  C   UNL     1       4.137   3.042  17.643  0.00  0.00    +0.000 C 
ATOM      3  C   UNL     1       5.377   4.712  19.057  0.00  0.00    +0.000 C 
ATOM      4  O   UNL     1       5.401   5.475  20.025  0.00  0.00    +0.000 OA
ENDROOT
BRANCH   1   5
ATOM      5  C   UNL     1       3.131   3.974  19.727  0.00  0.00    +0.000 C 
BRANCH   5   7
ATOM      6  N   UNL     1       2.700   6.326  19.117  0.00  0.00    +0.000 N 
ATOM      7  C   UNL     1       2.292   5.251  19.890  0.00  0.00    +0.000 C 
ATOM      8  O   UNL     1       1.387   5.267  20.723  0.00  0.00    +0.000 OA
ATOM      9  H   UNL     1       3.429   6.138  18.439  0.00  0.00    +0.000 HD
BRANCH   6  14
ATOM     10  C   UNL     1       0.321  11.556  18.941  0.00  0.00    +0.000 C 
ATOM     11  C   UNL     1       0.963  10.200  19.008  0.00  0.00    +0.000 A 
ATOM     12  C   UNL     1       0.977   9.480  20.199  0.00  0.00    +0.000 A 
ATOM     13  C   UNL     1       1.555   8.204  20.255  0.00  0.00    +0.000 A 
ATOM     14  C   UNL     1       2.132   7.623  19.122  0.00  0.00    +0.000 A 
ATOM     15  C   UNL     1       2.150   8.364  17.937  0.00  0.00    +0.000 A 
ATOM     16  C   UNL     1       1.561   9.636  17.874  0.00  0.00    +0.000 A 
ENDBRANCH   6  14
ENDBRANCH   5   7
ENDBRANCH   1   5
BRANCH   3  17
ATOM     17  C   UNL     1       6.579   4.568  18.120  0.00  0.00    +0.000 C 
BRANCH  17  18
ATOM     18  S   UNL     1       6.806   6.033  17.067  0.00  0.00    +0.000 S 
BRANCH  18  19
ATOM     19  C   UNL     1       6.656   5.305  15.491  0.00  0.00    +0.000 A 
ATOM     20  N   UNL     1       7.582   5.399  14.552  0.00  0.00    +0.000 NA
ATOM     21  C   UNL     1       7.059   4.675  13.508  0.00  0.00    +0.000 A 
ATOM     22  C   UNL     1       7.563   4.401  12.230  0.00  0.00    +0.000 A 
ATOM     23  C   UNL     1       6.779   3.625  11.361  0.00  0.00    +0.000 A 
ATOM     24  C   UNL     1       5.527   3.135  11.757  0.00  0.00    +0.000 A 
ATOM     25  C   UNL     1       5.016   3.394  13.035  0.00  0.00    +0.000 A 
ATOM     26  C   UNL     1       5.823   4.164  13.863  0.00  0.00    +0.000 A 
ATOM     27  O   UNL     1       5.563   4.553  15.142  0.00  0.00    +0.000 OA
ENDBRANCH  18  19
ENDBRANCH  17  18
ENDBRANCH   3  17
TORSDOF 6
ENDMDL
MODEL 6
REMARK VINA RESULT:      -6.6      4.258      7.209
REMARK  Name = 
REMARK  8 active torsions:
REMARK  status: ('A' for Active; 'I' for Inactive)
REMARK    1  A    between atoms: C_1  and  C_2
REMARK    2  A    between atoms: C_5  and  N_6
REMARK    3  A    between atoms: C_7  and  C_9
REMARK    4  A    between atoms: C_9  and  N_10
REMARK    5  A    between atoms: N_10  and  C_11
REMARK    6  A    between atoms: C_12  and  C_14
REMARK    7  A    between atoms: C_14  and  S_15
REMARK    8  A    between atoms: S_15  and  C_16
REMARK                            x       y       z     vdW  Elec       q    Type
REMARK                         _______ _______ _______ _____ _____    ______ ____
ROOT
ATOM      1  N   UNL     1       0.231   9.872  22.252  0.00  0.00    +0.000 N 
ATOM      2  C   UNL     1      -0.711   8.831  22.639  0.00  0.00    +0.000 C 
ATOM      3  C   UNL     1      -0.129  11.211  22.072  0.00  0.00    +0.000 C 
ATOM      4  O   UNL     1       0.702  12.042  21.697  0.00  0.00    +0.000 OA
ENDROOT
BRANCH   1   5
ATOM      5  C   UNL     1       1.533   9.433  21.730  0.00  0.00    +0.000 C 
BRANCH   5   7
ATOM      6  N   UNL     1       1.950   7.114  20.998  0.00  0.00    +0.000 N 
ATOM      7  C   UNL     1       1.528   8.377  20.615  0.00  0.00    +0.000 C 
ATOM      8  O   UNL     1       1.233   8.719  19.471  0.00  0.00    +0.000 OA
ATOM      9  H   UNL     1       2.108   6.977  21.990  0.00  0.00    +0.000 HD
BRANCH   6  14
ATOM     10  C   UNL     1       2.300   2.497  17.591  0.00  0.00    +0.000 C 
ATOM     11  C   UNL     1       2.239   3.700  18.488  0.00  0.00    +0.000 A 
ATOM     12  C   UNL     1       3.015   4.825  18.220  0.00  0.00    +0.000 A 
ATOM     13  C   UNL     1       2.938   5.957  19.045  0.00  0.00    +0.000 A 
ATOM     14  C   UNL     1       2.088   5.986  20.153  0.00  0.00    +0.000 A 
ATOM     15  C   UNL     1       1.339   4.841  20.442  0.00  0.00    +0.000 A 
ATOM     16  C   UNL     1       1.403   3.711  19.611  0.00  0.00    +0.000 A 
ENDBRANCH   6  14
ENDBRANCH   5   7
ENDBRANCH   1   5
BRANCH   3  17
ATOM     17  C   UNL     1      -1.560  11.615  22.431  0.00  0.00    +0.000 C 
BRANCH  17  18
ATOM     18  S   UNL     1      -2.145  13.022  21.437  0.00  0.00    +0.000 S 
BRANCH  18  19
ATOM     19  C   UNL     1      -2.498  12.213  19.936  0.00  0.00    +0.000 A 
ATOM     20  N   UNL     1      -3.641  12.347  19.285  0.00  0.00    +0.000 NA
ATOM     21  C   UNL     1      -3.474  11.559  18.171  0.00  0.00    +0.000 A 
ATOM     22  C   UNL     1      -4.329  11.284  17.096  0.00  0.00    +0.000 A 
ATOM     23  C   UNL     1      -3.874  10.415  16.092  0.00  0.00    +0.000 A 
ATOM     24  C   UNL     1      -2.599   9.837  16.157  0.00  0.00    +0.000 A 
ATOM     25  C   UNL     1      -1.730  10.110  17.221  0.00  0.00    +0.000 A 
ATOM     26  C   UNL     1      -2.219  10.975  18.193  0.00  0.00    +0.000 A 
ATOM     27  O   UNL     1      -1.580  11.402  19.317  0.00  0.00    +0.000 OA
ENDBRANCH  18  19
ENDBRANCH  17  18
ENDBRANCH   3  17
TORSDOF 6
ENDMDL
MODEL 7
REMARK VINA RESULT:      -6.5      2.166      6.543
REMARK  Name = 
REMARK  8 active torsions:
REMARK  status: ('A' for Active; 'I' for Inactive)
REMARK    1  A    between atoms: C_1  and  C_2
REMARK    2  A    between atoms: C_5  and  N_6
REMARK    3  A    between atoms: C_7  and  C_9
REMARK    4  A    between atoms: C_9  and  N_10
REMARK    5  A    between atoms: N_10  and  C_11
REMARK    6  A    between atoms: C_12  and  C_14
REMARK    7  A    between atoms: C_14  and  S_15
REMARK    8  A    between atoms: S_15  and  C_16
REMARK                            x       y       z     vdW  Elec       q    Type
REMARK                         _______ _______ _______ _____ _____    ______ ____
ROOT
ATOM      1  N   UNL     1       2.292   5.293  19.877  0.00  0.00    +0.000 N 
ATOM      2  C   UNL     1       2.579   4.691  21.172  0.00  0.00    +0.000 C 
ATOM      3  C   UNL     1       1.997   4.553  18.729  0.00  0.00    +0.000 C 
ATOM      4  O   UNL     1       1.809   5.114  17.648  0.00  0.00    +0.000 OA
ENDROOT
BRANCH   1   5
ATOM      5  C   UNL     1       2.637   6.712  19.711  0.00  0.00    +0.000 C 
BRANCH   5   7
ATOM      6  N   UNL     1       1.421   8.826  19.334  0.00  0.00    +0.000 N 
ATOM      7  C   UNL     1       1.610   7.751  20.187  0.00  0.00    +0.000 C 
ATOM      8  O   UNL     1       1.090   7.611  21.293  0.00  0.00    +0.000 OA
ATOM      9  H   UNL     1       1.883   8.769  18.434  0.00  0.00    +0.000 HD
BRANCH   6  14
ATOM     10  C   UNL     1      -1.837  13.458  20.324  0.00  0.00    +0.000 C 
ATOM     11  C   UNL     1      -1.010  12.230  20.071  0.00  0.00    +0.000 A 
ATOM     12  C   UNL     1      -1.329  11.362  19.029  0.00  0.00    +0.000 A 
ATOM     13  C   UNL     1      -0.543  10.229  18.779  0.00  0.00    +0.000 A 
ATOM     14  C   UNL     1       0.576   9.938  19.565  0.00  0.00    +0.000 A 
ATOM     15  C   UNL     1       0.872  10.790  20.633  0.00  0.00    +0.000 A 
ATOM     16  C   UNL     1       0.094  11.933  20.879  0.00  0.00    +0.000 A 
ENDBRANCH   6  14
ENDBRANCH   5   7
ENDBRANCH   1   5
BRANCH   3  17
ATOM     17  C   UNL     1       1.840   3.038  18.884  0.00  0.00    +0.000 C 
BRANCH  17  18
ATOM     18  S   UNL     1       3.155   2.121  18.026  0.00  0.00    +0.000 S 
BRANCH  18  19
ATOM     19  C   UNL     1       4.389   3.349  17.953  0.00  0.00    +0.000 A 
ATOM     20  N   UNL     1       4.688   4.018  16.852  0.00  0.00    +0.000 NA
ATOM     21  C   UNL     1       5.683   4.876  17.256  0.00  0.00    +0.000 A 
ATOM     22  C   UNL     1       6.414   5.841  16.550  0.00  0.00    +0.000 A 
ATOM     23  C   UNL     1       7.392   6.570  17.244  0.00  0.00    +0.000 A 
ATOM     24  C   UNL     1       7.634   6.344  18.607  0.00  0.00    +0.000 A 
ATOM     25  C   UNL     1       6.904   5.389  19.326  0.00  0.00    +0.000 A 
ATOM     26  C   UNL     1       5.946   4.690  18.602  0.00  0.00    +0.000 A 
ATOM     27  O   UNL     1       5.108   3.720  19.060  0.00  0.00    +0.000 OA
ENDBRANCH  18  19
ENDBRANCH  17  18
ENDBRANCH   3  17
TORSDOF 6
ENDMDL
MODEL 8
REMARK VINA RESULT:      -6.4      3.310      7.693
REMARK  Name = 
REMARK  8 active torsions:
REMARK  status: ('A' for Active; 'I' for Inactive)
REMARK    1  A    between atoms: C_1  and  C_2
REMARK    2  A    between atoms: C_5  and  N_6
REMARK    3  A    between atoms: C_7  and  C_9
REMARK    4  A    between atoms: C_9  and  N_10
REMARK    5  A    between atoms: N_10  and  C_11
REMARK    6  A    between atoms: C_12  and  C_14
REMARK    7  A    between atoms: C_14  and  S_15
REMARK    8  A    between atoms: S_15  and  C_16
REMARK                            x       y       z     vdW  Elec       q    Type
REMARK                         _______ _______ _______ _____ _____    ______ ____
ROOT
ATOM      1  N   UNL     1       3.184   6.216  18.152  0.00  0.00    +0.000 N 
ATOM      2  C   UNL     1       2.390   5.106  18.658  0.00  0.00    +0.000 C 
ATOM      3  C   UNL     1       4.577   6.181  18.036  0.00  0.00    +0.000 C 
ATOM      4  O   UNL     1       5.202   7.170  17.646  0.00  0.00    +0.000 OA
ENDROOT
BRANCH   1   5
ATOM      5  C   UNL     1       2.519   7.524  18.059  0.00  0.00    +0.000 C 
BRANCH   5   7
ATOM      6  N   UNL     1       1.169   9.262  19.175  0.00  0.00    +0.000 N 
ATOM      7  C   UNL     1       1.880   8.085  19.339  0.00  0.00    +0.000 C 
ATOM      8  O   UNL     1       2.093   7.518  20.410  0.00  0.00    +0.000 OA
ATOM      9  H   UNL     1       1.039   9.577  18.220  0.00  0.00    +0.000 HD
BRANCH   6  14
ATOM     10  C   UNL     1      -1.545  12.359  23.187  0.00  0.00    +0.000 C 
ATOM     11  C   UNL     1      -0.810  11.551  22.156  0.00  0.00    +0.000 A 
ATOM     12  C   UNL     1      -0.303  10.292  22.470  0.00  0.00    +0.000 A 
ATOM     13  C   UNL     1       0.361   9.528  21.501  0.00  0.00    +0.000 A 
ATOM     14  C   UNL     1       0.534  10.006  20.199  0.00  0.00    +0.000 A 
ATOM     15  C   UNL     1       0.058  11.285  19.897  0.00  0.00    +0.000 A 
ATOM     16  C   UNL     1      -0.618  12.048  20.862  0.00  0.00    +0.000 A 
ENDBRANCH   6  14
ENDBRANCH   5   7
ENDBRANCH   1   5
BRANCH   3  17
ATOM     17  C   UNL     1       5.279   4.855  18.335  0.00  0.00    +0.000 C 
BRANCH  17  18
ATOM     18  S   UNL     1       7.042   4.897  17.890  0.00  0.00    +0.000 S 
BRANCH  18  19
ATOM     19  C   UNL     1       6.931   4.652  16.169  0.00  0.00    +0.000 A 
ATOM     20  N   UNL     1       6.081   3.810  15.606  0.00  0.00    +0.000 NA
ATOM     21  C   UNL     1       6.327   3.954  14.261  0.00  0.00    +0.000 A 
ATOM     22  C   UNL     1       5.751   3.333  13.145  0.00  0.00    +0.000 A 
ATOM     23  C   UNL     1       6.227   3.685  11.872  0.00  0.00    +0.000 A 
ATOM     24  C   UNL     1       7.248   4.633  11.716  0.00  0.00    +0.000 A 
ATOM     25  C   UNL     1       7.826   5.268  12.823  0.00  0.00    +0.000 A 
ATOM     26  C   UNL     1       7.326   4.890  14.064  0.00  0.00    +0.000 A 
ATOM     27  O   UNL     1       7.709   5.355  15.285  0.00  0.00    +0.000 OA
ENDBRANCH  18  19
ENDBRANCH  17  18
ENDBRANCH   3  17
TORSDOF 6
ENDMDL
MODEL 9
REMARK VINA RESULT:      -6.4      3.194      7.104
REMARK  Name = 
REMARK  8 active torsions:
REMARK  status: ('A' for Active; 'I' for Inactive)
REMARK    1  A    between atoms: C_1  and  C_2
REMARK    2  A    between atoms: C_5  and  N_6
REMARK    3  A    between atoms: C_7  and  C_9
REMARK    4  A    between atoms: C_9  and  N_10
REMARK    5  A    between atoms: N_10  and  C_11
REMARK    6  A    between atoms: C_12  and  C_14
REMARK    7  A    between atoms: C_14  and  S_15
REMARK    8  A    between atoms: S_15  and  C_16
REMARK                            x       y       z     vdW  Elec       q    Type
REMARK                         _______ _______ _______ _____ _____    ______ ____
ROOT
ATOM      1  N   UNL     1       4.614   4.261  18.747  0.00  0.00    +0.000 N 
ATOM      2  C   UNL     1       4.113   3.498  17.613  0.00  0.00    +0.000 C 
ATOM      3  C   UNL     1       5.924   4.741  18.837  0.00  0.00    +0.000 C 
ATOM      4  O   UNL     1       6.307   5.341  19.844  0.00  0.00    +0.000 OA
ENDROOT
BRANCH   1   5
ATOM      5  C   UNL     1       3.800   4.248  19.971  0.00  0.00    +0.000 C 
BRANCH   5   7
ATOM      6  N   UNL     1       2.964   6.552  19.688  0.00  0.00    +0.000 N 
ATOM      7  C   UNL     1       2.646   5.257  20.064  0.00  0.00    +0.000 C 
ATOM      8  O   UNL     1       1.566   4.888  20.522  0.00  0.00    +0.000 OA
ATOM      9  H   UNL     1       3.883   6.687  19.281  0.00  0.00    +0.000 HD
BRANCH   6  14
ATOM     10  C   UNL     1      -0.613  11.052  19.674  0.00  0.00    +0.000 C 
ATOM     11  C   UNL     1       0.340   9.892  19.699  0.00  0.00    +0.000 A 
ATOM     12  C   UNL     1       0.559   9.177  20.874  0.00  0.00    +0.000 A 
ATOM     13  C   UNL     1       1.429   8.079  20.890  0.00  0.00    +0.000 A 
ATOM     14  C   UNL     1       2.100   7.673  19.733  0.00  0.00    +0.000 A 
ATOM     15  C   UNL     1       1.908   8.414  18.564  0.00  0.00    +0.000 A 
ATOM     16  C   UNL     1       1.027   9.507  18.541  0.00  0.00    +0.000 A 
ENDBRANCH   6  14
ENDBRANCH   5   7
ENDBRANCH   1   5
BRANCH   3  17
ATOM     17  C   UNL     1       6.829   4.565  17.616  0.00  0.00    +0.000 C 
BRANCH  17  18
ATOM     18  S   UNL     1       6.621   5.907  16.407  0.00  0.00    +0.000 S 
BRANCH  18  19
ATOM     19  C   UNL     1       6.349   4.977  14.959  0.00  0.00    +0.000 A 
ATOM     20  N   UNL     1       5.151   4.592  14.553  0.00  0.00    +0.000 NA
ATOM     21  C   UNL     1       5.407   3.915  13.385  0.00  0.00    +0.000 A 
ATOM     22  C   UNL     1       4.551   3.268  12.484  0.00  0.00    +0.000 A 
ATOM     23  C   UNL     1       5.118   2.644  11.362  0.00  0.00    +0.000 A 
ATOM     24  C   UNL     1       6.503   2.665  11.143  0.00  0.00    +0.000 A 
ATOM     25  C   UNL     1       7.370   3.316  12.031  0.00  0.00    +0.000 A 
ATOM     26  C   UNL     1       6.767   3.921  13.127  0.00  0.00    +0.000 A 
ATOM     27  O   UNL     1       7.378   4.614  14.128  0.00  0.00    +0.000 OA
ENDBRANCH  18  19
ENDBRANCH  17  18
ENDBRANCH   3  17
TORSDOF 6
ENDMDL
