MODEL 1
REMARK VINA RESULT:      -7.0      0.000      0.000
REMARK  Name = 
REMARK  7 active torsions:
REMARK  status: ('A' for Active; 'I' for Inactive)
REMARK    1  A    between atoms: C_1  and  N_2
REMARK    2  A    between atoms: N_2  and  C_3
REMARK    3  A    between atoms: N_2  and  C_4
REMARK    4  A    between atoms: C_5  and  C_6
REMARK    5  A    between atoms: C_5  and  S_16
REMARK    6  A    between atoms: C_6  and  C_8
REMARK    7  A    between atoms: S_16  and  C_19
REMARK                            x       y       z     vdW  Elec       q    Type
REMARK                         _______ _______ _______ _____ _____    ______ ____
ROOT
ATOM      1  C   UNL     1       3.814   6.378  18.155  0.00  0.00    +0.000 C 
ATOM      2  C   UNL     1       3.987   5.059  17.901  0.00  0.00    +0.000 C 
ENDROOT
BRANCH   1   4
ATOM      3  C   UNL     1       2.380   8.376  17.753  0.00  0.00    +0.000 C 
ATOM      4  N   UNL     1       2.769   7.214  18.570  0.00  0.00    +0.000 N 
ATOM      5  C   UNL     1       2.153   7.200  19.903  0.00  0.00    +0.000 C 
ENDBRANCH   1   4
BRANCH   2   6
ATOM      6  S   UNL     1       2.615   3.994  17.846  0.00  0.00    +0.000 S 
ATOM      7  O   UNL     1       1.430   4.784  17.537  0.00  0.00    +0.000 OA
ATOM      8  O   UNL     1       2.928   2.843  17.019  0.00  0.00    +0.000 OA
BRANCH   6   9
ATOM      9  C   UNL     1       2.279   3.330  19.462  0.00  0.00    +0.000 A 
ATOM     10  C   UNL     1       3.318   2.767  20.211  0.00  0.00    +0.000 A 
ATOM     11  C   UNL     1       3.060   2.301  21.499  0.00  0.00    +0.000 A 
ATOM     12  C   UNL     1       1.774   2.405  22.033  0.00  0.00    +0.000 A 
ATOM     13  C   UNL     1       0.748   2.995  21.294  0.00  0.00    +0.000 A 
ATOM     14  C   UNL     1       1.003   3.482  20.015  0.00  0.00    +0.000 A 
ENDBRANCH   6   9
ENDBRANCH   2   6
BRANCH   2  15
ATOM     15  C   UNL     1       5.357   4.518  17.607  0.00  0.00    +0.000 C 
ATOM     16  O   UNL     1       6.029   4.024  18.504  0.00  0.00    +0.000 OA
BRANCH  15  17
ATOM     17  C   UNL     1       5.966   4.608  16.237  0.00  0.00    +0.000 A 
ATOM     18  C   UNL     1       5.537   3.731  15.221  0.00  0.00    +0.000 A 
ATOM     19  C   UNL     1       6.090   3.783  13.939  0.00  0.00    +0.000 A 
ATOM     20  C   UNL     1       7.035   4.754  13.629  0.00  0.00    +0.000 A 
ATOM     21 CL   UNL     1       7.690   4.831  12.043  0.00  0.00    +0.000 Cl
ATOM     22  C   UNL     1       7.441   5.666  14.597  0.00  0.00    +0.000 A 
ATOM     23  C   UNL     1       6.920   5.591  15.901  0.00  0.00    +0.000 A 
ATOM     24 CL   UNL     1       7.559   6.757  17.010  0.00  0.00    +0.000 Cl
ENDBRANCH  15  17
ENDBRANCH   2  15
TORSDOF 5
ENDMDL
MODEL 2
REMARK VINA RESULT:      -6.8      3.121      6.892
REMARK  Name = 
REMARK  7 active torsions:
REMARK  status: ('A' for Active; 'I' for Inactive)
REMARK    1  A    between atoms: C_1  and  N_2
REMARK    2  A    between atoms: N_2  and  C_3
REMARK    3  A    between atoms: N_2  and  C_4
REMARK    4  A    between atoms: C_5  and  C_6
REMARK    5  A    between atoms: C_5  and  S_16
REMARK    6  A    between atoms: C_6  and  C_8
REMARK    7  A    between atoms: S_16  and  C_19
REMARK                            x       y       z     vdW  Elec       q    Type
REMARK                         _______ _______ _______ _____ _____    ______ ____
ROOT
ATOM      1  C   UNL     1       1.882   4.588  18.903  0.00  0.00    +0.000 C 
ATOM      2  C   UNL     1       2.989   5.370  18.898  0.00  0.00    +0.000 C 
ENDROOT
BRANCH   1   4
ATOM      3  C   UNL     1       1.267   2.846  20.577  0.00  0.00    +0.000 C 
ATOM      4  N   UNL     1       1.572   3.252  19.194  0.00  0.00    +0.000 N 
ATOM      5  C   UNL     1       1.761   2.120  18.277  0.00  0.00    +0.000 C 
ENDBRANCH   1   4
BRANCH   2   6
ATOM      6  S   UNL     1       4.560   4.657  19.105  0.00  0.00    +0.000 S 
ATOM      7  O   UNL     1       5.403   5.599  19.831  0.00  0.00    +0.000 OA
ATOM      8  O   UNL     1       4.415   3.306  19.617  0.00  0.00    +0.000 OA
BRANCH   6   9
ATOM      9  C   UNL     1       5.373   4.477  17.534  0.00  0.00    +0.000 A 
ATOM     10  C   UNL     1       4.622   4.158  16.396  0.00  0.00    +0.000 A 
ATOM     11  C   UNL     1       5.257   4.076  15.158  0.00  0.00    +0.000 A 
ATOM     12  C   UNL     1       6.628   4.316  15.060  0.00  0.00    +0.000 A 
ATOM     13  C   UNL     1       7.367   4.665  16.191  0.00  0.00    +0.000 A 
ATOM     14  C   UNL     1       6.737   4.770  17.428  0.00  0.00    +0.000 A 
ENDBRANCH   6   9
ENDBRANCH   2   6
BRANCH   2  15
ATOM     15  C   UNL     1       2.870   6.847  18.656  0.00  0.00    +0.000 C 
ATOM     16  O   UNL     1       3.503   7.375  17.751  0.00  0.00    +0.000 OA
BRANCH  15  17
ATOM     17  C   UNL     1       2.025   7.727  19.534  0.00  0.00    +0.000 A 
ATOM     18  C   UNL     1       1.718   7.318  20.846  0.00  0.00    +0.000 A 
ATOM     19  C   UNL     1       0.927   8.109  21.684  0.00  0.00    +0.000 A 
ATOM     20  C   UNL     1       0.482   9.352  21.249  0.00  0.00    +0.000 A 
ATOM     21 CL   UNL     1      -0.466  10.332  22.293  0.00  0.00    +0.000 Cl
ATOM     22  C   UNL     1       0.812   9.805  19.976  0.00  0.00    +0.000 A 
ATOM     23  C   UNL     1       1.572   8.995  19.113  0.00  0.00    +0.000 A 
ATOM     24 CL   UNL     1       1.859   9.668  17.544  0.00  0.00    +0.000 Cl
ENDBRANCH  15  17
ENDBRANCH   2  15
TORSDOF 5
ENDMDL
MODEL 3
REMARK VINA RESULT:      -6.8      3.107      5.427
REMARK  Name = 
REMARK  7 active torsions:
REMARK  status: ('A' for Active; 'I' for Inactive)
REMARK    1  A    between atoms: C_1  and  N_2
REMARK    2  A    between atoms: N_2  and  C_3
REMARK    3  A    between atoms: N_2  and  C_4
REMARK    4  A    between atoms: C_5  and  C_6
REMARK    5  A    between atoms: C_5  and  S_16
REMARK    6  A    between atoms: C_6  and  C_8
REMARK    7  A    between atoms: S_16  and  C_19
REMARK                            x       y       z     vdW  Elec       q    Type
REMARK                         _______ _______ _______ _____ _____    ______ ____
ROOT
ATOM      1  C   UNL     1       4.969   6.510  17.417  0.00  0.00    +0.000 C 
ATOM      2  C   UNL     1       4.026   5.665  17.900  0.00  0.00    +0.000 C 
ENDROOT
BRANCH   1   4
ATOM      3  C   UNL     1       6.779   5.502  16.031  0.00  0.00    +0.000 C 
ATOM      4  N   UNL     1       6.325   6.443  17.070  0.00  0.00    +0.000 N 
ATOM      5  C   UNL     1       7.424   7.058  17.827  0.00  0.00    +0.000 C 
ENDBRANCH   1   4
BRANCH   2   6
ATOM      6  S   UNL     1       4.481   4.088  18.472  0.00  0.00    +0.000 S 
ATOM      7  O   UNL     1       4.462   3.165  17.346  0.00  0.00    +0.000 OA
ATOM      8  O   UNL     1       5.687   4.193  19.275  0.00  0.00    +0.000 OA
BRANCH   6   9
ATOM      9  C   UNL     1       3.241   3.446  19.575  0.00  0.00    +0.000 A 
ATOM     10  C   UNL     1       3.250   3.821  20.923  0.00  0.00    +0.000 A 
ATOM     11  C   UNL     1       2.242   3.361  21.769  0.00  0.00    +0.000 A 
ATOM     12  C   UNL     1       1.232   2.538  21.266  0.00  0.00    +0.000 A 
ATOM     13  C   UNL     1       1.210   2.193  19.914  0.00  0.00    +0.000 A 
ATOM     14  C   UNL     1       2.201   2.666  19.059  0.00  0.00    +0.000 A 
ENDBRANCH   6   9
ENDBRANCH   2   6
BRANCH   2  15
ATOM     15  C   UNL     1       2.594   6.106  18.000  0.00  0.00    +0.000 C 
ATOM     16  O   UNL     1       1.692   5.343  17.678  0.00  0.00    +0.000 OA
BRANCH  15  17
ATOM     17  C   UNL     1       2.223   7.494  18.440  0.00  0.00    +0.000 A 
ATOM     18  C   UNL     1       2.338   8.569  17.537  0.00  0.00    +0.000 A 
ATOM     19  C   UNL     1       2.009   9.872  17.919  0.00  0.00    +0.000 A 
ATOM     20  C   UNL     1       1.498  10.117  19.188  0.00  0.00    +0.000 A 
ATOM     21 CL   UNL     1       1.070  11.717  19.642  0.00  0.00    +0.000 Cl
ATOM     22  C   UNL     1       1.326   9.067  20.084  0.00  0.00    +0.000 A 
ATOM     23  C   UNL     1       1.695   7.760  19.721  0.00  0.00    +0.000 A 
ATOM     24 CL   UNL     1       1.474   6.568  20.957  0.00  0.00    +0.000 Cl
ENDBRANCH  15  17
ENDBRANCH   2  15
TORSDOF 5
ENDMDL
MODEL 4
REMARK VINA RESULT:      -6.8      3.109      6.837
REMARK  Name = 
REMARK  7 active torsions:
REMARK  status: ('A' for Active; 'I' for Inactive)
REMARK    1  A    between atoms: C_1  and  N_2
REMARK    2  A    between atoms: N_2  and  C_3
REMARK    3  A    between atoms: N_2  and  C_4
REMARK    4  A    between atoms: C_5  and  C_6
REMARK    5  A    between atoms: C_5  and  S_16
REMARK    6  A    between atoms: C_6  and  C_8
REMARK    7  A    between atoms: S_16  and  C_19
REMARK                            x       y       z     vdW  Elec       q    Type
REMARK                         _______ _______ _______ _____ _____    ______ ____
ROOT
ATOM      1  C   UNL     1       1.876   4.612  19.214  0.00  0.00    +0.000 C 
ATOM      2  C   UNL     1       2.988   5.360  19.016  0.00  0.00    +0.000 C 
ENDROOT
BRANCH   1   4
ATOM      3  C   UNL     1       1.148   2.302  18.628  0.00  0.00    +0.000 C 
ATOM      4  N   UNL     1       1.579   3.303  19.618  0.00  0.00    +0.000 N 
ATOM      5  C   UNL     1       1.408   2.866  21.010  0.00  0.00    +0.000 C 
ENDBRANCH   1   4
BRANCH   2   6
ATOM      6  S   UNL     1       4.557   4.614  19.046  0.00  0.00    +0.000 S 
ATOM      7  O   UNL     1       5.437   5.420  19.881  0.00  0.00    +0.000 OA
ATOM      8  O   UNL     1       4.414   3.198  19.338  0.00  0.00    +0.000 OA
BRANCH   6   9
ATOM      9  C   UNL     1       5.310   4.683  17.436  0.00  0.00    +0.000 A 
ATOM     10  C   UNL     1       6.586   5.237  17.290  0.00  0.00    +0.000 A 
ATOM     11  C   UNL     1       7.194   5.236  16.035  0.00  0.00    +0.000 A 
ATOM     12  C   UNL     1       6.531   4.679  14.940  0.00  0.00    +0.000 A 
ATOM     13  C   UNL     1       5.271   4.100  15.097  0.00  0.00    +0.000 A 
ATOM     14  C   UNL     1       4.667   4.078  16.351  0.00  0.00    +0.000 A 
ENDBRANCH   6   9
ENDBRANCH   2   6
BRANCH   2  15
ATOM     15  C   UNL     1       2.870   6.826  18.711  0.00  0.00    +0.000 C 
ATOM     16  O   UNL     1       3.499   7.313  17.780  0.00  0.00    +0.000 OA
BRANCH  15  17
ATOM     17  C   UNL     1       2.030   7.743  19.554  0.00  0.00    +0.000 A 
ATOM     18  C   UNL     1       1.741   7.399  20.888  0.00  0.00    +0.000 A 
ATOM     19  C   UNL     1       0.955   8.227  21.695  0.00  0.00    +0.000 A 
ATOM     20  C   UNL     1       0.498   9.444  21.205  0.00  0.00    +0.000 A 
ATOM     21 CL   UNL     1      -0.443  10.470  22.211  0.00  0.00    +0.000 Cl
ATOM     22  C   UNL     1       0.810   9.834  19.907  0.00  0.00    +0.000 A 
ATOM     23  C   UNL     1       1.564   8.987  19.076  0.00  0.00    +0.000 A 
ATOM     24 CL   UNL     1       1.828   9.582  17.472  0.00  0.00    +0.000 Cl
ENDBRANCH  15  17
ENDBRANCH   2  15
TORSDOF 5
ENDMDL
MODEL 5
REMARK VINA RESULT:      -6.5      3.248      6.781
REMARK  Name = 
REMARK  7 active torsions:
REMARK  status: ('A' for Active; 'I' for Inactive)
REMARK    1  A    between atoms: C_1  and  N_2
REMARK    2  A    between atoms: N_2  and  C_3
REMARK    3  A    between atoms: N_2  and  C_4
REMARK    4  A    between atoms: C_5  and  C_6
REMARK    5  A    between atoms: C_5  and  S_16
REMARK    6  A    between atoms: C_6  and  C_8
REMARK    7  A    between atoms: S_16  and  C_19
REMARK                            x       y       z     vdW  Elec       q    Type
REMARK                         _______ _______ _______ _____ _____    ______ ____
ROOT
ATOM      1  C   UNL     1       1.706   4.711  19.294  0.00  0.00    +0.000 C 
ATOM      2  C   UNL     1       2.752   5.352  18.719  0.00  0.00    +0.000 C 
ENDROOT
BRANCH   1   4
ATOM      3  C   UNL     1       0.846   2.434  18.759  0.00  0.00    +0.000 C 
ATOM      4  N   UNL     1       1.406   3.408  19.712  0.00  0.00    +0.000 N 
ATOM      5  C   UNL     1       1.359   2.957  21.110  0.00  0.00    +0.000 C 
ENDBRANCH   1   4
BRANCH   2   6
ATOM      6  S   UNL     1       4.096   4.442  18.097  0.00  0.00    +0.000 S 
ATOM      7  O   UNL     1       4.314   3.290  18.962  0.00  0.00    +0.000 OA
ATOM      8  O   UNL     1       3.917   4.227  16.672  0.00  0.00    +0.000 OA
BRANCH   6   9
ATOM      9  C   UNL     1       5.601   5.379  18.243  0.00  0.00    +0.000 A 
ATOM     10  C   UNL     1       6.399   5.239  19.383  0.00  0.00    +0.000 A 
ATOM     11  C   UNL     1       7.606   5.931  19.465  0.00  0.00    +0.000 A 
ATOM     12  C   UNL     1       8.011   6.752  18.410  0.00  0.00    +0.000 A 
ATOM     13  C   UNL     1       7.227   6.864  17.261  0.00  0.00    +0.000 A 
ATOM     14  C   UNL     1       6.031   6.159  17.164  0.00  0.00    +0.000 A 
ENDBRANCH   6   9
ENDBRANCH   2   6
BRANCH   2  15
ATOM     15  C   UNL     1       2.731   6.845  18.562  0.00  0.00    +0.000 C 
ATOM     16  O   UNL     1       3.380   7.379  17.671  0.00  0.00    +0.000 OA
BRANCH  15  17
ATOM     17  C   UNL     1       1.968   7.729  19.507  0.00  0.00    +0.000 A 
ATOM     18  C   UNL     1       1.745   7.308  20.833  0.00  0.00    +0.000 A 
ATOM     19  C   UNL     1       1.031   8.104  21.733  0.00  0.00    +0.000 A 
ATOM     20  C   UNL     1       0.583   9.361  21.347  0.00  0.00    +0.000 A 
ATOM     21 CL   UNL     1      -0.269  10.345  22.467  0.00  0.00    +0.000 Cl
ATOM     22  C   UNL     1       0.833   9.825  20.060  0.00  0.00    +0.000 A 
ATOM     23  C   UNL     1       1.513   9.012  19.135  0.00  0.00    +0.000 A 
ATOM     24 CL   UNL     1       1.703   9.701  17.559  0.00  0.00    +0.000 Cl
ENDBRANCH  15  17
ENDBRANCH   2  15
TORSDOF 5
ENDMDL
MODEL 6
REMARK VINA RESULT:      -6.5      2.464      5.980
REMARK  Name = 
REMARK  7 active torsions:
REMARK  status: ('A' for Active; 'I' for Inactive)
REMARK    1  A    between atoms: C_1  and  N_2
REMARK    2  A    between atoms: N_2  and  C_3
REMARK    3  A    between atoms: N_2  and  C_4
REMARK    4  A    between atoms: C_5  and  C_6
REMARK    5  A    between atoms: C_5  and  S_16
REMARK    6  A    between atoms: C_6  and  C_8
REMARK    7  A    between atoms: S_16  and  C_19
REMARK                            x       y       z     vdW  Elec       q    Type
REMARK                         _______ _______ _______ _____ _____    ______ ____
ROOT
ATOM      1  C   UNL     1       2.144   4.190  19.984  0.00  0.00    +0.000 C 
ATOM      2  C   UNL     1       3.348   4.486  19.438  0.00  0.00    +0.000 C 
ENDROOT
BRANCH   1   4
ATOM      3  C   UNL     1       0.463   2.483  19.296  0.00  0.00    +0.000 C 
ATOM      4  N   UNL     1       1.410   3.033  20.281  0.00  0.00    +0.000 N 
ATOM      5  C   UNL     1       1.295   2.423  21.612  0.00  0.00    +0.000 C 
ENDBRANCH   1   4
BRANCH   2   6
ATOM      6  S   UNL     1       4.294   3.239  18.683  0.00  0.00    +0.000 S 
ATOM      7  O   UNL     1       5.283   2.764  19.643  0.00  0.00    +0.000 OA
ATOM      8  O   UNL     1       3.409   2.276  18.052  0.00  0.00    +0.000 OA
BRANCH   6   9
ATOM      9  C   UNL     1       5.270   3.914  17.359  0.00  0.00    +0.000 A 
ATOM     10  C   UNL     1       6.598   4.285  17.594  0.00  0.00    +0.000 A 
ATOM     11  C   UNL     1       7.375   4.759  16.538  0.00  0.00    +0.000 A 
ATOM     12  C   UNL     1       6.827   4.854  15.258  0.00  0.00    +0.000 A 
ATOM     13  C   UNL     1       5.511   4.454  15.022  0.00  0.00    +0.000 A 
ATOM     14  C   UNL     1       4.736   3.960  16.067  0.00  0.00    +0.000 A 
ENDBRANCH   6   9
ENDBRANCH   2   6
BRANCH   2  15
ATOM     15  C   UNL     1       3.847   5.903  19.430  0.00  0.00    +0.000 C 
ATOM     16  O   UNL     1       5.020   6.143  19.685  0.00  0.00    +0.000 OA
BRANCH  15  17
ATOM     17  C   UNL     1       2.930   7.062  19.165  0.00  0.00    +0.000 A 
ATOM     18  C   UNL     1       2.055   7.508  20.175  0.00  0.00    +0.000 A 
ATOM     19  C   UNL     1       1.183   8.578  19.956  0.00  0.00    +0.000 A 
ATOM     20  C   UNL     1       1.215   9.264  18.748  0.00  0.00    +0.000 A 
ATOM     21 CL   UNL     1       0.160  10.597  18.495  0.00  0.00    +0.000 Cl
ATOM     22  C   UNL     1       2.104   8.879  17.750  0.00  0.00    +0.000 A 
ATOM     23  C   UNL     1       2.953   7.777  17.948  0.00  0.00    +0.000 A 
ATOM     24 CL   UNL     1       3.965   7.383  16.600  0.00  0.00    +0.000 Cl
ENDBRANCH  15  17
ENDBRANCH   2  15
TORSDOF 5
ENDMDL
MODEL 7
REMARK VINA RESULT:      -6.4      3.164      6.638
REMARK  Name = 
REMARK  7 active torsions:
REMARK  status: ('A' for Active; 'I' for Inactive)
REMARK    1  A    between atoms: C_1  and  N_2
REMARK    2  A    between atoms: N_2  and  C_3
REMARK    3  A    between atoms: N_2  and  C_4
REMARK    4  A    between atoms: C_5  and  C_6
REMARK    5  A    between atoms: C_5  and  S_16
REMARK    6  A    between atoms: C_6  and  C_8
REMARK    7  A    between atoms: S_16  and  C_19
REMARK                            x       y       z     vdW  Elec       q    Type
REMARK                         _______ _______ _______ _____ _____    ______ ____
ROOT
ATOM      1  C   UNL     1       1.810   4.942  18.804  0.00  0.00    +0.000 C 
ATOM      2  C   UNL     1       3.022   5.527  18.643  0.00  0.00    +0.000 C 
ENDROOT
BRANCH   1   4
ATOM      3  C   UNL     1       1.215   3.502  20.750  0.00  0.00    +0.000 C 
ATOM      4  N   UNL     1       1.316   3.726  19.298  0.00  0.00    +0.000 N 
ATOM      5  C   UNL     1       1.107   2.511  18.499  0.00  0.00    +0.000 C 
ENDBRANCH   1   4
BRANCH   2   6
ATOM      6  S   UNL     1       4.474   4.605  18.889  0.00  0.00    +0.000 S 
ATOM      7  O   UNL     1       5.353   5.356  19.776  0.00  0.00    +0.000 OA
ATOM      8  O   UNL     1       4.127   3.238  19.234  0.00  0.00    +0.000 OA
BRANCH   6   9
ATOM      9  C   UNL     1       5.397   4.483  17.373  0.00  0.00    +0.000 A 
ATOM     10  C   UNL     1       4.736   4.166  16.181  0.00  0.00    +0.000 A 
ATOM     11  C   UNL     1       5.456   4.129  14.988  0.00  0.00    +0.000 A 
ATOM     12  C   UNL     1       6.822   4.414  14.989  0.00  0.00    +0.000 A 
ATOM     13  C   UNL     1       7.471   4.761  16.175  0.00  0.00    +0.000 A 
ATOM     14  C   UNL     1       6.755   4.820  17.367  0.00  0.00    +0.000 A 
ENDBRANCH   6   9
ENDBRANCH   2   6
BRANCH   2  15
ATOM     15  C   UNL     1       3.117   6.957  18.194  0.00  0.00    +0.000 C 
ATOM     16  O   UNL     1       4.038   7.314  17.470  0.00  0.00    +0.000 OA
BRANCH  15  17
ATOM     17  C   UNL     1       2.134   7.996  18.651  0.00  0.00    +0.000 A 
ATOM     18  C   UNL     1       1.596   8.908  17.722  0.00  0.00    +0.000 A 
ATOM     19  C   UNL     1       0.686   9.892  18.117  0.00  0.00    +0.000 A 
ATOM     20  C   UNL     1       0.248   9.944  19.435  0.00  0.00    +0.000 A 
ATOM     21 CL   UNL     1      -0.892  11.138  19.909  0.00  0.00    +0.000 Cl
ATOM     22  C   UNL     1       0.723   9.025  20.364  0.00  0.00    +0.000 A 
ATOM     23  C   UNL     1       1.671   8.060  19.983  0.00  0.00    +0.000 A 
ATOM     24 CL   UNL     1       2.209   7.020  21.258  0.00  0.00    +0.000 Cl
ENDBRANCH  15  17
ENDBRANCH   2  15
TORSDOF 5
ENDMDL
MODEL 8
REMARK VINA RESULT:      -6.3      3.108      5.954
REMARK  Name = 
REMARK  7 active torsions:
REMARK  status: ('A' for Active; 'I' for Inactive)
REMARK    1  A    between atoms: C_1  and  N_2
REMARK    2  A    between atoms: N_2  and  C_3
REMARK    3  A    between atoms: N_2  and  C_4
REMARK    4  A    between atoms: C_5  and  C_6
REMARK    5  A    between atoms: C_5  and  S_16
REMARK    6  A    between atoms: C_6  and  C_8
REMARK    7  A    between atoms: S_16  and  C_19
REMARK                            x       y       z     vdW  Elec       q    Type
REMARK                         _______ _______ _______ _____ _____    ______ ____
ROOT
ATOM      1  C   UNL     1       4.771   6.334  18.294  0.00  0.00    +0.000 C 
ATOM      2  C   UNL     1       3.443   6.290  18.030  0.00  0.00    +0.000 C 
ENDROOT
BRANCH   1   4
ATOM      3  C   UNL     1       6.696   5.273  19.470  0.00  0.00    +0.000 C 
ATOM      4  N   UNL     1       5.851   5.439  18.276  0.00  0.00    +0.000 N 
ATOM      5  C   UNL     1       6.402   4.804  17.071  0.00  0.00    +0.000 C 
ENDBRANCH   1   4
BRANCH   2   6
ATOM      6  S   UNL     1       2.659   4.763  17.757  0.00  0.00    +0.000 S 
ATOM      7  O   UNL     1       1.271   5.015  17.391  0.00  0.00    +0.000 OA
ATOM      8  O   UNL     1       3.480   3.948  16.879  0.00  0.00    +0.000 OA
BRANCH   6   9
ATOM      9  C   UNL     1       2.543   3.844  19.274  0.00  0.00    +0.000 A 
ATOM     10  C   UNL     1       3.659   3.149  19.753  0.00  0.00    +0.000 A 
ATOM     11  C   UNL     1       3.578   2.479  20.972  0.00  0.00    +0.000 A 
ATOM     12  C   UNL     1       2.392   2.510  21.707  0.00  0.00    +0.000 A 
ATOM     13  C   UNL     1       1.291   3.230  21.241  0.00  0.00    +0.000 A 
ATOM     14  C   UNL     1       1.371   3.920  20.035  0.00  0.00    +0.000 A 
ENDBRANCH   6   9
ENDBRANCH   2   6
BRANCH   2  15
ATOM     15  C   UNL     1       2.630   7.552  18.029  0.00  0.00    +0.000 C 
ATOM     16  O   UNL     1       2.565   8.241  17.018  0.00  0.00    +0.000 OA
BRANCH  15  17
ATOM     17  C   UNL     1       1.920   8.037  19.261  0.00  0.00    +0.000 A 
ATOM     18  C   UNL     1       1.825   7.198  20.389  0.00  0.00    +0.000 A 
ATOM     19  C   UNL     1       1.164   7.616  21.547  0.00  0.00    +0.000 A 
ATOM     20  C   UNL     1       0.641   8.902  21.624  0.00  0.00    +0.000 A 
ATOM     21 CL   UNL     1      -0.146   9.419  23.060  0.00  0.00    +0.000 Cl
ATOM     22  C   UNL     1       0.764   9.770  20.544  0.00  0.00    +0.000 A 
ATOM     23  C   UNL     1       1.391   9.341  19.361  0.00  0.00    +0.000 A 
ATOM     24 CL   UNL     1       1.422  10.511  18.085  0.00  0.00    +0.000 Cl
ENDBRANCH  15  17
ENDBRANCH   2  15
TORSDOF 5
ENDMDL
MODEL 9
REMARK VINA RESULT:      -6.3      2.750      5.675
REMARK  Name = 
REMARK  7 active torsions:
REMARK  status: ('A' for Active; 'I' for Inactive)
REMARK    1  A    between atoms: C_1  and  N_2
REMARK    2  A    between atoms: N_2  and  C_3
REMARK    3  A    between atoms: N_2  and  C_4
REMARK    4  A    between atoms: C_5  and  C_6
REMARK    5  A    between atoms: C_5  and  S_16
REMARK    6  A    between atoms: C_6  and  C_8
REMARK    7  A    between atoms: S_16  and  C_19
REMARK                            x       y       z     vdW  Elec       q    Type
REMARK                         _______ _______ _______ _____ _____    ______ ____
ROOT
ATOM      1  C   UNL     1       4.956   6.631  17.460  0.00  0.00    +0.000 C 
ATOM      2  C   UNL     1       4.004   5.774  17.901  0.00  0.00    +0.000 C 
ENDROOT
BRANCH   1   4
ATOM      3  C   UNL     1       7.221   7.668  17.538  0.00  0.00    +0.000 C 
ATOM      4  N   UNL     1       6.320   6.573  17.141  0.00  0.00    +0.000 N 
ATOM      5  C   UNL     1       6.930   5.618  16.206  0.00  0.00    +0.000 C 
ENDBRANCH   1   4
BRANCH   2   6
ATOM      6  S   UNL     1       4.447   4.183  18.443  0.00  0.00    +0.000 S 
ATOM      7  O   UNL     1       4.509   3.301  17.285  0.00  0.00    +0.000 OA
ATOM      8  O   UNL     1       5.601   4.275  19.320  0.00  0.00    +0.000 OA
BRANCH   6   9
ATOM      9  C   UNL     1       3.154   3.486  19.445  0.00  0.00    +0.000 A 
ATOM     10  C   UNL     1       3.267   3.508  20.840  0.00  0.00    +0.000 A 
ATOM     11  C   UNL     1       2.224   3.013  21.620  0.00  0.00    +0.000 A 
ATOM     12  C   UNL     1       1.076   2.506  21.009  0.00  0.00    +0.000 A 
ATOM     13  C   UNL     1       0.954   2.513  19.618  0.00  0.00    +0.000 A 
ATOM     14  C   UNL     1       1.983   3.026  18.833  0.00  0.00    +0.000 A 
ENDBRANCH   6   9
ENDBRANCH   2   6
BRANCH   2  15
ATOM     15  C   UNL     1       2.569   6.212  17.980  0.00  0.00    +0.000 C 
ATOM     16  O   UNL     1       1.781   5.897  17.097  0.00  0.00    +0.000 OA
BRANCH  15  17
ATOM     17  C   UNL     1       2.068   7.081  19.097  0.00  0.00    +0.000 A 
ATOM     18  C   UNL     1       1.852   6.526  20.374  0.00  0.00    +0.000 A 
ATOM     19  C   UNL     1       1.378   7.306  21.431  0.00  0.00    +0.000 A 
ATOM     20  C   UNL     1       1.173   8.669  21.252  0.00  0.00    +0.000 A 
ATOM     21 CL   UNL     1       0.617   9.628  22.564  0.00  0.00    +0.000 Cl
ATOM     22  C   UNL     1       1.426   9.255  20.017  0.00  0.00    +0.000 A 
ATOM     23  C   UNL     1       1.862   8.468  18.937  0.00  0.00    +0.000 A 
ATOM     24 CL   UNL     1       2.085   9.326  17.450  0.00  0.00    +0.000 Cl
ENDBRANCH  15  17
ENDBRANCH   2  15
TORSDOF 5
ENDMDL
