MODEL 1
REMARK VINA RESULT:      -7.3      0.000      0.000
REMARK  Name = 
REMARK  15 active torsions:
REMARK  status: ('A' for Active; 'I' for Inactive)
REMARK    1  A    between atoms: C_1  and  C_2
REMARK    2  A    between atoms: C_2  and  O_3
REMARK    3  A    between atoms: C_2  and  C_4
REMARK    4  A    between atoms: N_8  and  C_9
REMARK    5  A    between atoms: C_9  and  C_10
REMARK    6  A    between atoms: C_12  and  C_13
REMARK    7  A    between atoms: C_14  and  C_15
REMARK    8  A    between atoms: C_18  and  O_19
REMARK    9  A    between atoms: O_19  and  C_20
REMARK   10  A    between atoms: C_20  and  C_21
REMARK   11  A    between atoms: C_21  and  C_22
REMARK   12  A    between atoms: C_22  and  N_23
REMARK   13  A    between atoms: N_23  and  C_24
REMARK   14  A    between atoms: C_24  and  C_25
REMARK   15  A    between atoms: C_25  and  N_26
REMARK                            x       y       z     vdW  Elec       q    Type
REMARK                         _______ _______ _______ _____ _____    ______ ____
ROOT
ATOM      1  C   UNL     1       8.105   8.611  17.922  0.00  0.00    +0.000 C 
ATOM      2  C   UNL     1       8.719   9.536  18.378  0.00  0.00    +0.000 C 
ENDROOT
BRANCH   2   3
ATOM      3  C   UNL     1       9.441  10.674  18.865  0.00  0.00    +0.000 A 
ATOM      4  C   UNL     1       9.631  10.808  20.236  0.00  0.00    +0.000 A 
ATOM      5  C   UNL     1      10.229  11.954  20.752  0.00  0.00    +0.000 A 
ATOM      6  C   UNL     1      10.658  12.988  19.912  0.00  0.00    +0.000 A 
ATOM      7  C   UNL     1      10.522  12.826  18.530  0.00  0.00    +0.000 A 
ATOM      8  C   UNL     1       9.916  11.671  18.007  0.00  0.00    +0.000 A 
BRANCH   6   9
ATOM      9  O   UNL     1      11.197  14.182  20.347  0.00  0.00    +0.000 OA
BRANCH   9  10
ATOM     10  C   UNL     1      10.399  14.853  21.327  0.00  0.00    +0.000 C 
BRANCH  10  11
ATOM     11  C   UNL     1       9.024  15.254  20.802  0.00  0.00    +0.000 C 
BRANCH  11  12
ATOM     12  C   UNL     1       8.124  15.564  22.006  0.00  0.00    +0.000 C 
BRANCH  12  13
ATOM     13  N   UNL     1       8.528  14.800  23.182  0.00  0.00    +0.000 NA
ATOM     14  H   UNL     1       8.329  15.353  24.016  0.00  0.00    +0.000 HD
BRANCH  13  15
ATOM     15  C   UNL     1       7.748  13.553  23.281  0.00  0.00    +0.000 C 
BRANCH  15  16
ATOM     16  C   UNL     1       8.506  12.486  24.092  0.00  0.00    +0.000 C 
BRANCH  16  17
ATOM     17  N   UNL     1       8.206  11.127  23.628  0.00  0.00    +0.000 NA
ATOM     18  H   UNL     1       7.711  10.642  24.375  0.00  0.00    +0.000 HD
ATOM     19  H   UNL     1       9.086  10.622  23.517  0.00  0.00    +0.000 HD
ENDBRANCH  16  17
ENDBRANCH  15  16
ENDBRANCH  13  15
ENDBRANCH  12  13
ENDBRANCH  11  12
ENDBRANCH  10  11
ENDBRANCH   9  10
ENDBRANCH   6   9
ENDBRANCH   2   3
BRANCH   1  22
ATOM     20  C   UNL     1       5.981   5.985  16.719  0.00  0.00    +0.000 A 
ATOM     21  C   UNL     1       6.232   6.907  17.766  0.00  0.00    +0.000 A 
ATOM     22  C   UNL     1       7.429   7.471  17.426  0.00  0.00    +0.000 A 
ATOM     23  O   UNL     1       7.956   6.827  16.356  0.00  0.00    +0.000 OA
ATOM     24  N   UNL     1       7.047   5.873  15.910  0.00  0.00    +0.000 NA
BRANCH  20  25
ATOM     25  C   UNL     1       4.747   5.192  16.456  0.00  0.00    +0.000 C 
BRANCH  25  30
ATOM     26  C   UNL     1       3.630   4.168  18.518  0.00  0.00    +0.000 A 
ATOM     27  N   UNL     1       2.798   4.573  19.465  0.00  0.00    +0.000 NA
ATOM     28  C   UNL     1       2.503   5.873  19.181  0.00  0.00    +0.000 A 
ATOM     29  C   UNL     1       3.146   6.275  18.039  0.00  0.00    +0.000 A 
ATOM     30  N   UNL     1       3.855   5.178  17.608  0.00  0.00    +0.000 N 
BRANCH  26  32
ATOM     31  C   UNL     1       3.157   1.728  18.670  0.00  0.00    +0.000 C 
ATOM     32  C   UNL     1       4.228   2.793  18.505  0.00  0.00    +0.000 C 
BRANCH  32  33
ATOM     33  O   UNL     1       5.086   2.728  19.650  0.00  0.00    +0.000 OA
ATOM     34  H   UNL     1       4.548   3.101  20.379  0.00  0.00    +0.000 HD
ENDBRANCH  32  33
ENDBRANCH  26  32
ENDBRANCH  25  30
ENDBRANCH  20  25
ENDBRANCH   1  22
TORSDOF 14
ENDMDL
MODEL 2
REMARK VINA RESULT:      -7.2      2.328      2.688
REMARK  Name = 
REMARK  15 active torsions:
REMARK  status: ('A' for Active; 'I' for Inactive)
REMARK    1  A    between atoms: C_1  and  C_2
REMARK    2  A    between atoms: C_2  and  O_3
REMARK    3  A    between atoms: C_2  and  C_4
REMARK    4  A    between atoms: N_8  and  C_9
REMARK    5  A    between atoms: C_9  and  C_10
REMARK    6  A    between atoms: C_12  and  C_13
REMARK    7  A    between atoms: C_14  and  C_15
REMARK    8  A    between atoms: C_18  and  O_19
REMARK    9  A    between atoms: O_19  and  C_20
REMARK   10  A    between atoms: C_20  and  C_21
REMARK   11  A    between atoms: C_21  and  C_22
REMARK   12  A    between atoms: C_22  and  N_23
REMARK   13  A    between atoms: N_23  and  C_24
REMARK   14  A    between atoms: C_24  and  C_25
REMARK   15  A    between atoms: C_25  and  N_26
REMARK                            x       y       z     vdW  Elec       q    Type
REMARK                         _______ _______ _______ _____ _____    ______ ____
ROOT
ATOM      1  C   UNL     1       7.926   8.520  17.824  0.00  0.00    +0.000 C 
ATOM      2  C   UNL     1       8.495   9.526  18.147  0.00  0.00    +0.000 C 
ENDROOT
BRANCH   2   3
ATOM      3  C   UNL     1       9.145  10.723  18.593  0.00  0.00    +0.000 A 
ATOM      4  C   UNL     1       9.858  10.690  19.787  0.00  0.00    +0.000 A 
ATOM      5  C   UNL     1      10.407  11.859  20.307  0.00  0.00    +0.000 A 
ATOM      6  C   UNL     1      10.263  13.083  19.646  0.00  0.00    +0.000 A 
ATOM      7  C   UNL     1       9.598  13.104  18.417  0.00  0.00    +0.000 A 
ATOM      8  C   UNL     1       9.041  11.927  17.890  0.00  0.00    +0.000 A 
BRANCH   6   9
ATOM      9  O   UNL     1      10.717  14.294  20.127  0.00  0.00    +0.000 OA
BRANCH   9  10
ATOM     10  C   UNL     1      10.607  15.368  19.187  0.00  0.00    +0.000 C 
BRANCH  10  11
ATOM     11  C   UNL     1       9.681  16.482  19.663  0.00  0.00    +0.000 C 
BRANCH  11  12
ATOM     12  C   UNL     1       9.419  17.425  18.480  0.00  0.00    +0.000 C 
BRANCH  12  13
ATOM     13  N   UNL     1       8.022  17.848  18.438  0.00  0.00    +0.000 NA
ATOM     14  H   UNL     1       7.772  18.055  17.471  0.00  0.00    +0.000 HD
BRANCH  13  15
ATOM     15  C   UNL     1       7.140  16.761  18.900  0.00  0.00    +0.000 C 
BRANCH  15  16
ATOM     16  C   UNL     1       5.830  17.319  19.484  0.00  0.00    +0.000 C 
BRANCH  16  17
ATOM     17  N   UNL     1       4.684  17.071  18.601  0.00  0.00    +0.000 NA
ATOM     18  H   UNL     1       5.019  17.094  17.639  0.00  0.00    +0.000 HD
ATOM     19  H   UNL     1       4.039  17.858  18.680  0.00  0.00    +0.000 HD
ENDBRANCH  16  17
ENDBRANCH  15  16
ENDBRANCH  13  15
ENDBRANCH  12  13
ENDBRANCH  11  12
ENDBRANCH  10  11
ENDBRANCH   9  10
ENDBRANCH   6   9
ENDBRANCH   2   3
BRANCH   1  22
ATOM     20  C   UNL     1       5.803   5.846  16.726  0.00  0.00    +0.000 A 
ATOM     21  C   UNL     1       6.065   6.797  17.744  0.00  0.00    +0.000 A 
ATOM     22  C   UNL     1       7.251   7.362  17.369  0.00  0.00    +0.000 A 
ATOM     23  O   UNL     1       7.765   6.695  16.308  0.00  0.00    +0.000 OA
ATOM     24  N   UNL     1       6.856   5.722  15.902  0.00  0.00    +0.000 NA
BRANCH  20  25
ATOM     25  C   UNL     1       4.571   5.038  16.506  0.00  0.00    +0.000 C 
BRANCH  25  30
ATOM     26  C   UNL     1       3.677   3.966  18.650  0.00  0.00    +0.000 A 
ATOM     27  N   UNL     1       2.857   4.311  19.631  0.00  0.00    +0.000 NA
ATOM     28  C   UNL     1       2.413   5.564  19.332  0.00  0.00    +0.000 A 
ATOM     29  C   UNL     1       2.949   5.995  18.147  0.00  0.00    +0.000 A 
ATOM     30  N   UNL     1       3.746   4.966  17.704  0.00  0.00    +0.000 N 
BRANCH  26  32
ATOM     31  C   UNL     1       3.461   1.493  18.457  0.00  0.00    +0.000 C 
ATOM     32  C   UNL     1       4.415   2.661  18.638  0.00  0.00    +0.000 C 
BRANCH  32  33
ATOM     33  O   UNL     1       5.013   2.537  19.934  0.00  0.00    +0.000 OA
ATOM     34  H   UNL     1       5.975   2.624  19.768  0.00  0.00    +0.000 HD
ENDBRANCH  32  33
ENDBRANCH  26  32
ENDBRANCH  25  30
ENDBRANCH  20  25
ENDBRANCH   1  22
TORSDOF 14
ENDMDL
MODEL 3
REMARK VINA RESULT:      -7.2      6.914     10.913
REMARK  Name = 
REMARK  15 active torsions:
REMARK  status: ('A' for Active; 'I' for Inactive)
REMARK    1  A    between atoms: C_1  and  C_2
REMARK    2  A    between atoms: C_2  and  O_3
REMARK    3  A    between atoms: C_2  and  C_4
REMARK    4  A    between atoms: N_8  and  C_9
REMARK    5  A    between atoms: C_9  and  C_10
REMARK    6  A    between atoms: C_12  and  C_13
REMARK    7  A    between atoms: C_14  and  C_15
REMARK    8  A    between atoms: C_18  and  O_19
REMARK    9  A    between atoms: O_19  and  C_20
REMARK   10  A    between atoms: C_20  and  C_21
REMARK   11  A    between atoms: C_21  and  C_22
REMARK   12  A    between atoms: C_22  and  N_23
REMARK   13  A    between atoms: N_23  and  C_24
REMARK   14  A    between atoms: C_24  and  C_25
REMARK   15  A    between atoms: C_25  and  N_26
REMARK                            x       y       z     vdW  Elec       q    Type
REMARK                         _______ _______ _______ _____ _____    ______ ____
ROOT
ATOM      1  C   UNL     1       1.090   8.717  21.091  0.00  0.00    +0.000 C 
ATOM      2  C   UNL     1       1.569   7.786  20.505  0.00  0.00    +0.000 C 
ENDROOT
BRANCH   2   3
ATOM      3  C   UNL     1       2.175   6.718  19.766  0.00  0.00    +0.000 A 
ATOM      4  C   UNL     1       2.179   5.442  20.320  0.00  0.00    +0.000 A 
ATOM      5  C   UNL     1       2.855   4.405  19.683  0.00  0.00    +0.000 A 
ATOM      6  C   UNL     1       3.534   4.614  18.478  0.00  0.00    +0.000 A 
ATOM      7  C   UNL     1       3.478   5.882  17.892  0.00  0.00    +0.000 A 
ATOM      8  C   UNL     1       2.799   6.932  18.533  0.00  0.00    +0.000 A 
BRANCH   6   9
ATOM      9  O   UNL     1       4.282   3.659  17.820  0.00  0.00    +0.000 OA
BRANCH   9  10
ATOM     10  C   UNL     1       4.577   3.991  16.460  0.00  0.00    +0.000 C 
BRANCH  10  11
ATOM     11  C   UNL     1       6.067   3.933  16.143  0.00  0.00    +0.000 C 
BRANCH  11  12
ATOM     12  C   UNL     1       6.498   5.306  15.609  0.00  0.00    +0.000 C 
BRANCH  12  13
ATOM     13  N   UNL     1       7.331   6.014  16.576  0.00  0.00    +0.000 NA
ATOM     14  H   UNL     1       6.847   6.865  16.865  0.00  0.00    +0.000 HD
BRANCH  13  15
ATOM     15  C   UNL     1       7.536   5.191  17.781  0.00  0.00    +0.000 C 
BRANCH  15  16
ATOM     16  C   UNL     1       7.500   6.053  19.056  0.00  0.00    +0.000 C 
BRANCH  16  17
ATOM     17  N   UNL     1       8.002   5.325  20.228  0.00  0.00    +0.000 NA
ATOM     18  H   UNL     1       7.275   4.678  20.529  0.00  0.00    +0.000 HD
ATOM     19  H   UNL     1       8.110   5.986  20.997  0.00  0.00    +0.000 HD
ENDBRANCH  16  17
ENDBRANCH  15  16
ENDBRANCH  13  15
ENDBRANCH  12  13
ENDBRANCH  11  12
ENDBRANCH  10  11
ENDBRANCH   9  10
ENDBRANCH   6   9
ENDBRANCH   2   3
BRANCH   1  22
ATOM     20  C   UNL     1      -0.652  11.554  22.426  0.00  0.00    +0.000 A 
ATOM     21  C   UNL     1       0.324  11.100  21.502  0.00  0.00    +0.000 A 
ATOM     22  C   UNL     1       0.459   9.772  21.792  0.00  0.00    +0.000 A 
ATOM     23  O   UNL     1      -0.241   9.470  22.913  0.00  0.00    +0.000 OA
ATOM     24  N   UNL     1      -0.939  10.601  23.328  0.00  0.00    +0.000 NA
BRANCH  20  25
ATOM     25  C   UNL     1      -1.329  12.879  22.486  0.00  0.00    +0.000 C 
BRANCH  25  30
ATOM     26  C   UNL     1      -3.875  13.058  22.668  0.00  0.00    +0.000 A 
ATOM     27  N   UNL     1      -4.909  12.962  21.847  0.00  0.00    +0.000 NA
ATOM     28  C   UNL     1      -4.394  12.679  20.617  0.00  0.00    +0.000 A 
ATOM     29  C   UNL     1      -3.028  12.584  20.678  0.00  0.00    +0.000 A 
ATOM     30  N   UNL     1      -2.698  12.812  21.993  0.00  0.00    +0.000 N 
BRANCH  26  32
ATOM     31  C   UNL     1      -4.686  12.281  24.890  0.00  0.00    +0.000 C 
ATOM     32  C   UNL     1      -4.027  13.411  24.117  0.00  0.00    +0.000 C 
BRANCH  32  33
ATOM     33  O   UNL     1      -4.911  14.538  24.156  0.00  0.00    +0.000 OA
ATOM     34  H   UNL     1      -4.764  14.931  25.042  0.00  0.00    +0.000 HD
ENDBRANCH  32  33
ENDBRANCH  26  32
ENDBRANCH  25  30
ENDBRANCH  20  25
ENDBRANCH   1  22
TORSDOF 14
ENDMDL
MODEL 4
REMARK VINA RESULT:      -7.2      2.041      2.636
REMARK  Name = 
REMARK  15 active torsions:
REMARK  status: ('A' for Active; 'I' for Inactive)
REMARK    1  A    between atoms: C_1  and  C_2
REMARK    2  A    between atoms: C_2  and  O_3
REMARK    3  A    between atoms: C_2  and  C_4
REMARK    4  A    between atoms: N_8  and  C_9
REMARK    5  A    between atoms: C_9  and  C_10
REMARK    6  A    between atoms: C_12  and  C_13
REMARK    7  A    between atoms: C_14  and  C_15
REMARK    8  A    between atoms: C_18  and  O_19
REMARK    9  A    between atoms: O_19  and  C_20
REMARK   10  A    between atoms: C_20  and  C_21
REMARK   11  A    between atoms: C_21  and  C_22
REMARK   12  A    between atoms: C_22  and  N_23
REMARK   13  A    between atoms: N_23  and  C_24
REMARK   14  A    between atoms: C_24  and  C_25
REMARK   15  A    between atoms: C_25  and  N_26
REMARK                            x       y       z     vdW  Elec       q    Type
REMARK                         _______ _______ _______ _____ _____    ______ ____
ROOT
ATOM      1  C   UNL     1       8.431   8.853  18.144  0.00  0.00    +0.000 C 
ATOM      2  C   UNL     1       8.938   9.898  18.444  0.00  0.00    +0.000 C 
ENDROOT
BRANCH   2   3
ATOM      3  C   UNL     1       9.585  11.113  18.844  0.00  0.00    +0.000 A 
ATOM      4  C   UNL     1      10.080  11.961  17.858  0.00  0.00    +0.000 A 
ATOM      5  C   UNL     1      10.812  13.091  18.210  0.00  0.00    +0.000 A 
ATOM      6  C   UNL     1      11.059  13.406  19.551  0.00  0.00    +0.000 A 
ATOM      7  C   UNL     1      10.510  12.586  20.541  0.00  0.00    +0.000 A 
ATOM      8  C   UNL     1       9.773  11.443  20.190  0.00  0.00    +0.000 A 
BRANCH   6   9
ATOM      9  O   UNL     1      11.830  14.467  19.980  0.00  0.00    +0.000 OA
BRANCH   9  10
ATOM     10  C   UNL     1      11.068  15.601  20.404  0.00  0.00    +0.000 C 
BRANCH  10  11
ATOM     11  C   UNL     1      10.765  16.573  19.267  0.00  0.00    +0.000 C 
BRANCH  11  12
ATOM     12  C   UNL     1       9.640  17.511  19.726  0.00  0.00    +0.000 C 
BRANCH  12  13
ATOM     13  N   UNL     1       8.384  17.205  19.050  0.00  0.00    +0.000 NA
ATOM     14  H   UNL     1       8.001  18.067  18.662  0.00  0.00    +0.000 HD
BRANCH  13  15
ATOM     15  C   UNL     1       8.615  16.279  17.926  0.00  0.00    +0.000 C 
BRANCH  15  16
ATOM     16  C   UNL     1       7.558  15.160  17.901  0.00  0.00    +0.000 C 
BRANCH  16  17
ATOM     17  N   UNL     1       7.557  14.375  19.141  0.00  0.00    +0.000 NA
ATOM     18  H   UNL     1       7.450  15.022  19.921  0.00  0.00    +0.000 HD
ATOM     19  H   UNL     1       8.481  13.960  19.260  0.00  0.00    +0.000 HD
ENDBRANCH  16  17
ENDBRANCH  15  16
ENDBRANCH  13  15
ENDBRANCH  12  13
ENDBRANCH  11  12
ENDBRANCH  10  11
ENDBRANCH   9  10
ENDBRANCH   6   9
ENDBRANCH   2   3
BRANCH   1  22
ATOM     20  C   UNL     1       6.656   5.767  17.709  0.00  0.00    +0.000 A 
ATOM     21  C   UNL     1       7.712   6.431  18.382  0.00  0.00    +0.000 A 
ATOM     22  C   UNL     1       7.764   7.658  17.783  0.00  0.00    +0.000 A 
ATOM     23  O   UNL     1       6.931   7.685  16.714  0.00  0.00    +0.000 OA
ATOM     24  N   UNL     1       6.232   6.483  16.654  0.00  0.00    +0.000 NA
BRANCH  20  25
ATOM     25  C   UNL     1       6.026   4.457  18.035  0.00  0.00    +0.000 C 
BRANCH  25  30
ATOM     26  C   UNL     1       3.659   3.739  18.691  0.00  0.00    +0.000 A 
ATOM     27  N   UNL     1       2.667   4.235  19.414  0.00  0.00    +0.000 NA
ATOM     28  C   UNL     1       3.098   5.442  19.875  0.00  0.00    +0.000 A 
ATOM     29  C   UNL     1       4.364   5.706  19.421  0.00  0.00    +0.000 A 
ATOM     30  N   UNL     1       4.716   4.623  18.652  0.00  0.00    +0.000 N 
BRANCH  26  32
ATOM     31  C   UNL     1       2.151   1.914  17.919  0.00  0.00    +0.000 C 
ATOM     32  C   UNL     1       3.589   2.387  18.046  0.00  0.00    +0.000 C 
BRANCH  32  33
ATOM     33  O   UNL     1       4.265   1.492  18.937  0.00  0.00    +0.000 OA
ATOM     34  H   UNL     1       5.061   1.208  18.439  0.00  0.00    +0.000 HD
ENDBRANCH  32  33
ENDBRANCH  26  32
ENDBRANCH  25  30
ENDBRANCH  20  25
ENDBRANCH   1  22
TORSDOF 14
ENDMDL
MODEL 5
REMARK VINA RESULT:      -7.1      1.858      2.658
REMARK  Name = 
REMARK  15 active torsions:
REMARK  status: ('A' for Active; 'I' for Inactive)
REMARK    1  A    between atoms: C_1  and  C_2
REMARK    2  A    between atoms: C_2  and  O_3
REMARK    3  A    between atoms: C_2  and  C_4
REMARK    4  A    between atoms: N_8  and  C_9
REMARK    5  A    between atoms: C_9  and  C_10
REMARK    6  A    between atoms: C_12  and  C_13
REMARK    7  A    between atoms: C_14  and  C_15
REMARK    8  A    between atoms: C_18  and  O_19
REMARK    9  A    between atoms: O_19  and  C_20
REMARK   10  A    between atoms: C_20  and  C_21
REMARK   11  A    between atoms: C_21  and  C_22
REMARK   12  A    between atoms: C_22  and  N_23
REMARK   13  A    between atoms: N_23  and  C_24
REMARK   14  A    between atoms: C_24  and  C_25
REMARK   15  A    between atoms: C_25  and  N_26
REMARK                            x       y       z     vdW  Elec       q    Type
REMARK                         _______ _______ _______ _____ _____    ______ ____
ROOT
ATOM      1  C   UNL     1       7.899   8.124  17.725  0.00  0.00    +0.000 C 
ATOM      2  C   UNL     1       8.356   9.174  18.081  0.00  0.00    +0.000 C 
ENDROOT
BRANCH   2   3
ATOM      3  C   UNL     1       8.934  10.433  18.449  0.00  0.00    +0.000 A 
ATOM      4  C   UNL     1       9.667  10.512  19.628  0.00  0.00    +0.000 A 
ATOM      5  C   UNL     1      10.148  11.740  20.073  0.00  0.00    +0.000 A 
ATOM      6  C   UNL     1       9.917  12.914  19.349  0.00  0.00    +0.000 A 
ATOM      7  C   UNL     1       9.233  12.825  18.132  0.00  0.00    +0.000 A 
ATOM      8  C   UNL     1       8.744  11.587  17.682  0.00  0.00    +0.000 A 
BRANCH   6   9
ATOM      9  O   UNL     1      10.300  14.176  19.753  0.00  0.00    +0.000 OA
BRANCH   9  10
ATOM     10  C   UNL     1      10.367  14.333  21.174  0.00  0.00    +0.000 C 
BRANCH  10  11
ATOM     11  C   UNL     1       9.184  15.108  21.745  0.00  0.00    +0.000 C 
BRANCH  11  12
ATOM     12  C   UNL     1       8.538  15.904  20.603  0.00  0.00    +0.000 C 
BRANCH  12  13
ATOM     13  N   UNL     1       9.325  17.087  20.269  0.00  0.00    +0.000 NA
ATOM     14  H   UNL     1      10.315  16.852  20.338  0.00  0.00    +0.000 HD
BRANCH  13  15
ATOM     15  C   UNL     1       9.065  17.504  18.879  0.00  0.00    +0.000 C 
BRANCH  15  16
ATOM     16  C   UNL     1      10.255  17.162  17.965  0.00  0.00    +0.000 C 
BRANCH  16  17
ATOM     17  N   UNL     1       9.936  16.076  17.030  0.00  0.00    +0.000 NA
ATOM     18  H   UNL     1      10.243  16.362  16.101  0.00  0.00    +0.000 HD
ATOM     19  H   UNL     1       8.922  15.994  16.964  0.00  0.00    +0.000 HD
ENDBRANCH  16  17
ENDBRANCH  15  16
ENDBRANCH  13  15
ENDBRANCH  12  13
ENDBRANCH  11  12
ENDBRANCH  10  11
ENDBRANCH   9  10
ENDBRANCH   6   9
ENDBRANCH   2   3
BRANCH   1  22
ATOM     20  C   UNL     1       6.141   5.060  17.102  0.00  0.00    +0.000 A 
ATOM     21  C   UNL     1       6.589   5.981  18.083  0.00  0.00    +0.000 A 
ATOM     22  C   UNL     1       7.363   6.860  17.380  0.00  0.00    +0.000 A 
ATOM     23  O   UNL     1       7.524   6.419  16.108  0.00  0.00    +0.000 OA
ATOM     24  N   UNL     1       6.760   5.269  15.928  0.00  0.00    +0.000 NA
BRANCH  20  25
ATOM     25  C   UNL     1       5.134   3.972  17.240  0.00  0.00    +0.000 C 
BRANCH  25  30
ATOM     26  C   UNL     1       3.310   3.848  19.030  0.00  0.00    +0.000 A 
ATOM     27  N   UNL     1       2.297   4.603  19.427  0.00  0.00    +0.000 NA
ATOM     28  C   UNL     1       2.292   5.694  18.611  0.00  0.00    +0.000 A 
ATOM     29  C   UNL     1       3.301   5.609  17.687  0.00  0.00    +0.000 A 
ATOM     30  N   UNL     1       3.942   4.421  17.947  0.00  0.00    +0.000 N 
BRANCH  26  32
ATOM     31  C   UNL     1       3.053   2.487  21.099  0.00  0.00    +0.000 C 
ATOM     32  C   UNL     1       3.680   2.569  19.718  0.00  0.00    +0.000 C 
BRANCH  32  33
ATOM     33  O   UNL     1       5.102   2.611  19.887  0.00  0.00    +0.000 OA
ATOM     34  H   UNL     1       5.252   2.239  20.781  0.00  0.00    +0.000 HD
ENDBRANCH  32  33
ENDBRANCH  26  32
ENDBRANCH  25  30
ENDBRANCH  20  25
ENDBRANCH   1  22
TORSDOF 14
ENDMDL
MODEL 6
REMARK VINA RESULT:      -7.0      6.228      9.293
REMARK  Name = 
REMARK  15 active torsions:
REMARK  status: ('A' for Active; 'I' for Inactive)
REMARK    1  A    between atoms: C_1  and  C_2
REMARK    2  A    between atoms: C_2  and  O_3
REMARK    3  A    between atoms: C_2  and  C_4
REMARK    4  A    between atoms: N_8  and  C_9
REMARK    5  A    between atoms: C_9  and  C_10
REMARK    6  A    between atoms: C_12  and  C_13
REMARK    7  A    between atoms: C_14  and  C_15
REMARK    8  A    between atoms: C_18  and  O_19
REMARK    9  A    between atoms: O_19  and  C_20
REMARK   10  A    between atoms: C_20  and  C_21
REMARK   11  A    between atoms: C_21  and  C_22
REMARK   12  A    between atoms: C_22  and  N_23
REMARK   13  A    between atoms: N_23  and  C_24
REMARK   14  A    between atoms: C_24  and  C_25
REMARK   15  A    between atoms: C_25  and  N_26
REMARK                            x       y       z     vdW  Elec       q    Type
REMARK                         _______ _______ _______ _____ _____    ______ ____
ROOT
ATOM      1  C   UNL     1       1.812   7.205  20.389  0.00  0.00    +0.000 C 
ATOM      2  C   UNL     1       1.112   8.108  20.756  0.00  0.00    +0.000 C 
ENDROOT
BRANCH   2   3
ATOM      3  C   UNL     1       0.312   9.189  21.253  0.00  0.00    +0.000 A 
ATOM      4  C   UNL     1      -0.006  10.234  20.392  0.00  0.00    +0.000 A 
ATOM      5  C   UNL     1      -0.685  11.352  20.869  0.00  0.00    +0.000 A 
ATOM      6  C   UNL     1      -1.069  11.448  22.211  0.00  0.00    +0.000 A 
ATOM      7  C   UNL     1      -0.803  10.371  23.061  0.00  0.00    +0.000 A 
ATOM      8  C   UNL     1      -0.115   9.242  22.583  0.00  0.00    +0.000 A 
BRANCH   6   9
ATOM      9  O   UNL     1      -1.683  12.547  22.776  0.00  0.00    +0.000 OA
BRANCH   9  10
ATOM     10  C   UNL     1      -2.777  12.219  23.637  0.00  0.00    +0.000 C 
BRANCH  10  11
ATOM     11  C   UNL     1      -4.107  12.788  23.153  0.00  0.00    +0.000 C 
BRANCH  11  12
ATOM     12  C   UNL     1      -3.814  13.827  22.062  0.00  0.00    +0.000 C 
BRANCH  12  13
ATOM     13  N   UNL     1      -3.757  13.208  20.741  0.00  0.00    +0.000 NA
ATOM     14  H   UNL     1      -3.029  12.494  20.745  0.00  0.00    +0.000 HD
BRANCH  13  15
ATOM     15  C   UNL     1      -5.033  12.539  20.429  0.00  0.00    +0.000 C 
BRANCH  15  16
ATOM     16  C   UNL     1      -5.185  12.310  18.914  0.00  0.00    +0.000 C 
BRANCH  16  17
ATOM     17  N   UNL     1      -3.899  12.017  18.270  0.00  0.00    +0.000 NA
ATOM     18  H   UNL     1      -3.540  11.150  18.668  0.00  0.00    +0.000 HD
ATOM     19  H   UNL     1      -3.229  12.735  18.544  0.00  0.00    +0.000 HD
ENDBRANCH  16  17
ENDBRANCH  15  16
ENDBRANCH  13  15
ENDBRANCH  12  13
ENDBRANCH  11  12
ENDBRANCH  10  11
ENDBRANCH   9  10
ENDBRANCH   6   9
ENDBRANCH   2   3
BRANCH   1  22
ATOM     20  C   UNL     1       4.112   4.750  19.147  0.00  0.00    +0.000 A 
ATOM     21  C   UNL     1       3.514   6.017  18.930  0.00  0.00    +0.000 A 
ATOM     22  C   UNL     1       2.574   6.110  19.917  0.00  0.00    +0.000 A 
ATOM     23  O   UNL     1       2.478   4.929  20.576  0.00  0.00    +0.000 OA
ATOM     24  N   UNL     1       3.444   4.057  20.083  0.00  0.00    +0.000 NA
BRANCH  20  25
ATOM     25  C   UNL     1       5.311   4.164  18.485  0.00  0.00    +0.000 C 
BRANCH  25  30
ATOM     26  C   UNL     1       6.443   5.794  16.870  0.00  0.00    +0.000 A 
ATOM     27  N   UNL     1       7.377   6.730  16.942  0.00  0.00    +0.000 NA
ATOM     28  C   UNL     1       7.795   6.752  18.239  0.00  0.00    +0.000 A 
ATOM     29  C   UNL     1       7.125   5.810  18.976  0.00  0.00    +0.000 A 
ATOM     30  N   UNL     1       6.272   5.188  18.096  0.00  0.00    +0.000 N 
BRANCH  26  32
ATOM     31  C   UNL     1       6.612   4.881  14.560  0.00  0.00    +0.000 C 
ATOM     32  C   UNL     1       5.697   5.495  15.604  0.00  0.00    +0.000 C 
BRANCH  32  33
ATOM     33  O   UNL     1       5.253   6.762  15.103  0.00  0.00    +0.000 OA
ATOM     34  H   UNL     1       4.297   6.632  14.925  0.00  0.00    +0.000 HD
ENDBRANCH  32  33
ENDBRANCH  26  32
ENDBRANCH  25  30
ENDBRANCH  20  25
ENDBRANCH   1  22
TORSDOF 14
ENDMDL
MODEL 7
REMARK VINA RESULT:      -7.0      0.806      1.201
REMARK  Name = 
REMARK  15 active torsions:
REMARK  status: ('A' for Active; 'I' for Inactive)
REMARK    1  A    between atoms: C_1  and  C_2
REMARK    2  A    between atoms: C_2  and  O_3
REMARK    3  A    between atoms: C_2  and  C_4
REMARK    4  A    between atoms: N_8  and  C_9
REMARK    5  A    between atoms: C_9  and  C_10
REMARK    6  A    between atoms: C_12  and  C_13
REMARK    7  A    between atoms: C_14  and  C_15
REMARK    8  A    between atoms: C_18  and  O_19
REMARK    9  A    between atoms: O_19  and  C_20
REMARK   10  A    between atoms: C_20  and  C_21
REMARK   11  A    between atoms: C_21  and  C_22
REMARK   12  A    between atoms: C_22  and  N_23
REMARK   13  A    between atoms: N_23  and  C_24
REMARK   14  A    between atoms: C_24  and  C_25
REMARK   15  A    between atoms: C_25  and  N_26
REMARK                            x       y       z     vdW  Elec       q    Type
REMARK                         _______ _______ _______ _____ _____    ______ ____
ROOT
ATOM      1  C   UNL     1       8.090   8.315  17.897  0.00  0.00    +0.000 C 
ATOM      2  C   UNL     1       8.552   9.334  18.332  0.00  0.00    +0.000 C 
ENDROOT
BRANCH   2   3
ATOM      3  C   UNL     1       9.144  10.553  18.797  0.00  0.00    +0.000 A 
ATOM      4  C   UNL     1       9.086  11.677  17.979  0.00  0.00    +0.000 A 
ATOM      5  C   UNL     1       9.747  12.846  18.348  0.00  0.00    +0.000 A 
ATOM      6  C   UNL     1      10.471  12.922  19.543  0.00  0.00    +0.000 A 
ATOM      7  C   UNL     1      10.477  11.812  20.392  0.00  0.00    +0.000 A 
ATOM      8  C   UNL     1       9.814  10.630  20.022  0.00  0.00    +0.000 A 
BRANCH   6   9
ATOM      9  O   UNL     1      11.206  14.018  19.947  0.00  0.00    +0.000 OA
BRANCH   9  10
ATOM     10  C   UNL     1      10.420  15.191  20.173  0.00  0.00    +0.000 C 
BRANCH  10  11
ATOM     11  C   UNL     1      10.772  15.902  21.475  0.00  0.00    +0.000 C 
BRANCH  11  12
ATOM     12  C   UNL     1       9.572  15.784  22.425  0.00  0.00    +0.000 C 
BRANCH  12  13
ATOM     13  N   UNL     1       9.236  14.387  22.685  0.00  0.00    +0.000 NA
ATOM     14  H   UNL     1      10.101  13.852  22.764  0.00  0.00    +0.000 HD
BRANCH  13  15
ATOM     15  C   UNL     1       8.518  14.259  23.966  0.00  0.00    +0.000 C 
BRANCH  15  16
ATOM     16  C   UNL     1       8.073  12.805  24.210  0.00  0.00    +0.000 C 
BRANCH  16  17
ATOM     17  N   UNL     1       8.834  11.852  23.393  0.00  0.00    +0.000 NA
ATOM     18  H   UNL     1       9.750  12.258  23.211  0.00  0.00    +0.000 HD
ATOM     19  H   UNL     1       8.385  11.780  22.480  0.00  0.00    +0.000 HD
ENDBRANCH  16  17
ENDBRANCH  15  16
ENDBRANCH  13  15
ENDBRANCH  12  13
ENDBRANCH  11  12
ENDBRANCH  10  11
ENDBRANCH   9  10
ENDBRANCH   6   9
ENDBRANCH   2   3
BRANCH   1  22
ATOM     20  C   UNL     1       6.267   5.364  16.986  0.00  0.00    +0.000 A 
ATOM     21  C   UNL     1       6.627   6.247  18.035  0.00  0.00    +0.000 A 
ATOM     22  C   UNL     1       7.537   7.088  17.460  0.00  0.00    +0.000 A 
ATOM     23  O   UNL     1       7.845   6.652  16.214  0.00  0.00    +0.000 OA
ATOM     24  N   UNL     1       7.051   5.550  15.911  0.00  0.00    +0.000 NA
BRANCH  20  25
ATOM     25  C   UNL     1       5.192   4.334  16.967  0.00  0.00    +0.000 C 
BRANCH  25  30
ATOM     26  C   UNL     1       3.182   4.061  18.527  0.00  0.00    +0.000 A 
ATOM     27  N   UNL     1       2.244   4.845  19.036  0.00  0.00    +0.000 NA
ATOM     28  C   UNL     1       2.477   6.091  18.538  0.00  0.00    +0.000 A 
ATOM     29  C   UNL     1       3.561   6.079  17.699  0.00  0.00    +0.000 A 
ATOM     30  N   UNL     1       4.002   4.777  17.681  0.00  0.00    +0.000 N 
BRANCH  26  32
ATOM     31  C   UNL     1       1.937   2.015  19.206  0.00  0.00    +0.000 C 
ATOM     32  C   UNL     1       3.296   2.608  18.877  0.00  0.00    +0.000 C 
BRANCH  32  33
ATOM     33  O   UNL     1       4.094   2.552  20.065  0.00  0.00    +0.000 OA
ATOM     34  H   UNL     1       3.449   2.391  20.785  0.00  0.00    +0.000 HD
ENDBRANCH  32  33
ENDBRANCH  26  32
ENDBRANCH  25  30
ENDBRANCH  20  25
ENDBRANCH   1  22
TORSDOF 14
ENDMDL
MODEL 8
REMARK VINA RESULT:      -7.0      1.552      2.046
REMARK  Name = 
REMARK  15 active torsions:
REMARK  status: ('A' for Active; 'I' for Inactive)
REMARK    1  A    between atoms: C_1  and  C_2
REMARK    2  A    between atoms: C_2  and  O_3
REMARK    3  A    between atoms: C_2  and  C_4
REMARK    4  A    between atoms: N_8  and  C_9
REMARK    5  A    between atoms: C_9  and  C_10
REMARK    6  A    between atoms: C_12  and  C_13
REMARK    7  A    between atoms: C_14  and  C_15
REMARK    8  A    between atoms: C_18  and  O_19
REMARK    9  A    between atoms: O_19  and  C_20
REMARK   10  A    between atoms: C_20  and  C_21
REMARK   11  A    between atoms: C_21  and  C_22
REMARK   12  A    between atoms: C_22  and  N_23
REMARK   13  A    between atoms: N_23  and  C_24
REMARK   14  A    between atoms: C_24  and  C_25
REMARK   15  A    between atoms: C_25  and  N_26
REMARK                            x       y       z     vdW  Elec       q    Type
REMARK                         _______ _______ _______ _____ _____    ______ ____
ROOT
ATOM      1  C   UNL     1       8.099   8.764  17.937  0.00  0.00    +0.000 C 
ATOM      2  C   UNL     1       8.681   9.802  18.096  0.00  0.00    +0.000 C 
ENDROOT
BRANCH   2   3
ATOM      3  C   UNL     1       9.353  11.061  18.225  0.00  0.00    +0.000 A 
ATOM      4  C   UNL     1      10.518  11.120  18.984  0.00  0.00    +0.000 A 
ATOM      5  C   UNL     1      11.135  12.345  19.224  0.00  0.00    +0.000 A 
ATOM      6  C   UNL     1      10.610  13.534  18.706  0.00  0.00    +0.000 A 
ATOM      7  C   UNL     1       9.475  13.466  17.894  0.00  0.00    +0.000 A 
ATOM      8  C   UNL     1       8.848  12.232  17.652  0.00  0.00    +0.000 A 
BRANCH   6   9
ATOM      9  O   UNL     1      11.122  14.792  18.953  0.00  0.00    +0.000 OA
BRANCH   9  10
ATOM     10  C   UNL     1      11.220  15.114  20.343  0.00  0.00    +0.000 C 
BRANCH  10  11
ATOM     11  C   UNL     1       9.869  15.427  20.978  0.00  0.00    +0.000 C 
BRANCH  11  12
ATOM     12  C   UNL     1      10.045  15.429  22.503  0.00  0.00    +0.000 C 
BRANCH  12  13
ATOM     13  N   UNL     1       9.012  14.632  23.158  0.00  0.00    +0.000 NA
ATOM     14  H   UNL     1       8.108  15.081  23.009  0.00  0.00    +0.000 HD
BRANCH  13  15
ATOM     15  C   UNL     1       8.942  13.287  22.561  0.00  0.00    +0.000 C 
BRANCH  15  16
ATOM     16  C   UNL     1       7.877  12.423  23.261  0.00  0.00    +0.000 C 
BRANCH  16  17
ATOM     17  N   UNL     1       8.368  11.069  23.548  0.00  0.00    +0.000 NA
ATOM     18  H   UNL     1       8.439  10.969  24.559  0.00  0.00    +0.000 HD
ATOM     19  H   UNL     1       9.324  10.992  23.202  0.00  0.00    +0.000 HD
ENDBRANCH  16  17
ENDBRANCH  15  16
ENDBRANCH  13  15
ENDBRANCH  12  13
ENDBRANCH  11  12
ENDBRANCH  10  11
ENDBRANCH   9  10
ENDBRANCH   6   9
ENDBRANCH   2   3
BRANCH   1  22
ATOM     20  C   UNL     1       6.442   5.586  18.050  0.00  0.00    +0.000 A 
ATOM     21  C   UNL     1       7.492   6.384  18.571  0.00  0.00    +0.000 A 
ATOM     22  C   UNL     1       7.471   7.505  17.790  0.00  0.00    +0.000 A 
ATOM     23  O   UNL     1       6.601   7.336  16.764  0.00  0.00    +0.000 OA
ATOM     24  N   UNL     1       5.953   6.114  16.916  0.00  0.00    +0.000 NA
BRANCH  20  25
ATOM     25  C   UNL     1       5.880   4.319  18.597  0.00  0.00    +0.000 C 
BRANCH  25  30
ATOM     26  C   UNL     1       3.376   4.840  18.497  0.00  0.00    +0.000 A 
ATOM     27  N   UNL     1       2.320   4.372  17.851  0.00  0.00    +0.000 NA
ATOM     28  C   UNL     1       2.771   3.345  17.077  0.00  0.00    +0.000 A 
ATOM     29  C   UNL     1       4.118   3.163  17.255  0.00  0.00    +0.000 A 
ATOM     30  N   UNL     1       4.501   4.110  18.175  0.00  0.00    +0.000 N 
BRANCH  26  32
ATOM     31  C   UNL     1       2.037   5.970  20.265  0.00  0.00    +0.000 C 
ATOM     32  C   UNL     1       3.299   6.017  19.423  0.00  0.00    +0.000 C 
BRANCH  32  33
ATOM     33  O   UNL     1       3.217   7.173  18.580  0.00  0.00    +0.000 OA
ATOM     34  H   UNL     1       4.056   7.164  18.072  0.00  0.00    +0.000 HD
ENDBRANCH  32  33
ENDBRANCH  26  32
ENDBRANCH  25  30
ENDBRANCH  20  25
ENDBRANCH   1  22
TORSDOF 14
ENDMDL
MODEL 9
REMARK VINA RESULT:      -7.0      2.006      2.694
REMARK  Name = 
REMARK  15 active torsions:
REMARK  status: ('A' for Active; 'I' for Inactive)
REMARK    1  A    between atoms: C_1  and  C_2
REMARK    2  A    between atoms: C_2  and  O_3
REMARK    3  A    between atoms: C_2  and  C_4
REMARK    4  A    between atoms: N_8  and  C_9
REMARK    5  A    between atoms: C_9  and  C_10
REMARK    6  A    between atoms: C_12  and  C_13
REMARK    7  A    between atoms: C_14  and  C_15
REMARK    8  A    between atoms: C_18  and  O_19
REMARK    9  A    between atoms: O_19  and  C_20
REMARK   10  A    between atoms: C_20  and  C_21
REMARK   11  A    between atoms: C_21  and  C_22
REMARK   12  A    between atoms: C_22  and  N_23
REMARK   13  A    between atoms: N_23  and  C_24
REMARK   14  A    between atoms: C_24  and  C_25
REMARK   15  A    between atoms: C_25  and  N_26
REMARK                            x       y       z     vdW  Elec       q    Type
REMARK                         _______ _______ _______ _____ _____    ______ ____
ROOT
ATOM      1  C   UNL     1       8.410   8.613  18.220  0.00  0.00    +0.000 C 
ATOM      2  C   UNL     1       8.926   9.638  18.569  0.00  0.00    +0.000 C 
ENDROOT
BRANCH   2   3
ATOM      3  C   UNL     1       9.602  10.835  18.974  0.00  0.00    +0.000 A 
ATOM      4  C   UNL     1       9.411  11.303  20.270  0.00  0.00    +0.000 A 
ATOM      5  C   UNL     1       9.962  12.520  20.663  0.00  0.00    +0.000 A 
ATOM      6  C   UNL     1      10.720  13.292  19.777  0.00  0.00    +0.000 A 
ATOM      7  C   UNL     1      10.962  12.792  18.494  0.00  0.00    +0.000 A 
ATOM      8  C   UNL     1      10.406  11.565  18.093  0.00  0.00    +0.000 A 
BRANCH   6   9
ATOM      9  O   UNL     1      11.242  14.536  20.066  0.00  0.00    +0.000 OA
BRANCH   9  10
ATOM     10  C   UNL     1      10.702  15.129  21.251  0.00  0.00    +0.000 C 
BRANCH  10  11
ATOM     11  C   UNL     1      11.171  16.564  21.466  0.00  0.00    +0.000 C 
BRANCH  11  12
ATOM     12  C   UNL     1      10.518  17.447  20.393  0.00  0.00    +0.000 C 
BRANCH  12  13
ATOM     13  N   UNL     1       9.196  16.947  20.027  0.00  0.00    +0.000 NA
ATOM     14  H   UNL     1       8.496  17.426  20.594  0.00  0.00    +0.000 HD
BRANCH  13  15
ATOM     15  C   UNL     1       8.903  17.251  18.614  0.00  0.00    +0.000 C 
BRANCH  15  16
ATOM     16  C   UNL     1       8.981  15.983  17.745  0.00  0.00    +0.000 C 
BRANCH  16  17
ATOM     17  N   UNL     1      10.149  15.995  16.857  0.00  0.00    +0.000 NA
ATOM     18  H   UNL     1      10.386  16.967  16.664  0.00  0.00    +0.000 HD
ATOM     19  H   UNL     1       9.875  15.601  15.957  0.00  0.00    +0.000 HD
ENDBRANCH  16  17
ENDBRANCH  15  16
ENDBRANCH  13  15
ENDBRANCH  12  13
ENDBRANCH  11  12
ENDBRANCH  10  11
ENDBRANCH   9  10
ENDBRANCH   6   9
ENDBRANCH   2   3
BRANCH   1  22
ATOM     20  C   UNL     1       6.489   5.622  17.742  0.00  0.00    +0.000 A 
ATOM     21  C   UNL     1       7.364   6.333  18.602  0.00  0.00    +0.000 A 
ATOM     22  C   UNL     1       7.744   7.417  17.861  0.00  0.00    +0.000 A 
ATOM     23  O   UNL     1       7.284   7.292  16.592  0.00  0.00    +0.000 OA
ATOM     24  N   UNL     1       6.497   6.148  16.506  0.00  0.00    +0.000 NA
BRANCH  20  25
ATOM     25  C   UNL     1       5.636   4.442  18.055  0.00  0.00    +0.000 C 
BRANCH  25  30
ATOM     26  C   UNL     1       3.324   4.082  19.091  0.00  0.00    +0.000 A 
ATOM     27  N   UNL     1       2.263   4.826  19.362  0.00  0.00    +0.000 NA
ATOM     28  C   UNL     1       2.561   6.084  18.932  0.00  0.00    +0.000 A 
ATOM     29  C   UNL     1       3.813   6.119  18.375  0.00  0.00    +0.000 A 
ATOM     30  N   UNL     1       4.294   4.835  18.464  0.00  0.00    +0.000 N 
BRANCH  26  32
ATOM     31  C   UNL     1       2.268   1.842  18.840  0.00  0.00    +0.000 C 
ATOM     32  C   UNL     1       3.407   2.631  19.461  0.00  0.00    +0.000 C 
BRANCH  32  33
ATOM     33  O   UNL     1       3.248   2.579  20.883  0.00  0.00    +0.000 OA
ATOM     34  H   UNL     1       3.858   3.269  21.222  0.00  0.00    +0.000 HD
ENDBRANCH  32  33
ENDBRANCH  26  32
ENDBRANCH  25  30
ENDBRANCH  20  25
ENDBRANCH   1  22
TORSDOF 14
ENDMDL
