MODEL 1
REMARK VINA RESULT:      -6.6      0.000      0.000
REMARK  Name = 
REMARK  2 active torsions:
REMARK  status: ('A' for Active; 'I' for Inactive)
REMARK    1  A    between atoms: C_5  and  C_6
REMARK    2  A    between atoms: N_17  and  C_18
REMARK                            x       y       z     vdW  Elec       q    Type
REMARK                         _______ _______ _______ _____ _____    ______ ____
ROOT
ATOM      1  C   UNL     1       0.927  13.355  20.642  0.00  0.00    +0.000 A 
ATOM      2  C   UNL     1       2.266  13.237  20.302  0.00  0.00    +0.000 A 
ATOM      3  S   UNL     1       3.264  14.332  21.126  0.00  0.00    +0.000 S 
ATOM      4  C   UNL     1       1.933  15.018  21.934  0.00  0.00    +0.000 A 
ATOM      5  N   UNL     1       2.167  16.060  22.743  0.00  0.00    +0.000 NA
ATOM      6  C   UNL     1       1.063  16.514  23.315  0.00  0.00    +0.000 A 
ATOM      7  N   UNL     1      -0.169  16.010  23.193  0.00  0.00    +0.000 NA
ATOM      8  C   UNL     1      -0.395  14.906  22.427  0.00  0.00    +0.000 A 
ATOM      9  N   UNL     1      -1.682  14.401  22.514  0.00  0.00    +0.000 N 
ATOM     10  C   UNL     1      -2.006  12.985  22.478  0.00  0.00    +0.000 C 
ATOM     11  C   UNL     1      -3.086  12.585  23.498  0.00  0.00    +0.000 C 
ATOM     12  N   UNL     1      -4.274  13.453  23.337  0.00  0.00    +0.000 N 
ATOM     13  C   UNL     1      -3.945  14.891  23.464  0.00  0.00    +0.000 C 
ATOM     14  C   UNL     1      -2.822  15.328  22.490  0.00  0.00    +0.000 C 
ATOM     15  C   UNL     1       0.712  14.387  21.672  0.00  0.00    +0.000 A 
ENDROOT
BRANCH   1  20
ATOM     16 CL   UNL     1      -2.279   9.708  17.188  0.00  0.00    +0.000 Cl
ATOM     17  C   UNL     1      -1.541  10.757  18.334  0.00  0.00    +0.000 A 
ATOM     18  C   UNL     1      -1.697  12.133  18.211  0.00  0.00    +0.000 A 
ATOM     19  C   UNL     1      -0.942  12.987  19.021  0.00  0.00    +0.000 A 
ATOM     20  C   UNL     1      -0.036  12.472  19.967  0.00  0.00    +0.000 A 
ATOM     21  C   UNL     1      -0.026  11.090  20.194  0.00  0.00    +0.000 A 
ATOM     22  C   UNL     1      -0.741  10.232  19.344  0.00  0.00    +0.000 A 
ENDBRANCH   1  20
BRANCH  12  23
ATOM     23  C   UNL     1      -5.476  12.964  22.857  0.00  0.00    +0.000 A 
ATOM     24  C   UNL     1      -5.638  12.613  21.503  0.00  0.00    +0.000 A 
ATOM     25  C   UNL     1      -6.832  12.086  20.994  0.00  0.00    +0.000 A 
ATOM     26  C   UNL     1      -7.914  11.878  21.835  0.00  0.00    +0.000 A 
ATOM     27  C   UNL     1      -7.795  12.208  23.179  0.00  0.00    +0.000 A 
ATOM     28  C   UNL     1      -6.594  12.746  23.676  0.00  0.00    +0.000 A 
ENDBRANCH  12  23
TORSDOF 2
ENDMDL
MODEL 2
REMARK VINA RESULT:      -6.5      0.731      1.262
REMARK  Name = 
REMARK  2 active torsions:
REMARK  status: ('A' for Active; 'I' for Inactive)
REMARK    1  A    between atoms: C_5  and  C_6
REMARK    2  A    between atoms: N_17  and  C_18
REMARK                            x       y       z     vdW  Elec       q    Type
REMARK                         _______ _______ _______ _____ _____    ______ ____
ROOT
ATOM      1  C   UNL     1       1.205  13.421  20.462  0.00  0.00    +0.000 A 
ATOM      2  C   UNL     1       2.586  13.369  20.344  0.00  0.00    +0.000 A 
ATOM      3  S   UNL     1       3.383  14.487  21.338  0.00  0.00    +0.000 S 
ATOM      4  C   UNL     1       1.907  15.095  21.928  0.00  0.00    +0.000 A 
ATOM      5  N   UNL     1       1.957  16.127  22.781  0.00  0.00    +0.000 NA
ATOM      6  C   UNL     1       0.755  16.519  23.172  0.00  0.00    +0.000 A 
ATOM      7  N   UNL     1      -0.416  15.965  22.841  0.00  0.00    +0.000 NA
ATOM      8  C   UNL     1      -0.462  14.870  22.031  0.00  0.00    +0.000 A 
ATOM      9  N   UNL     1      -1.721  14.308  21.897  0.00  0.00    +0.000 N 
ATOM     10  C   UNL     1      -1.968  12.880  21.786  0.00  0.00    +0.000 C 
ATOM     11  C   UNL     1      -3.180  12.409  22.608  0.00  0.00    +0.000 C 
ATOM     12  N   UNL     1      -4.365  13.228  22.269  0.00  0.00    +0.000 N 
ATOM     13  C   UNL     1      -4.129  14.676  22.471  0.00  0.00    +0.000 C 
ATOM     14  C   UNL     1      -2.884  15.184  21.702  0.00  0.00    +0.000 C 
ATOM     15  C   UNL     1       0.777  14.418  21.459  0.00  0.00    +0.000 A 
ENDROOT
BRANCH   1  20
ATOM     16 CL   UNL     1      -2.721   9.829  17.778  0.00  0.00    +0.000 Cl
ATOM     17  C   UNL     1      -1.444  10.820  18.367  0.00  0.00    +0.000 A 
ATOM     18  C   UNL     1      -0.483  10.278  19.214  0.00  0.00    +0.000 A 
ATOM     19  C   UNL     1       0.435  11.123  19.844  0.00  0.00    +0.000 A 
ATOM     20  C   UNL     1       0.408  12.512  19.624  0.00  0.00    +0.000 A 
ATOM     21  C   UNL     1      -0.449  13.012  18.636  0.00  0.00    +0.000 A 
ATOM     22  C   UNL     1      -1.408  12.173  18.046  0.00  0.00    +0.000 A 
ENDBRANCH   1  20
BRANCH  12  23
ATOM     23  C   UNL     1      -5.448  12.699  21.591  0.00  0.00    +0.000 A 
ATOM     24  C   UNL     1      -5.332  12.242  20.264  0.00  0.00    +0.000 A 
ATOM     25  C   UNL     1      -6.402  11.672  19.561  0.00  0.00    +0.000 A 
ATOM     26  C   UNL     1      -7.637  11.527  20.174  0.00  0.00    +0.000 A 
ATOM     27  C   UNL     1      -7.793  11.963  21.484  0.00  0.00    +0.000 A 
ATOM     28  C   UNL     1      -6.714  12.542  22.175  0.00  0.00    +0.000 A 
ENDBRANCH  12  23
TORSDOF 2
ENDMDL
MODEL 3
REMARK VINA RESULT:      -6.4      6.800      9.863
REMARK  Name = 
REMARK  2 active torsions:
REMARK  status: ('A' for Active; 'I' for Inactive)
REMARK    1  A    between atoms: C_5  and  C_6
REMARK    2  A    between atoms: N_17  and  C_18
REMARK                            x       y       z     vdW  Elec       q    Type
REMARK                         _______ _______ _______ _____ _____    ______ ____
ROOT
ATOM      1  C   UNL     1      10.257  14.580  18.455  0.00  0.00    +0.000 A 
ATOM      2  C   UNL     1      11.643  14.582  18.424  0.00  0.00    +0.000 A 
ATOM      3  S   UNL     1      12.307  16.140  18.347  0.00  0.00    +0.000 S 
ATOM      4  C   UNL     1      10.762  16.853  18.319  0.00  0.00    +0.000 A 
ATOM      5  N   UNL     1      10.696  18.186  18.196  0.00  0.00    +0.000 NA
ATOM      6  C   UNL     1       9.449  18.631  18.182  0.00  0.00    +0.000 A 
ATOM      7  N   UNL     1       8.336  17.904  18.325  0.00  0.00    +0.000 NA
ATOM      8  C   UNL     1       8.407  16.558  18.524  0.00  0.00    +0.000 A 
ATOM      9  N   UNL     1       7.193  15.956  18.812  0.00  0.00    +0.000 N 
ATOM     10  C   UNL     1       7.033  14.848  19.738  0.00  0.00    +0.000 C 
ATOM     11  C   UNL     1       5.794  14.986  20.639  0.00  0.00    +0.000 C 
ATOM     12  N   UNL     1       4.593  15.222  19.807  0.00  0.00    +0.000 N 
ATOM     13  C   UNL     1       4.734  16.408  18.931  0.00  0.00    +0.000 C 
ATOM     14  C   UNL     1       6.001  16.335  18.041  0.00  0.00    +0.000 C 
ATOM     15  C   UNL     1       9.706  15.946  18.452  0.00  0.00    +0.000 A 
ENDROOT
BRANCH   1  20
ATOM     16 CL   UNL     1       8.229   8.992  18.030  0.00  0.00    +0.000 Cl
ATOM     17  C   UNL     1       8.620  10.647  18.286  0.00  0.00    +0.000 A 
ATOM     18  C   UNL     1       8.179  11.609  17.384  0.00  0.00    +0.000 A 
ATOM     19  C   UNL     1       8.658  12.919  17.485  0.00  0.00    +0.000 A 
ATOM     20  C   UNL     1       9.571  13.279  18.493  0.00  0.00    +0.000 A 
ATOM     21  C   UNL     1       9.862  12.342  19.491  0.00  0.00    +0.000 A 
ATOM     22  C   UNL     1       9.427  11.014  19.359  0.00  0.00    +0.000 A 
ENDBRANCH   1  20
BRANCH  12  23
ATOM     23  C   UNL     1       3.590  14.277  19.688  0.00  0.00    +0.000 A 
ATOM     24  C   UNL     1       2.845  13.851  20.805  0.00  0.00    +0.000 A 
ATOM     25  C   UNL     1       1.803  12.919  20.712  0.00  0.00    +0.000 A 
ATOM     26  C   UNL     1       1.458  12.384  19.480  0.00  0.00    +0.000 A 
ATOM     27  C   UNL     1       2.166  12.778  18.353  0.00  0.00    +0.000 A 
ATOM     28  C   UNL     1       3.217  13.707  18.461  0.00  0.00    +0.000 A 
ENDBRANCH  12  23
TORSDOF 2
ENDMDL
MODEL 4
REMARK VINA RESULT:      -6.3      1.620      2.222
REMARK  Name = 
REMARK  2 active torsions:
REMARK  status: ('A' for Active; 'I' for Inactive)
REMARK    1  A    between atoms: C_5  and  C_6
REMARK    2  A    between atoms: N_17  and  C_18
REMARK                            x       y       z     vdW  Elec       q    Type
REMARK                         _______ _______ _______ _____ _____    ______ ____
ROOT
ATOM      1  C   UNL     1       1.481  13.457  18.991  0.00  0.00    +0.000 A 
ATOM      2  C   UNL     1       2.586  13.198  18.194  0.00  0.00    +0.000 A 
ATOM      3  S   UNL     1       3.813  14.356  18.358  0.00  0.00    +0.000 S 
ATOM      4  C   UNL     1       2.891  15.252  19.472  0.00  0.00    +0.000 A 
ATOM      5  N   UNL     1       3.409  16.402  19.925  0.00  0.00    +0.000 NA
ATOM      6  C   UNL     1       2.607  17.015  20.781  0.00  0.00    +0.000 A 
ATOM      7  N   UNL     1       1.428  16.576  21.233  0.00  0.00    +0.000 NA
ATOM      8  C   UNL     1       0.935  15.371  20.828  0.00  0.00    +0.000 A 
ATOM      9  N   UNL     1      -0.213  14.970  21.490  0.00  0.00    +0.000 N 
ATOM     10  C   UNL     1      -0.511  13.592  21.842  0.00  0.00    +0.000 C 
ATOM     11  C   UNL     1      -1.109  13.442  23.251  0.00  0.00    +0.000 C 
ATOM     12  N   UNL     1      -2.275  14.341  23.399  0.00  0.00    +0.000 N 
ATOM     13  C   UNL     1      -1.938  15.756  23.124  0.00  0.00    +0.000 C 
ATOM     14  C   UNL     1      -1.283  15.947  21.734  0.00  0.00    +0.000 C 
ATOM     15  C   UNL     1       1.670  14.662  19.817  0.00  0.00    +0.000 A 
ENDROOT
BRANCH   1  20
ATOM     16 CL   UNL     1      -2.822   9.532  17.724  0.00  0.00    +0.000 Cl
ATOM     17  C   UNL     1      -1.684  10.684  18.305  0.00  0.00    +0.000 A 
ATOM     18  C   UNL     1      -1.908  12.041  18.099  0.00  0.00    +0.000 A 
ATOM     19  C   UNL     1      -0.897  12.960  18.395  0.00  0.00    +0.000 A 
ATOM     20  C   UNL     1       0.341  12.530  18.909  0.00  0.00    +0.000 A 
ATOM     21  C   UNL     1       0.479  11.186  19.272  0.00  0.00    +0.000 A 
ATOM     22  C   UNL     1      -0.513  10.256  18.923  0.00  0.00    +0.000 A 
ENDBRANCH   1  20
BRANCH  12  23
ATOM     23  C   UNL     1      -3.564  13.852  23.513  0.00  0.00    +0.000 A 
ATOM     24  C   UNL     1      -3.878  12.810  24.407  0.00  0.00    +0.000 A 
ATOM     25  C   UNL     1      -5.179  12.314  24.567  0.00  0.00    +0.000 A 
ATOM     26  C   UNL     1      -6.225  12.860  23.840  0.00  0.00    +0.000 A 
ATOM     27  C   UNL     1      -5.959  13.892  22.949  0.00  0.00    +0.000 A 
ATOM     28  C   UNL     1      -4.647  14.373  22.789  0.00  0.00    +0.000 A 
ENDBRANCH  12  23
TORSDOF 2
ENDMDL
MODEL 5
REMARK VINA RESULT:      -6.2      3.170      5.944
REMARK  Name = 
REMARK  2 active torsions:
REMARK  status: ('A' for Active; 'I' for Inactive)
REMARK    1  A    between atoms: C_5  and  C_6
REMARK    2  A    between atoms: N_17  and  C_18
REMARK                            x       y       z     vdW  Elec       q    Type
REMARK                         _______ _______ _______ _____ _____    ______ ____
ROOT
ATOM      1  C   UNL     1      -2.377  11.762  18.183  0.00  0.00    +0.000 A 
ATOM      2  C   UNL     1      -2.345  11.198  16.916  0.00  0.00    +0.000 A 
ATOM      3  S   UNL     1      -3.874  10.731  16.355  0.00  0.00    +0.000 S 
ATOM      4  C   UNL     1      -4.618  11.238  17.798  0.00  0.00    +0.000 A 
ATOM      5  N   UNL     1      -5.936  11.031  17.924  0.00  0.00    +0.000 NA
ATOM      6  C   UNL     1      -6.406  11.461  19.085  0.00  0.00    +0.000 A 
ATOM      7  N   UNL     1      -5.721  12.088  20.046  0.00  0.00    +0.000 NA
ATOM      8  C   UNL     1      -4.396  12.364  19.887  0.00  0.00    +0.000 A 
ATOM      9  N   UNL     1      -3.849  13.151  20.886  0.00  0.00    +0.000 N 
ATOM     10  C   UNL     1      -2.830  14.163  20.662  0.00  0.00    +0.000 C 
ATOM     11  C   UNL     1      -3.075  15.456  21.457  0.00  0.00    +0.000 C 
ATOM     12  N   UNL     1      -3.265  15.136  22.889  0.00  0.00    +0.000 N 
ATOM     13  C   UNL     1      -4.365  14.171  23.113  0.00  0.00    +0.000 C 
ATOM     14  C   UNL     1      -4.187  12.871  22.289  0.00  0.00    +0.000 C 
ATOM     15  C   UNL     1      -3.750  11.851  18.709  0.00  0.00    +0.000 A 
ENDROOT
BRANCH   1  20
ATOM     16 CL   UNL     1       2.235  14.067  21.172  0.00  0.00    +0.000 Cl
ATOM     17  C   UNL     1       1.067  13.271  20.192  0.00  0.00    +0.000 A 
ATOM     18  C   UNL     1       0.682  13.834  18.980  0.00  0.00    +0.000 A 
ATOM     19  C   UNL     1      -0.401  13.293  18.282  0.00  0.00    +0.000 A 
ATOM     20  C   UNL     1      -1.100  12.180  18.783  0.00  0.00    +0.000 A 
ATOM     21  C   UNL     1      -0.588  11.525  19.909  0.00  0.00    +0.000 A 
ATOM     22  C   UNL     1       0.464  12.100  20.640  0.00  0.00    +0.000 A 
ENDBRANCH   1  20
BRANCH  12  23
ATOM     23  C   UNL     1      -2.336  15.500  23.847  0.00  0.00    +0.000 A 
ATOM     24  C   UNL     1      -1.207  16.276  23.519  0.00  0.00    +0.000 A 
ATOM     25  C   UNL     1      -0.266  16.687  24.472  0.00  0.00    +0.000 A 
ATOM     26  C   UNL     1      -0.429  16.341  25.804  0.00  0.00    +0.000 A 
ATOM     27  C   UNL     1      -1.530  15.577  26.171  0.00  0.00    +0.000 A 
ATOM     28  C   UNL     1      -2.463  15.163  25.204  0.00  0.00    +0.000 A 
ENDBRANCH  12  23
TORSDOF 2
ENDMDL
MODEL 6
REMARK VINA RESULT:      -6.2      3.238      5.947
REMARK  Name = 
REMARK  2 active torsions:
REMARK  status: ('A' for Active; 'I' for Inactive)
REMARK    1  A    between atoms: C_5  and  C_6
REMARK    2  A    between atoms: N_17  and  C_18
REMARK                            x       y       z     vdW  Elec       q    Type
REMARK                         _______ _______ _______ _____ _____    ______ ____
ROOT
ATOM      1  C   UNL     1      -2.502  11.888  18.496  0.00  0.00    +0.000 A 
ATOM      2  C   UNL     1      -2.308  11.289  17.260  0.00  0.00    +0.000 A 
ATOM      3  S   UNL     1      -3.738  10.684  16.580  0.00  0.00    +0.000 S 
ATOM      4  C   UNL     1      -4.650  11.173  17.931  0.00  0.00    +0.000 A 
ATOM      5  N   UNL     1      -5.953  10.864  17.945  0.00  0.00    +0.000 NA
ATOM      6  C   UNL     1      -6.562  11.289  19.041  0.00  0.00    +0.000 A 
ATOM      7  N   UNL     1      -6.020  11.998  20.036  0.00  0.00    +0.000 NA
ATOM      8  C   UNL     1      -4.711  12.375  19.987  0.00  0.00    +0.000 A 
ATOM      9  N   UNL     1      -4.323  13.234  21.001  0.00  0.00    +0.000 N 
ATOM     10  C   UNL     1      -3.370  14.318  20.832  0.00  0.00    +0.000 C 
ATOM     11  C   UNL     1      -3.788  15.611  21.552  0.00  0.00    +0.000 C 
ATOM     12  N   UNL     1      -4.085  15.320  22.973  0.00  0.00    +0.000 N 
ATOM     13  C   UNL     1      -5.122  14.276  23.132  0.00  0.00    +0.000 C 
ATOM     14  C   UNL     1      -4.767  12.971  22.377  0.00  0.00    +0.000 C 
ATOM     15  C   UNL     1      -3.921  11.881  18.893  0.00  0.00    +0.000 A 
ENDROOT
BRANCH   1  20
ATOM     16 CL   UNL     1       2.787  13.380  20.802  0.00  0.00    +0.000 Cl
ATOM     17  C   UNL     1       1.170  13.121  20.278  0.00  0.00    +0.000 A 
ATOM     18  C   UNL     1       0.372  12.189  20.933  0.00  0.00    +0.000 A 
ATOM     19  C   UNL     1      -0.868  11.839  20.389  0.00  0.00    +0.000 A 
ATOM     20  C   UNL     1      -1.323  12.425  19.194  0.00  0.00    +0.000 A 
ATOM     21  C   UNL     1      -0.587  13.484  18.650  0.00  0.00    +0.000 A 
ATOM     22  C   UNL     1       0.682  13.796  19.163  0.00  0.00    +0.000 A 
ENDBRANCH   1  20
BRANCH  12  23
ATOM     23  C   UNL     1      -3.280  15.786  23.997  0.00  0.00    +0.000 A 
ATOM     24  C   UNL     1      -2.691  14.907  24.927  0.00  0.00    +0.000 A 
ATOM     25  C   UNL     1      -1.846  15.345  25.955  0.00  0.00    +0.000 A 
ATOM     26  C   UNL     1      -1.548  16.693  26.082  0.00  0.00    +0.000 A 
ATOM     27  C   UNL     1      -2.106  17.594  25.184  0.00  0.00    +0.000 A 
ATOM     28  C   UNL     1      -2.960  17.143  24.162  0.00  0.00    +0.000 A 
ENDBRANCH  12  23
TORSDOF 2
ENDMDL
MODEL 7
REMARK VINA RESULT:      -6.2      1.190      1.790
REMARK  Name = 
REMARK  2 active torsions:
REMARK  status: ('A' for Active; 'I' for Inactive)
REMARK    1  A    between atoms: C_5  and  C_6
REMARK    2  A    between atoms: N_17  and  C_18
REMARK                            x       y       z     vdW  Elec       q    Type
REMARK                         _______ _______ _______ _____ _____    ______ ____
ROOT
ATOM      1  C   UNL     1       1.092  13.309  19.283  0.00  0.00    +0.000 A 
ATOM      2  C   UNL     1       2.423  13.226  18.906  0.00  0.00    +0.000 A 
ATOM      3  S   UNL     1       3.392  14.425  19.610  0.00  0.00    +0.000 S 
ATOM      4  C   UNL     1       2.056  15.109  20.410  0.00  0.00    +0.000 A 
ATOM      5  N   UNL     1       2.265  16.219  21.131  0.00  0.00    +0.000 NA
ATOM      6  C   UNL     1       1.159  16.664  21.706  0.00  0.00    +0.000 A 
ATOM      7  N   UNL     1      -0.051  16.098  21.664  0.00  0.00    +0.000 NA
ATOM      8  C   UNL     1      -0.248  14.929  20.992  0.00  0.00    +0.000 A 
ATOM      9  N   UNL     1      -1.505  14.374  21.160  0.00  0.00    +0.000 N 
ATOM     10  C   UNL     1      -1.762  12.946  21.242  0.00  0.00    +0.000 C 
ATOM     11  C   UNL     1      -2.789  12.576  22.325  0.00  0.00    +0.000 C 
ATOM     12  N   UNL     1      -4.021  13.375  22.142  0.00  0.00    +0.000 N 
ATOM     13  C   UNL     1      -3.758  14.832  22.149  0.00  0.00    +0.000 C 
ATOM     14  C   UNL     1      -2.689  15.244  21.107  0.00  0.00    +0.000 C 
ATOM     15  C   UNL     1       0.859  14.405  20.239  0.00  0.00    +0.000 A 
ENDROOT
BRANCH   1  20
ATOM     16 CL   UNL     1      -3.221   9.466  17.814  0.00  0.00    +0.000 Cl
ATOM     17  C   UNL     1      -1.881  10.523  18.025  0.00  0.00    +0.000 A 
ATOM     18  C   UNL     1      -0.722  10.056  18.635  0.00  0.00    +0.000 A 
ATOM     19  C   UNL     1       0.288  10.959  18.980  0.00  0.00    +0.000 A 
ATOM     20  C   UNL     1       0.151  12.333  18.709  0.00  0.00    +0.000 A 
ATOM     21  C   UNL     1      -0.940  12.753  17.939  0.00  0.00    +0.000 A 
ATOM     22  C   UNL     1      -1.978  11.857  17.642  0.00  0.00    +0.000 A 
ENDBRANCH   1  20
BRANCH  12  23
ATOM     23  C   UNL     1      -5.213  12.797  21.742  0.00  0.00    +0.000 A 
ATOM     24  C   UNL     1      -6.333  12.758  22.595  0.00  0.00    +0.000 A 
ATOM     25  C   UNL     1      -7.563  12.208  22.208  0.00  0.00    +0.000 A 
ATOM     26  C   UNL     1      -7.719  11.684  20.935  0.00  0.00    +0.000 A 
ATOM     27  C   UNL     1      -6.639  11.704  20.061  0.00  0.00    +0.000 A 
ATOM     28  C   UNL     1      -5.407  12.249  20.465  0.00  0.00    +0.000 A 
ENDBRANCH  12  23
TORSDOF 2
ENDMDL
MODEL 8
REMARK VINA RESULT:      -6.1      3.546      6.618
REMARK  Name = 
REMARK  2 active torsions:
REMARK  status: ('A' for Active; 'I' for Inactive)
REMARK    1  A    between atoms: C_5  and  C_6
REMARK    2  A    between atoms: N_17  and  C_18
REMARK                            x       y       z     vdW  Elec       q    Type
REMARK                         _______ _______ _______ _____ _____    ______ ____
ROOT
ATOM      1  C   UNL     1       0.560  15.953  20.393  0.00  0.00    +0.000 A 
ATOM      2  C   UNL     1       0.570  17.293  20.750  0.00  0.00    +0.000 A 
ATOM      3  S   UNL     1      -0.933  17.845  21.308  0.00  0.00    +0.000 S 
ATOM      4  C   UNL     1      -1.646  16.321  21.056  0.00  0.00    +0.000 A 
ATOM      5  N   UNL     1      -2.957  16.200  21.305  0.00  0.00    +0.000 NA
ATOM      6  C   UNL     1      -3.404  14.976  21.073  0.00  0.00    +0.000 A 
ATOM      7  N   UNL     1      -2.684  13.917  20.688  0.00  0.00    +0.000 NA
ATOM      8  C   UNL     1      -1.337  14.023  20.506  0.00  0.00    +0.000 A 
ATOM      9  N   UNL     1      -0.695  12.821  20.262  0.00  0.00    +0.000 N 
ATOM     10  C   UNL     1       0.633  12.492  20.751  0.00  0.00    +0.000 C 
ATOM     11  C   UNL     1       0.747  11.050  21.273  0.00  0.00    +0.000 C 
ATOM     12  N   UNL     1       0.261  10.104  20.244  0.00  0.00    +0.000 N 
ATOM     13  C   UNL     1      -1.127  10.396  19.817  0.00  0.00    +0.000 C 
ATOM     14  C   UNL     1      -1.300  11.857  19.332  0.00  0.00    +0.000 C 
ATOM     15  C   UNL     1      -0.754  15.332  20.627  0.00  0.00    +0.000 A 
ENDROOT
BRANCH   1  20
ATOM     16 CL   UNL     1       5.801  14.528  17.938  0.00  0.00    +0.000 Cl
ATOM     17  C   UNL     1       4.273  14.707  18.706  0.00  0.00    +0.000 A 
ATOM     18  C   UNL     1       3.105  14.572  17.963  0.00  0.00    +0.000 A 
ATOM     19  C   UNL     1       1.877  14.909  18.540  0.00  0.00    +0.000 A 
ATOM     20  C   UNL     1       1.806  15.373  19.866  0.00  0.00    +0.000 A 
ATOM     21  C   UNL     1       2.967  15.333  20.647  0.00  0.00    +0.000 A 
ATOM     22  C   UNL     1       4.206  15.049  20.053  0.00  0.00    +0.000 A 
ENDBRANCH   1  20
BRANCH  12  23
ATOM     23  C   UNL     1       1.116   9.238  19.587  0.00  0.00    +0.000 A 
ATOM     24  C   UNL     1       1.601   8.071  20.210  0.00  0.00    +0.000 A 
ATOM     25  C   UNL     1       2.442   7.158  19.560  0.00  0.00    +0.000 A 
ATOM     26  C   UNL     1       2.821   7.377  18.245  0.00  0.00    +0.000 A 
ATOM     27  C   UNL     1       2.363   8.514  17.592  0.00  0.00    +0.000 A 
ATOM     28  C   UNL     1       1.527   9.429  18.258  0.00  0.00    +0.000 A 
ENDBRANCH  12  23
TORSDOF 2
ENDMDL
MODEL 9
REMARK VINA RESULT:      -6.0      3.495      6.336
REMARK  Name = 
REMARK  2 active torsions:
REMARK  status: ('A' for Active; 'I' for Inactive)
REMARK    1  A    between atoms: C_5  and  C_6
REMARK    2  A    between atoms: N_17  and  C_18
REMARK                            x       y       z     vdW  Elec       q    Type
REMARK                         _______ _______ _______ _____ _____    ______ ____
ROOT
ATOM      1  C   UNL     1      -2.373  16.244  20.615  0.00  0.00    +0.000 A 
ATOM      2  C   UNL     1      -3.187  17.364  20.687  0.00  0.00    +0.000 A 
ATOM      3  S   UNL     1      -2.672  18.630  19.683  0.00  0.00    +0.000 S 
ATOM      4  C   UNL     1      -1.329  17.730  19.151  0.00  0.00    +0.000 A 
ATOM      5  N   UNL     1      -0.475  18.329  18.310  0.00  0.00    +0.000 NA
ATOM      6  C   UNL     1       0.531  17.540  17.965  0.00  0.00    +0.000 A 
ATOM      7  N   UNL     1       0.712  16.265  18.326  0.00  0.00    +0.000 NA
ATOM      8  C   UNL     1      -0.197  15.634  19.122  0.00  0.00    +0.000 A 
ATOM      9  N   UNL     1       0.031  14.278  19.289  0.00  0.00    +0.000 N 
ATOM     10  C   UNL     1      -1.021  13.281  19.388  0.00  0.00    +0.000 C 
ATOM     11  C   UNL     1      -0.715  11.997  18.600  0.00  0.00    +0.000 C 
ATOM     12  N   UNL     1       0.614  11.474  18.988  0.00  0.00    +0.000 N 
ATOM     13  C   UNL     1       1.692  12.471  18.799  0.00  0.00    +0.000 C 
ATOM     14  C   UNL     1       1.400  13.803  19.534  0.00  0.00    +0.000 C 
ATOM     15  C   UNL     1      -1.278  16.423  19.646  0.00  0.00    +0.000 A 
ENDROOT
BRANCH   1  20
ATOM     16 CL   UNL     1      -4.226  12.247  24.628  0.00  0.00    +0.000 Cl
ATOM     17  C   UNL     1      -3.583  13.216  23.362  0.00  0.00    +0.000 A 
ATOM     18  C   UNL     1      -2.342  13.823  23.518  0.00  0.00    +0.000 A 
ATOM     19  C   UNL     1      -1.910  14.762  22.576  0.00  0.00    +0.000 A 
ATOM     20  C   UNL     1      -2.710  15.092  21.467  0.00  0.00    +0.000 A 
ATOM     21  C   UNL     1      -3.870  14.343  21.237  0.00  0.00    +0.000 A 
ATOM     22  C   UNL     1      -4.330  13.442  22.210  0.00  0.00    +0.000 A 
ENDBRANCH   1  20
BRANCH  12  23
ATOM     23  C   UNL     1       0.756  10.293  19.694  0.00  0.00    +0.000 A 
ATOM     24  C   UNL     1       1.530   9.227  19.195  0.00  0.00    +0.000 A 
ATOM     25  C   UNL     1       1.718   8.031  19.900  0.00  0.00    +0.000 A 
ATOM     26  C   UNL     1       1.143   7.863  21.150  0.00  0.00    +0.000 A 
ATOM     27  C   UNL     1       0.375   8.891  21.680  0.00  0.00    +0.000 A 
ATOM     28  C   UNL     1       0.184  10.083  20.958  0.00  0.00    +0.000 A 
ENDBRANCH  12  23
TORSDOF 2
ENDMDL
