MODEL 1
REMARK VINA RESULT:      -7.0      0.000      0.000
REMARK  Name = 
REMARK  7 active torsions:
REMARK  status: ('A' for Active; 'I' for Inactive)
REMARK    1  A    between atoms: C_2  and  C_3
REMARK    2  A    between atoms: N_5  and  C_6
REMARK    3  A    between atoms: C_6  and  C_7
REMARK    4  A    between atoms: C_7  and  C_8
REMARK    5  A    between atoms: C_8  and  O_9
REMARK    6  A    between atoms: C_11  and  C_12
REMARK    7  A    between atoms: C_12  and  O_13
REMARK                            x       y       z     vdW  Elec       q    Type
REMARK                         _______ _______ _______ _____ _____    ______ ____
ROOT
ATOM      1  C   UNL     1       6.019   4.515  14.497  0.00  0.00    +0.000 A 
ATOM      2  C   UNL     1       5.108   4.490  15.462  0.00  0.00    +0.000 A 
ATOM      3  N   UNL     1       5.187   5.318  16.563  0.00  0.00    +0.000 N 
ATOM      4  C   UNL     1       6.338   6.096  16.796  0.00  0.00    +0.000 A 
ATOM      5  O   UNL     1       6.451   6.917  17.709  0.00  0.00    +0.000 OA
ATOM      6  N   UNL     1       7.367   5.911  15.908  0.00  0.00    +0.000 N 
ATOM      7  C   UNL     1       7.264   5.290  14.715  0.00  0.00    +0.000 A 
ATOM      8  O   UNL     1       8.148   5.381  13.859  0.00  0.00    +0.000 OA
ATOM      9  H   UNL     1       8.198   6.467  16.066  0.00  0.00    +0.000 HD
ENDROOT
BRANCH   1  11
ATOM     10  C   UNL     1       5.644   3.070  12.100  0.00  0.00    +0.000 C 
ATOM     11  C   UNL     1       5.817   3.737  13.207  0.00  0.00    +0.000 C 
ENDBRANCH   1  11
BRANCH   3  12
ATOM     12  C   UNL     1       3.963   5.675  17.326  0.00  0.00    +0.000 C 
BRANCH  12  13
ATOM     13  C   UNL     1       3.499   4.608  18.315  0.00  0.00    +0.000 C 
ATOM     14  C   UNL     1       2.064   4.374  18.854  0.00  0.00    +0.000 C 
ATOM     15  C   UNL     1       2.528   3.619  17.654  0.00  0.00    +0.000 C 
BRANCH  13  16
ATOM     16  C   UNL     1       4.535   4.352  19.384  0.00  0.00    +0.000 C 
BRANCH  16  17
ATOM     17  O   UNL     1       5.439   3.327  18.944  0.00  0.00    +0.000 OA
ATOM     18  H   UNL     1       5.130   2.479  19.302  0.00  0.00    +0.000 HD
ENDBRANCH  16  17
ENDBRANCH  13  16
BRANCH  15  19
ATOM     19  C   UNL     1       2.718   2.145  17.638  0.00  0.00    +0.000 C 
BRANCH  19  20
ATOM     20  O   UNL     1       1.871   1.582  18.633  0.00  0.00    +0.000 OA
ATOM     21  H   UNL     1       2.443   1.127  19.272  0.00  0.00    +0.000 HD
ENDBRANCH  19  20
ENDBRANCH  15  19
ENDBRANCH  12  13
ENDBRANCH   3  12
TORSDOF 7
ENDMDL
MODEL 2
REMARK VINA RESULT:      -6.9      1.772      2.124
REMARK  Name = 
REMARK  7 active torsions:
REMARK  status: ('A' for Active; 'I' for Inactive)
REMARK    1  A    between atoms: C_2  and  C_3
REMARK    2  A    between atoms: N_5  and  C_6
REMARK    3  A    between atoms: C_6  and  C_7
REMARK    4  A    between atoms: C_7  and  C_8
REMARK    5  A    between atoms: C_8  and  O_9
REMARK    6  A    between atoms: C_11  and  C_12
REMARK    7  A    between atoms: C_12  and  O_13
REMARK                            x       y       z     vdW  Elec       q    Type
REMARK                         _______ _______ _______ _____ _____    ______ ____
ROOT
ATOM      1  C   UNL     1       5.789   4.224  15.924  0.00  0.00    +0.000 A 
ATOM      2  C   UNL     1       4.580   4.261  16.469  0.00  0.00    +0.000 A 
ATOM      3  N   UNL     1       4.381   4.645  17.779  0.00  0.00    +0.000 N 
ATOM      4  C   UNL     1       5.474   4.837  18.647  0.00  0.00    +0.000 A 
ATOM      5  O   UNL     1       5.382   5.257  19.802  0.00  0.00    +0.000 OA
ATOM      6  N   UNL     1       6.707   4.549  18.117  0.00  0.00    +0.000 N 
ATOM      7  C   UNL     1       6.971   4.383  16.805  0.00  0.00    +0.000 A 
ATOM      8  O   UNL     1       8.127   4.383  16.373  0.00  0.00    +0.000 OA
ATOM      9  H   UNL     1       7.500   4.685  18.732  0.00  0.00    +0.000 HD
ENDROOT
BRANCH   1  11
ATOM     10  C   UNL     1       6.127   3.779  13.156  0.00  0.00    +0.000 C 
ATOM     11  C   UNL     1       5.971   3.985  14.434  0.00  0.00    +0.000 C 
ENDBRANCH   1  11
BRANCH   3  12
ATOM     12  C   UNL     1       3.070   5.194  18.212  0.00  0.00    +0.000 C 
BRANCH  12  13
ATOM     13  C   UNL     1       2.167   4.191  18.927  0.00  0.00    +0.000 C 
ATOM     14  C   UNL     1       0.892   3.503  18.377  0.00  0.00    +0.000 C 
ATOM     15  C   UNL     1       2.209   2.817  18.243  0.00  0.00    +0.000 C 
BRANCH  13  16
ATOM     16  C   UNL     1       2.024   4.519  20.395  0.00  0.00    +0.000 C 
BRANCH  16  17
ATOM     17  O   UNL     1       2.667   5.771  20.674  0.00  0.00    +0.000 OA
ATOM     18  H   UNL     1       2.142   6.238  21.344  0.00  0.00    +0.000 HD
ENDBRANCH  16  17
ENDBRANCH  13  16
BRANCH  15  19
ATOM     19  C   UNL     1       2.545   1.546  18.939  0.00  0.00    +0.000 C 
BRANCH  19  20
ATOM     20  O   UNL     1       3.883   1.200  18.601  0.00  0.00    +0.000 OA
ATOM     21  H   UNL     1       3.989   0.253  18.787  0.00  0.00    +0.000 HD
ENDBRANCH  19  20
ENDBRANCH  15  19
ENDBRANCH  12  13
ENDBRANCH   3  12
TORSDOF 7
ENDMDL
MODEL 3
REMARK VINA RESULT:      -6.9      1.757      2.464
REMARK  Name = 
REMARK  7 active torsions:
REMARK  status: ('A' for Active; 'I' for Inactive)
REMARK    1  A    between atoms: C_2  and  C_3
REMARK    2  A    between atoms: N_5  and  C_6
REMARK    3  A    between atoms: C_6  and  C_7
REMARK    4  A    between atoms: C_7  and  C_8
REMARK    5  A    between atoms: C_8  and  O_9
REMARK    6  A    between atoms: C_11  and  C_12
REMARK    7  A    between atoms: C_12  and  O_13
REMARK                            x       y       z     vdW  Elec       q    Type
REMARK                         _______ _______ _______ _____ _____    ______ ____
ROOT
ATOM      1  C   UNL     1       5.790   4.340  15.668  0.00  0.00    +0.000 A 
ATOM      2  C   UNL     1       4.852   3.829  16.456  0.00  0.00    +0.000 A 
ATOM      3  N   UNL     1       4.667   4.268  17.751  0.00  0.00    +0.000 N 
ATOM      4  C   UNL     1       5.588   5.152  18.349  0.00  0.00    +0.000 A 
ATOM      5  O   UNL     1       5.448   5.651  19.467  0.00  0.00    +0.000 OA
ATOM      6  N   UNL     1       6.684   5.468  17.588  0.00  0.00    +0.000 N 
ATOM      7  C   UNL     1       6.803   5.244  16.263  0.00  0.00    +0.000 A 
ATOM      8  O   UNL     1       7.693   5.777  15.594  0.00  0.00    +0.000 OA
ATOM      9  H   UNL     1       7.351   6.103  18.008  0.00  0.00    +0.000 HD
ENDROOT
BRANCH   1  11
ATOM     10  C   UNL     1       5.912   3.674  12.927  0.00  0.00    +0.000 C 
ATOM     11  C   UNL     1       5.856   3.981  14.193  0.00  0.00    +0.000 C 
ENDBRANCH   1  11
BRANCH   3  12
ATOM     12  C   UNL     1       3.349   4.112  18.418  0.00  0.00    +0.000 C 
BRANCH  12  13
ATOM     13  C   UNL     1       3.221   2.861  19.284  0.00  0.00    +0.000 C 
ATOM     14  C   UNL     1       4.113   2.439  20.479  0.00  0.00    +0.000 C 
ATOM     15  C   UNL     1       2.868   3.219  20.734  0.00  0.00    +0.000 C 
BRANCH  13  16
ATOM     16  C   UNL     1       2.793   1.663  18.469  0.00  0.00    +0.000 C 
BRANCH  16  17
ATOM     17  O   UNL     1       1.479   1.887  17.935  0.00  0.00    +0.000 OA
ATOM     18  H   UNL     1       0.910   2.200  18.657  0.00  0.00    +0.000 HD
ENDBRANCH  16  17
ENDBRANCH  13  16
BRANCH  15  19
ATOM     19  C   UNL     1       1.696   2.674  21.470  0.00  0.00    +0.000 C 
BRANCH  19  20
ATOM     20  O   UNL     1       0.527   2.964  20.711  0.00  0.00    +0.000 OA
ATOM     21  H   UNL     1       0.067   3.690  21.162  0.00  0.00    +0.000 HD
ENDBRANCH  19  20
ENDBRANCH  15  19
ENDBRANCH  12  13
ENDBRANCH   3  12
TORSDOF 7
ENDMDL
MODEL 4
REMARK VINA RESULT:      -6.8      1.822      2.161
REMARK  Name = 
REMARK  7 active torsions:
REMARK  status: ('A' for Active; 'I' for Inactive)
REMARK    1  A    between atoms: C_2  and  C_3
REMARK    2  A    between atoms: N_5  and  C_6
REMARK    3  A    between atoms: C_6  and  C_7
REMARK    4  A    between atoms: C_7  and  C_8
REMARK    5  A    between atoms: C_8  and  O_9
REMARK    6  A    between atoms: C_11  and  C_12
REMARK    7  A    between atoms: C_12  and  O_13
REMARK                            x       y       z     vdW  Elec       q    Type
REMARK                         _______ _______ _______ _____ _____    ______ ____
ROOT
ATOM      1  C   UNL     1       6.023   4.283  15.890  0.00  0.00    +0.000 A 
ATOM      2  C   UNL     1       5.356   3.596  16.809  0.00  0.00    +0.000 A 
ATOM      3  N   UNL     1       5.408   3.927  18.149  0.00  0.00    +0.000 N 
ATOM      4  C   UNL     1       6.317   4.896  18.616  0.00  0.00    +0.000 A 
ATOM      5  O   UNL     1       6.366   5.303  19.778  0.00  0.00    +0.000 OA
ATOM      6  N   UNL     1       7.168   5.413  17.671  0.00  0.00    +0.000 N 
ATOM      7  C   UNL     1       7.018   5.288  16.337  0.00  0.00    +0.000 A 
ATOM      8  O   UNL     1       7.661   5.982  15.545  0.00  0.00    +0.000 OA
ATOM      9  H   UNL     1       7.824   6.112  17.996  0.00  0.00    +0.000 HD
ENDROOT
BRANCH   1  11
ATOM     10  C   UNL     1       5.618   3.805  13.137  0.00  0.00    +0.000 C 
ATOM     11  C   UNL     1       5.805   4.026  14.409  0.00  0.00    +0.000 C 
ENDBRANCH   1  11
BRANCH   3  12
ATOM     12  C   UNL     1       4.301   3.542  19.062  0.00  0.00    +0.000 C 
BRANCH  12  13
ATOM     13  C   UNL     1       2.939   4.121  18.687  0.00  0.00    +0.000 C 
ATOM     14  C   UNL     1       2.055   3.754  17.468  0.00  0.00    +0.000 C 
ATOM     15  C   UNL     1       1.838   3.054  18.767  0.00  0.00    +0.000 C 
BRANCH  13  16
ATOM     16  C   UNL     1       2.857   5.597  19.000  0.00  0.00    +0.000 C 
BRANCH  16  17
ATOM     17  O   UNL     1       2.882   5.791  20.422  0.00  0.00    +0.000 OA
ATOM     18  H   UNL     1       3.688   6.285  20.646  0.00  0.00    +0.000 HD
ENDBRANCH  16  17
ENDBRANCH  13  16
BRANCH  15  19
ATOM     19  C   UNL     1       0.596   3.192  19.574  0.00  0.00    +0.000 C 
BRANCH  19  20
ATOM     20  O   UNL     1       0.972   3.333  20.939  0.00  0.00    +0.000 OA
ATOM     21  H   UNL     1       1.846   2.923  21.039  0.00  0.00    +0.000 HD
ENDBRANCH  19  20
ENDBRANCH  15  19
ENDBRANCH  12  13
ENDBRANCH   3  12
TORSDOF 7
ENDMDL
MODEL 5
REMARK VINA RESULT:      -6.7      1.950      2.880
REMARK  Name = 
REMARK  7 active torsions:
REMARK  status: ('A' for Active; 'I' for Inactive)
REMARK    1  A    between atoms: C_2  and  C_3
REMARK    2  A    between atoms: N_5  and  C_6
REMARK    3  A    between atoms: C_6  and  C_7
REMARK    4  A    between atoms: C_7  and  C_8
REMARK    5  A    between atoms: C_8  and  O_9
REMARK    6  A    between atoms: C_11  and  C_12
REMARK    7  A    between atoms: C_12  and  O_13
REMARK                            x       y       z     vdW  Elec       q    Type
REMARK                         _______ _______ _______ _____ _____    ______ ____
ROOT
ATOM      1  C   UNL     1       5.018   4.921  16.082  0.00  0.00    +0.000 A 
ATOM      2  C   UNL     1       4.021   4.277  16.676  0.00  0.00    +0.000 A 
ATOM      3  N   UNL     1       3.283   4.851  17.691  0.00  0.00    +0.000 N 
ATOM      4  C   UNL     1       3.679   6.076  18.263  0.00  0.00    +0.000 A 
ATOM      5  O   UNL     1       3.030   6.690  19.114  0.00  0.00    +0.000 OA
ATOM      6  N   UNL     1       4.858   6.596  17.792  0.00  0.00    +0.000 N 
ATOM      7  C   UNL     1       5.493   6.195  16.672  0.00  0.00    +0.000 A 
ATOM      8  O   UNL     1       6.399   6.864  16.167  0.00  0.00    +0.000 OA
ATOM      9  H   UNL     1       5.151   7.477  18.196  0.00  0.00    +0.000 HD
ENDROOT
BRANCH   1  11
ATOM     10  C   UNL     1       6.269   3.863  13.782  0.00  0.00    +0.000 C 
ATOM     11  C   UNL     1       5.692   4.351  14.845  0.00  0.00    +0.000 C 
ENDBRANCH   1  11
BRANCH   3  12
ATOM     12  C   UNL     1       1.898   4.391  17.969  0.00  0.00    +0.000 C 
BRANCH  12  13
ATOM     13  C   UNL     1       1.777   3.410  19.132  0.00  0.00    +0.000 C 
ATOM     14  C   UNL     1       1.686   1.864  19.064  0.00  0.00    +0.000 C 
ATOM     15  C   UNL     1       3.018   2.513  19.238  0.00  0.00    +0.000 C 
BRANCH  13  16
ATOM     16  C   UNL     1       0.906   3.963  20.237  0.00  0.00    +0.000 C 
BRANCH  16  17
ATOM     17  O   UNL     1       1.559   5.086  20.849  0.00  0.00    +0.000 OA
ATOM     18  H   UNL     1       1.850   5.686  20.144  0.00  0.00    +0.000 HD
ENDBRANCH  16  17
ENDBRANCH  13  16
BRANCH  15  19
ATOM     19  C   UNL     1       3.845   2.369  20.465  0.00  0.00    +0.000 C 
BRANCH  19  20
ATOM     20  O   UNL     1       5.047   1.695  20.109  0.00  0.00    +0.000 OA
ATOM     21  H   UNL     1       5.009   1.529  19.153  0.00  0.00    +0.000 HD
ENDBRANCH  19  20
ENDBRANCH  15  19
ENDBRANCH  12  13
ENDBRANCH   3  12
TORSDOF 7
ENDMDL
MODEL 6
REMARK VINA RESULT:      -6.6      1.257      1.594
REMARK  Name = 
REMARK  7 active torsions:
REMARK  status: ('A' for Active; 'I' for Inactive)
REMARK    1  A    between atoms: C_2  and  C_3
REMARK    2  A    between atoms: N_5  and  C_6
REMARK    3  A    between atoms: C_6  and  C_7
REMARK    4  A    between atoms: C_7  and  C_8
REMARK    5  A    between atoms: C_8  and  O_9
REMARK    6  A    between atoms: C_11  and  C_12
REMARK    7  A    between atoms: C_12  and  O_13
REMARK                            x       y       z     vdW  Elec       q    Type
REMARK                         _______ _______ _______ _____ _____    ______ ____
ROOT
ATOM      1  C   UNL     1       5.790   4.245  14.896  0.00  0.00    +0.000 A 
ATOM      2  C   UNL     1       4.767   3.928  15.680  0.00  0.00    +0.000 A 
ATOM      3  N   UNL     1       4.577   4.524  16.910  0.00  0.00    +0.000 N 
ATOM      4  C   UNL     1       5.564   5.364  17.463  0.00  0.00    +0.000 A 
ATOM      5  O   UNL     1       5.434   5.995  18.513  0.00  0.00    +0.000 OA
ATOM      6  N   UNL     1       6.722   5.475  16.734  0.00  0.00    +0.000 N 
ATOM      7  C   UNL     1       6.872   5.095  15.449  0.00  0.00    +0.000 A 
ATOM      8  O   UNL     1       7.844   5.452  14.778  0.00  0.00    +0.000 OA
ATOM      9  H   UNL     1       7.437   6.077  17.122  0.00  0.00    +0.000 HD
ENDROOT
BRANCH   1  11
ATOM     10  C   UNL     1       5.956   3.271  12.251  0.00  0.00    +0.000 C 
ATOM     11  C   UNL     1       5.879   3.721  13.473  0.00  0.00    +0.000 C 
ENDBRANCH   1  11
BRANCH   3  12
ATOM     12  C   UNL     1       3.222   4.585  17.516  0.00  0.00    +0.000 C 
BRANCH  12  13
ATOM     13  C   UNL     1       3.052   3.737  18.775  0.00  0.00    +0.000 C 
ATOM     14  C   UNL     1       2.946   4.227  20.241  0.00  0.00    +0.000 C 
ATOM     15  C   UNL     1       1.700   4.007  19.451  0.00  0.00    +0.000 C 
BRANCH  13  16
ATOM     16  C   UNL     1       3.828   2.444  18.683  0.00  0.00    +0.000 C 
BRANCH  16  17
ATOM     17  O   UNL     1       3.094   1.496  17.893  0.00  0.00    +0.000 OA
ATOM     18  H   UNL     1       3.174   1.753  16.961  0.00  0.00    +0.000 HD
ENDBRANCH  16  17
ENDBRANCH  13  16
BRANCH  15  19
ATOM     19  C   UNL     1       0.701   2.954  19.774  0.00  0.00    +0.000 C 
BRANCH  19  20
ATOM     20  O   UNL     1       0.319   2.323  18.557  0.00  0.00    +0.000 OA
ATOM     21  H   UNL     1      -0.412   1.719  18.766  0.00  0.00    +0.000 HD
ENDBRANCH  19  20
ENDBRANCH  15  19
ENDBRANCH  12  13
ENDBRANCH   3  12
TORSDOF 7
ENDMDL
MODEL 7
REMARK VINA RESULT:      -6.6      1.378      1.831
REMARK  Name = 
REMARK  7 active torsions:
REMARK  status: ('A' for Active; 'I' for Inactive)
REMARK    1  A    between atoms: C_2  and  C_3
REMARK    2  A    between atoms: N_5  and  C_6
REMARK    3  A    between atoms: C_6  and  C_7
REMARK    4  A    between atoms: C_7  and  C_8
REMARK    5  A    between atoms: C_8  and  O_9
REMARK    6  A    between atoms: C_11  and  C_12
REMARK    7  A    between atoms: C_12  and  O_13
REMARK                            x       y       z     vdW  Elec       q    Type
REMARK                         _______ _______ _______ _____ _____    ______ ____
ROOT
ATOM      1  C   UNL     1       6.104   4.119  15.082  0.00  0.00    +0.000 A 
ATOM      2  C   UNL     1       5.503   3.585  16.138  0.00  0.00    +0.000 A 
ATOM      3  N   UNL     1       5.748   4.029  17.421  0.00  0.00    +0.000 N 
ATOM      4  C   UNL     1       6.786   4.947  17.678  0.00  0.00    +0.000 A 
ATOM      5  O   UNL     1       7.014   5.451  18.780  0.00  0.00    +0.000 OA
ATOM      6  N   UNL     1       7.553   5.292  16.593  0.00  0.00    +0.000 N 
ATOM      7  C   UNL     1       7.228   5.061  15.305  0.00  0.00    +0.000 A 
ATOM      8  O   UNL     1       7.823   5.616  14.378  0.00  0.00    +0.000 OA
ATOM      9  H   UNL     1       8.300   5.952  16.767  0.00  0.00    +0.000 HD
ENDROOT
BRANCH   1  11
ATOM     10  C   UNL     1       5.322   3.434  12.457  0.00  0.00    +0.000 C 
ATOM     11  C   UNL     1       5.683   3.750  13.670  0.00  0.00    +0.000 C 
ENDBRANCH   1  11
BRANCH   3  12
ATOM     12  C   UNL     1       4.737   3.836  18.492  0.00  0.00    +0.000 C 
BRANCH  12  13
ATOM     13  C   UNL     1       3.335   4.327  18.135  0.00  0.00    +0.000 C 
ATOM     14  C   UNL     1       2.226   3.559  17.372  0.00  0.00    +0.000 C 
ATOM     15  C   UNL     1       2.257   3.511  18.862  0.00  0.00    +0.000 C 
BRANCH  13  16
ATOM     16  C   UNL     1       3.335   5.794  17.774  0.00  0.00    +0.000 C 
BRANCH  16  17
ATOM     17  O   UNL     1       3.546   6.582  18.955  0.00  0.00    +0.000 OA
ATOM     18  H   UNL     1       2.872   6.334  19.608  0.00  0.00    +0.000 HD
ENDBRANCH  16  17
ENDBRANCH  13  16
BRANCH  15  19
ATOM     19  C   UNL     1       1.197   4.103  19.721  0.00  0.00    +0.000 C 
BRANCH  19  20
ATOM     20  O   UNL     1       0.366   3.045  20.185  0.00  0.00    +0.000 OA
ATOM     21  H   UNL     1       0.203   2.457  19.430  0.00  0.00    +0.000 HD
ENDBRANCH  19  20
ENDBRANCH  15  19
ENDBRANCH  12  13
ENDBRANCH   3  12
TORSDOF 7
ENDMDL
MODEL 8
REMARK VINA RESULT:      -6.5      2.235      3.614
REMARK  Name = 
REMARK  7 active torsions:
REMARK  status: ('A' for Active; 'I' for Inactive)
REMARK    1  A    between atoms: C_2  and  C_3
REMARK    2  A    between atoms: N_5  and  C_6
REMARK    3  A    between atoms: C_6  and  C_7
REMARK    4  A    between atoms: C_7  and  C_8
REMARK    5  A    between atoms: C_8  and  O_9
REMARK    6  A    between atoms: C_11  and  C_12
REMARK    7  A    between atoms: C_12  and  O_13
REMARK                            x       y       z     vdW  Elec       q    Type
REMARK                         _______ _______ _______ _____ _____    ______ ____
ROOT
ATOM      1  C   UNL     1       6.564   6.281  17.332  0.00  0.00    +0.000 A 
ATOM      2  C   UNL     1       5.610   5.924  18.183  0.00  0.00    +0.000 A 
ATOM      3  N   UNL     1       4.924   4.733  18.054  0.00  0.00    +0.000 N 
ATOM      4  C   UNL     1       5.085   3.931  16.907  0.00  0.00    +0.000 A 
ATOM      5  O   UNL     1       4.572   2.821  16.756  0.00  0.00    +0.000 OA
ATOM      6  N   UNL     1       5.895   4.453  15.929  0.00  0.00    +0.000 N 
ATOM      7  C   UNL     1       6.743   5.488  16.092  0.00  0.00    +0.000 A 
ATOM      8  O   UNL     1       7.622   5.741  15.263  0.00  0.00    +0.000 OA
ATOM      9  H   UNL     1       6.018   3.883  15.101  0.00  0.00    +0.000 HD
ENDROOT
BRANCH   1  11
ATOM     10  C   UNL     1       8.183   8.542  17.821  0.00  0.00    +0.000 C 
ATOM     11  C   UNL     1       7.435   7.498  17.595  0.00  0.00    +0.000 C 
ENDBRANCH   1  11
BRANCH   3  12
ATOM     12  C   UNL     1       4.285   4.101  19.237  0.00  0.00    +0.000 C 
BRANCH  12  13
ATOM     13  C   UNL     1       2.762   4.208  19.266  0.00  0.00    +0.000 C 
ATOM     14  C   UNL     1       1.735   3.339  18.496  0.00  0.00    +0.000 C 
ATOM     15  C   UNL     1       2.126   2.953  19.882  0.00  0.00    +0.000 C 
BRANCH  13  16
ATOM     16  C   UNL     1       2.307   5.645  19.356  0.00  0.00    +0.000 C 
BRANCH  16  17
ATOM     17  O   UNL     1       2.604   6.165  20.661  0.00  0.00    +0.000 OA
ATOM     18  H   UNL     1       2.488   7.128  20.636  0.00  0.00    +0.000 HD
ENDBRANCH  16  17
ENDBRANCH  13  16
BRANCH  15  19
ATOM     19  C   UNL     1       1.185   2.970  21.033  0.00  0.00    +0.000 C 
BRANCH  19  20
ATOM     20  O   UNL     1       1.955   2.946  22.230  0.00  0.00    +0.000 OA
ATOM     21  H   UNL     1       2.858   3.215  21.995  0.00  0.00    +0.000 HD
ENDBRANCH  19  20
ENDBRANCH  15  19
ENDBRANCH  12  13
ENDBRANCH   3  12
TORSDOF 7
ENDMDL
MODEL 9
REMARK VINA RESULT:      -6.5      1.882      2.498
REMARK  Name = 
REMARK  7 active torsions:
REMARK  status: ('A' for Active; 'I' for Inactive)
REMARK    1  A    between atoms: C_2  and  C_3
REMARK    2  A    between atoms: N_5  and  C_6
REMARK    3  A    between atoms: C_6  and  C_7
REMARK    4  A    between atoms: C_7  and  C_8
REMARK    5  A    between atoms: C_8  and  O_9
REMARK    6  A    between atoms: C_11  and  C_12
REMARK    7  A    between atoms: C_12  and  O_13
REMARK                            x       y       z     vdW  Elec       q    Type
REMARK                         _______ _______ _______ _____ _____    ______ ____
ROOT
ATOM      1  C   UNL     1       5.645   4.154  15.544  0.00  0.00    +0.000 A 
ATOM      2  C   UNL     1       4.572   4.009  16.312  0.00  0.00    +0.000 A 
ATOM      3  N   UNL     1       4.554   4.424  17.628  0.00  0.00    +0.000 N 
ATOM      4  C   UNL     1       5.736   4.853  18.263  0.00  0.00    +0.000 A 
ATOM      5  O   UNL     1       5.786   5.314  19.405  0.00  0.00    +0.000 OA
ATOM      6  N   UNL     1       6.880   4.756  17.511  0.00  0.00    +0.000 N 
ATOM      7  C   UNL     1       6.921   4.566  16.177  0.00  0.00    +0.000 A 
ATOM      8  O   UNL     1       7.956   4.744  15.529  0.00  0.00    +0.000 OA
ATOM      9  H   UNL     1       7.735   5.063  17.958  0.00  0.00    +0.000 HD
ENDROOT
BRANCH   1  11
ATOM     10  C   UNL     1       5.536   3.621  12.774  0.00  0.00    +0.000 C 
ATOM     11  C   UNL     1       5.586   3.868  14.053  0.00  0.00    +0.000 C 
ENDBRANCH   1  11
BRANCH   3  12
ATOM     12  C   UNL     1       3.269   4.759  18.295  0.00  0.00    +0.000 C 
BRANCH  12  13
ATOM     13  C   UNL     1       2.599   3.585  19.006  0.00  0.00    +0.000 C 
ATOM     14  C   UNL     1       3.284   2.388  19.713  0.00  0.00    +0.000 C 
ATOM     15  C   UNL     1       2.910   3.593  20.509  0.00  0.00    +0.000 C 
BRANCH  13  16
ATOM     16  C   UNL     1       1.336   3.154  18.298  0.00  0.00    +0.000 C 
BRANCH  16  17
ATOM     17  O   UNL     1       1.022   4.092  17.258  0.00  0.00    +0.000 OA
ATOM     18  H   UNL     1       1.821   4.607  17.064  0.00  0.00    +0.000 HD
ENDBRANCH  16  17
ENDBRANCH  13  16
BRANCH  15  19
ATOM     19  C   UNL     1       1.875   3.578  21.578  0.00  0.00    +0.000 C 
BRANCH  19  20
ATOM     20  O   UNL     1       1.817   2.262  22.115  0.00  0.00    +0.000 OA
ATOM     21  H   UNL     1       1.198   2.286  22.863  0.00  0.00    +0.000 HD
ENDBRANCH  19  20
ENDBRANCH  15  19
ENDBRANCH  12  13
ENDBRANCH   3  12
TORSDOF 7
ENDMDL
