MODEL 1
REMARK VINA RESULT:      -9.1      0.000      0.000
REMARK  Name = 
REMARK  4 active torsions:
REMARK  status: ('A' for Active; 'I' for Inactive)
REMARK    1  A    between atoms: C_1  and  O_2
REMARK    2  A    between atoms: O_2  and  C_3
REMARK    3  A    between atoms: N_7  and  C_8
REMARK    4  A    between atoms: C_19  and  C_20
REMARK                            x       y       z     vdW  Elec       q    Type
REMARK                         _______ _______ _______ _____ _____    ______ ____
ROOT
ATOM      1  C   UNL     1       3.085   3.888  19.712  0.00  0.00    +0.000 C 
ATOM      2  C   UNL     1       1.895   4.272  20.558  0.00  0.00    +0.000 C 
ATOM      3  C   UNL     1       1.833   5.776  20.505  0.00  0.00    +0.000 C 
ATOM      4  C   UNL     1       2.597   6.523  19.650  0.00  0.00    +0.000 C 
ATOM      5  N   UNL     1       2.186   7.828  19.294  0.00  0.00    +0.000 N 
ATOM      6  C   UNL     1       2.658   8.137  18.021  0.00  0.00    +0.000 C 
ATOM      7  O   UNL     1       2.617   9.209  17.432  0.00  0.00    +0.000 OA
ATOM      8  C   UNL     1       3.264   6.917  17.406  0.00  0.00    +0.000 C 
ATOM      9  C   UNL     1       3.451   5.858  18.512  0.00  0.00    +0.000 C 
ATOM     10  O   UNL     1       2.833   4.535  18.422  0.00  0.00    +0.000 OA
ENDROOT
BRANCH   5  11
ATOM     11  C   UNL     1       1.189   8.672  19.937  0.00  0.00    +0.000 A 
ATOM     12  C   UNL     1       1.043   8.672  21.341  0.00  0.00    +0.000 A 
ATOM     13  C   UNL     1       0.188   9.564  22.003  0.00  0.00    +0.000 A 
ATOM     14 CL   UNL     1       0.064   9.514  23.720  0.00  0.00    +0.000 Cl
ATOM     15  C   UNL     1      -0.539  10.506  21.294  0.00  0.00    +0.000 A 
ATOM     16  C   UNL     1      -0.430  10.518  19.911  0.00  0.00    +0.000 A 
ATOM     17 CL   UNL     1      -1.288  11.711  19.012  0.00  0.00    +0.000 Cl
ATOM     18  C   UNL     1       0.391   9.596  19.238  0.00  0.00    +0.000 A 
ENDBRANCH   5  11
BRANCH   9  19
ATOM     19  C   UNL     1       4.880   5.391  18.140  0.00  0.00    +0.000 A 
ATOM     20  C   UNL     1       6.077   5.465  18.834  0.00  0.00    +0.000 A 
ATOM     21  C   UNL     1       7.272   5.025  18.203  0.00  0.00    +0.000 A 
ATOM     22  C   UNL     1       7.303   4.510  16.903  0.00  0.00    +0.000 A 
ATOM     23  C   UNL     1       6.126   4.417  16.181  0.00  0.00    +0.000 A 
ATOM     24  C   UNL     1       4.963   4.860  16.793  0.00  0.00    +0.000 A 
ENDBRANCH   9  19
BRANCH   1  26
ATOM     25  C   UNL     1       3.291   1.899  18.430  0.00  0.00    +0.000 C 
ATOM     26  O   UNL     1       3.405   2.522  19.688  0.00  0.00    +0.000 OA
ENDBRANCH   1  26
TORSDOF 3
ENDMDL
MODEL 2
REMARK VINA RESULT:      -9.1      0.213      1.767
REMARK  Name = 
REMARK  4 active torsions:
REMARK  status: ('A' for Active; 'I' for Inactive)
REMARK    1  A    between atoms: C_1  and  O_2
REMARK    2  A    between atoms: O_2  and  C_3
REMARK    3  A    between atoms: N_7  and  C_8
REMARK    4  A    between atoms: C_19  and  C_20
REMARK                            x       y       z     vdW  Elec       q    Type
REMARK                         _______ _______ _______ _____ _____    ______ ____
ROOT
ATOM      1  C   UNL     1       2.981   3.962  19.692  0.00  0.00    +0.000 C 
ATOM      2  C   UNL     1       1.849   4.396  20.592  0.00  0.00    +0.000 C 
ATOM      3  C   UNL     1       1.842   5.902  20.530  0.00  0.00    +0.000 C 
ATOM      4  C   UNL     1       2.592   6.614  19.634  0.00  0.00    +0.000 C 
ATOM      5  N   UNL     1       2.215   7.931  19.288  0.00  0.00    +0.000 N 
ATOM      6  C   UNL     1       2.637   8.214  17.991  0.00  0.00    +0.000 C 
ATOM      7  O   UNL     1       2.608   9.283  17.396  0.00  0.00    +0.000 OA
ATOM      8  C   UNL     1       3.165   6.968  17.357  0.00  0.00    +0.000 C 
ATOM      9  C   UNL     1       3.363   5.908  18.461  0.00  0.00    +0.000 C 
ATOM     10  O   UNL     1       2.692   4.611  18.411  0.00  0.00    +0.000 OA
ENDROOT
BRANCH   5  11
ATOM     11  C   UNL     1       1.284   8.817  19.972  0.00  0.00    +0.000 A 
ATOM     12  C   UNL     1       0.376   9.612  19.240  0.00  0.00    +0.000 A 
ATOM     13  C   UNL     1      -0.619  10.377  19.865  0.00  0.00    +0.000 A 
ATOM     14 CL   UNL     1      -1.700  11.318  18.909  0.00  0.00    +0.000 Cl
ATOM     15  C   UNL     1      -0.764  10.361  21.242  0.00  0.00    +0.000 A 
ATOM     16  C   UNL     1       0.126   9.602  21.990  0.00  0.00    +0.000 A 
ATOM     17 CL   UNL     1      -0.064   9.531  23.701  0.00  0.00    +0.000 Cl
ATOM     18  C   UNL     1       1.155   8.870  21.372  0.00  0.00    +0.000 A 
ENDBRANCH   5  11
BRANCH   9  19
ATOM     19  C   UNL     1       4.753   5.384  18.024  0.00  0.00    +0.000 A 
ATOM     20  C   UNL     1       5.971   5.357  18.686  0.00  0.00    +0.000 A 
ATOM     21  C   UNL     1       7.123   4.885  17.998  0.00  0.00    +0.000 A 
ATOM     22  C   UNL     1       7.090   4.437  16.674  0.00  0.00    +0.000 A 
ATOM     23  C   UNL     1       5.890   4.447  15.983  0.00  0.00    +0.000 A 
ATOM     24  C   UNL     1       4.770   4.920  16.650  0.00  0.00    +0.000 A 
ENDBRANCH   9  19
BRANCH   1  26
ATOM     25  C   UNL     1       3.215   1.992  18.386  0.00  0.00    +0.000 C 
ATOM     26  O   UNL     1       3.245   2.584  19.663  0.00  0.00    +0.000 OA
ENDBRANCH   1  26
TORSDOF 3
ENDMDL
MODEL 3
REMARK VINA RESULT:      -8.2      2.227      4.206
REMARK  Name = 
REMARK  4 active torsions:
REMARK  status: ('A' for Active; 'I' for Inactive)
REMARK    1  A    between atoms: C_1  and  O_2
REMARK    2  A    between atoms: O_2  and  C_3
REMARK    3  A    between atoms: N_7  and  C_8
REMARK    4  A    between atoms: C_19  and  C_20
REMARK                            x       y       z     vdW  Elec       q    Type
REMARK                         _______ _______ _______ _____ _____    ______ ____
ROOT
ATOM      1  C   UNL     1       3.823   5.988  17.911  0.00  0.00    +0.000 C 
ATOM      2  C   UNL     1       3.941   7.317  17.206  0.00  0.00    +0.000 C 
ATOM      3  C   UNL     1       2.761   8.127  17.677  0.00  0.00    +0.000 C 
ATOM      4  C   UNL     1       1.949   7.733  18.704  0.00  0.00    +0.000 C 
ATOM      5  N   UNL     1       1.187   8.692  19.410  0.00  0.00    +0.000 N 
ATOM      6  C   UNL     1       0.985   8.259  20.719  0.00  0.00    +0.000 C 
ATOM      7  O   UNL     1       0.273   8.751  21.583  0.00  0.00    +0.000 OA
ATOM      8  C   UNL     1       1.803   7.033  20.969  0.00  0.00    +0.000 C 
ATOM      9  C   UNL     1       2.307   6.501  19.611  0.00  0.00    +0.000 C 
ATOM     10  O   UNL     1       3.733   6.339  19.330  0.00  0.00    +0.000 OA
ENDROOT
BRANCH   5  11
ATOM     11  C   UNL     1       0.876  10.062  19.028  0.00  0.00    +0.000 A 
ATOM     12  C   UNL     1      -0.445  10.436  18.702  0.00  0.00    +0.000 A 
ATOM     13  C   UNL     1      -0.805  11.768  18.456  0.00  0.00    +0.000 A 
ATOM     14 CL   UNL     1      -2.439  12.155  18.070  0.00  0.00    +0.000 Cl
ATOM     15  C   UNL     1       0.132  12.783  18.551  0.00  0.00    +0.000 A 
ATOM     16  C   UNL     1       1.443  12.445  18.853  0.00  0.00    +0.000 A 
ATOM     17 CL   UNL     1       2.616  13.695  19.021  0.00  0.00    +0.000 Cl
ATOM     18  C   UNL     1       1.820  11.105  19.055  0.00  0.00    +0.000 A 
ENDBRANCH   5  11
BRANCH   9  19
ATOM     19  C   UNL     1       2.019   4.996  19.837  0.00  0.00    +0.000 A 
ATOM     20  C   UNL     1       1.448   4.040  19.012  0.00  0.00    +0.000 A 
ATOM     21  C   UNL     1       1.224   2.731  19.521  0.00  0.00    +0.000 A 
ATOM     22  C   UNL     1       1.559   2.352  20.825  0.00  0.00    +0.000 A 
ATOM     23  C   UNL     1       2.134   3.280  21.676  0.00  0.00    +0.000 A 
ATOM     24  C   UNL     1       2.339   4.560  21.182  0.00  0.00    +0.000 A 
ENDBRANCH   9  19
BRANCH   1  26
ATOM     25  C   UNL     1       5.464   4.427  18.628  0.00  0.00    +0.000 C 
ATOM     26  O   UNL     1       4.773   5.018  17.553  0.00  0.00    +0.000 OA
ENDBRANCH   1  26
TORSDOF 3
ENDMDL
MODEL 4
REMARK VINA RESULT:      -8.1      3.195      7.247
REMARK  Name = 
REMARK  4 active torsions:
REMARK  status: ('A' for Active; 'I' for Inactive)
REMARK    1  A    between atoms: C_1  and  O_2
REMARK    2  A    between atoms: O_2  and  C_3
REMARK    3  A    between atoms: N_7  and  C_8
REMARK    4  A    between atoms: C_19  and  C_20
REMARK                            x       y       z     vdW  Elec       q    Type
REMARK                         _______ _______ _______ _____ _____    ______ ____
ROOT
ATOM      1  C   UNL     1       0.408  10.193  21.457  0.00  0.00    +0.000 C 
ATOM      2  C   UNL     1       1.093   9.096  22.236  0.00  0.00    +0.000 C 
ATOM      3  C   UNL     1       1.490   8.064  21.213  0.00  0.00    +0.000 C 
ATOM      4  C   UNL     1       1.410   8.283  19.865  0.00  0.00    +0.000 C 
ATOM      5  N   UNL     1       2.208   7.524  18.979  0.00  0.00    +0.000 N 
ATOM      6  C   UNL     1       2.485   8.273  17.838  0.00  0.00    +0.000 C 
ATOM      7  O   UNL     1       3.031   7.914  16.804  0.00  0.00    +0.000 OA
ATOM      8  C   UNL     1       2.008   9.676  18.037  0.00  0.00    +0.000 C 
ATOM      9  C   UNL     1       1.092   9.706  19.279  0.00  0.00    +0.000 C 
ATOM     10  O   UNL     1       1.381  10.564  20.427  0.00  0.00    +0.000 OA
ENDROOT
BRANCH   5  11
ATOM     11  C   UNL     1       2.923   6.283  19.239  0.00  0.00    +0.000 A 
ATOM     12  C   UNL     1       2.240   5.143  19.713  0.00  0.00    +0.000 A 
ATOM     13  C   UNL     1       2.869   3.898  19.851  0.00  0.00    +0.000 A 
ATOM     14 CL   UNL     1       1.971   2.546  20.428  0.00  0.00    +0.000 Cl
ATOM     15  C   UNL     1       4.199   3.735  19.500  0.00  0.00    +0.000 A 
ATOM     16  C   UNL     1       4.903   4.842  19.048  0.00  0.00    +0.000 A 
ATOM     17 CL   UNL     1       6.544   4.652  18.563  0.00  0.00    +0.000 Cl
ATOM     18  C   UNL     1       4.289   6.104  18.951  0.00  0.00    +0.000 A 
ENDBRANCH   5  11
BRANCH   9  19
ATOM     19  C   UNL     1      -0.042  10.589  18.702  0.00  0.00    +0.000 A 
ATOM     20  C   UNL     1      -0.274  11.953  18.790  0.00  0.00    +0.000 A 
ATOM     21  C   UNL     1      -1.462  12.491  18.224  0.00  0.00    +0.000 A 
ATOM     22  C   UNL     1      -2.419  11.707  17.571  0.00  0.00    +0.000 A 
ATOM     23  C   UNL     1      -2.218  10.341  17.461  0.00  0.00    +0.000 A 
ATOM     24  C   UNL     1      -1.065   9.816  18.026  0.00  0.00    +0.000 A 
ENDBRANCH   9  19
BRANCH   1  26
ATOM     25  C   UNL     1      -1.161  10.855  23.114  0.00  0.00    +0.000 C 
ATOM     26  O   UNL     1      -0.141  11.235  22.220  0.00  0.00    +0.000 OA
ENDBRANCH   1  26
TORSDOF 3
ENDMDL
MODEL 5
REMARK VINA RESULT:      -8.1      2.244      4.138
REMARK  Name = 
REMARK  4 active torsions:
REMARK  status: ('A' for Active; 'I' for Inactive)
REMARK    1  A    between atoms: C_1  and  O_2
REMARK    2  A    between atoms: O_2  and  C_3
REMARK    3  A    between atoms: N_7  and  C_8
REMARK    4  A    between atoms: C_19  and  C_20
REMARK                            x       y       z     vdW  Elec       q    Type
REMARK                         _______ _______ _______ _____ _____    ______ ____
ROOT
ATOM      1  C   UNL     1       3.720   6.133  18.186  0.00  0.00    +0.000 C 
ATOM      2  C   UNL     1       3.741   7.405  17.374  0.00  0.00    +0.000 C 
ATOM      3  C   UNL     1       2.525   8.180  17.809  0.00  0.00    +0.000 C 
ATOM      4  C   UNL     1       1.761   7.824  18.887  0.00  0.00    +0.000 C 
ATOM      5  N   UNL     1       0.959   8.792  19.534  0.00  0.00    +0.000 N 
ATOM      6  C   UNL     1       0.813   8.456  20.878  0.00  0.00    +0.000 C 
ATOM      7  O   UNL     1       0.091   8.975  21.719  0.00  0.00    +0.000 OA
ATOM      8  C   UNL     1       1.709   7.305  21.204  0.00  0.00    +0.000 C 
ATOM      9  C   UNL     1       2.214   6.694  19.880  0.00  0.00    +0.000 C 
ATOM     10  O   UNL     1       3.640   6.593  19.575  0.00  0.00    +0.000 OA
ENDROOT
BRANCH   5  11
ATOM     11  C   UNL     1       0.557  10.105  19.052  0.00  0.00    +0.000 A 
ATOM     12  C   UNL     1      -0.742  10.319  18.543  0.00  0.00    +0.000 A 
ATOM     13  C   UNL     1      -1.206  11.594  18.192  0.00  0.00    +0.000 A 
ATOM     14 CL   UNL     1      -2.807  11.784  17.585  0.00  0.00    +0.000 Cl
ATOM     15  C   UNL     1      -0.403  12.710  18.356  0.00  0.00    +0.000 A 
ATOM     16  C   UNL     1       0.886  12.529  18.837  0.00  0.00    +0.000 A 
ATOM     17 CL   UNL     1       1.888  13.907  19.093  0.00  0.00    +0.000 Cl
ATOM     18  C   UNL     1       1.374  11.247  19.148  0.00  0.00    +0.000 A 
ENDBRANCH   5  11
BRANCH   9  19
ATOM     19  C   UNL     1       2.022   5.199  20.234  0.00  0.00    +0.000 A 
ATOM     20  C   UNL     1       2.450   4.454  21.322  0.00  0.00    +0.000 A 
ATOM     21  C   UNL     1       2.198   3.055  21.346  0.00  0.00    +0.000 A 
ATOM     22  C   UNL     1       1.528   2.383  20.318  0.00  0.00    +0.000 A 
ATOM     23  C   UNL     1       1.083   3.095  19.218  0.00  0.00    +0.000 A 
ATOM     24  C   UNL     1       1.342   4.458  19.190  0.00  0.00    +0.000 A 
ENDBRANCH   9  19
BRANCH   1  26
ATOM     25  C   UNL     1       5.568   4.852  18.952  0.00  0.00    +0.000 C 
ATOM     26  O   UNL     1       4.718   5.195  17.882  0.00  0.00    +0.000 OA
ENDBRANCH   1  26
TORSDOF 3
ENDMDL
MODEL 6
REMARK VINA RESULT:      -7.9      2.154      4.168
REMARK  Name = 
REMARK  4 active torsions:
REMARK  status: ('A' for Active; 'I' for Inactive)
REMARK    1  A    between atoms: C_1  and  O_2
REMARK    2  A    between atoms: O_2  and  C_3
REMARK    3  A    between atoms: N_7  and  C_8
REMARK    4  A    between atoms: C_19  and  C_20
REMARK                            x       y       z     vdW  Elec       q    Type
REMARK                         _______ _______ _______ _____ _____    ______ ____
ROOT
ATOM      1  C   UNL     1       3.711   6.109  17.880  0.00  0.00    +0.000 C 
ATOM      2  C   UNL     1       3.806   7.467  17.229  0.00  0.00    +0.000 C 
ATOM      3  C   UNL     1       2.654   8.262  17.788  0.00  0.00    +0.000 C 
ATOM      4  C   UNL     1       1.887   7.826  18.834  0.00  0.00    +0.000 C 
ATOM      5  N   UNL     1       1.165   8.757  19.615  0.00  0.00    +0.000 N 
ATOM      6  C   UNL     1       1.020   8.268  20.911  0.00  0.00    +0.000 C 
ATOM      7  O   UNL     1       0.351   8.725  21.828  0.00  0.00    +0.000 OA
ATOM      8  C   UNL     1       1.840   7.028  21.070  0.00  0.00    +0.000 C 
ATOM      9  C   UNL     1       2.278   6.553  19.669  0.00  0.00    +0.000 C 
ATOM     10  O   UNL     1       3.688   6.398  19.316  0.00  0.00    +0.000 OA
ENDROOT
BRANCH   5  11
ATOM     11  C   UNL     1       0.846  10.143  19.309  0.00  0.00    +0.000 A 
ATOM     12  C   UNL     1       1.870  11.076  19.040  0.00  0.00    +0.000 A 
ATOM     13  C   UNL     1       1.597  12.384  18.615  0.00  0.00    +0.000 A 
ATOM     14 CL   UNL     1       2.897  13.468  18.296  0.00  0.00    +0.000 Cl
ATOM     15  C   UNL     1       0.293  12.806  18.417  0.00  0.00    +0.000 A 
ATOM     16  C   UNL     1      -0.737  11.917  18.691  0.00  0.00    +0.000 A 
ATOM     17 CL   UNL     1      -2.364  12.405  18.409  0.00  0.00    +0.000 Cl
ATOM     18  C   UNL     1      -0.471  10.619  19.162  0.00  0.00    +0.000 A 
ENDBRANCH   5  11
BRANCH   9  19
ATOM     19  C   UNL     1       1.990   5.042  19.842  0.00  0.00    +0.000 A 
ATOM     20  C   UNL     1       1.396   4.121  18.994  0.00  0.00    +0.000 A 
ATOM     21  C   UNL     1       1.180   2.793  19.455  0.00  0.00    +0.000 A 
ATOM     22  C   UNL     1       1.546   2.362  20.734  0.00  0.00    +0.000 A 
ATOM     23  C   UNL     1       2.144   3.253  21.607  0.00  0.00    +0.000 A 
ATOM     24  C   UNL     1       2.341   4.552  21.160  0.00  0.00    +0.000 A 
ENDBRANCH   9  19
BRANCH   1  26
ATOM     25  C   UNL     1       5.410   4.548  18.448  0.00  0.00    +0.000 C 
ATOM     26  O   UNL     1       4.637   5.152  17.437  0.00  0.00    +0.000 OA
ENDBRANCH   1  26
TORSDOF 3
ENDMDL
MODEL 7
REMARK VINA RESULT:      -7.8      3.282      7.295
REMARK  Name = 
REMARK  4 active torsions:
REMARK  status: ('A' for Active; 'I' for Inactive)
REMARK    1  A    between atoms: C_1  and  O_2
REMARK    2  A    between atoms: O_2  and  C_3
REMARK    3  A    between atoms: N_7  and  C_8
REMARK    4  A    between atoms: C_19  and  C_20
REMARK                            x       y       z     vdW  Elec       q    Type
REMARK                         _______ _______ _______ _____ _____    ______ ____
ROOT
ATOM      1  C   UNL     1       0.476  10.110  21.550  0.00  0.00    +0.000 C 
ATOM      2  C   UNL     1       1.187   8.969  22.236  0.00  0.00    +0.000 C 
ATOM      3  C   UNL     1       1.540   7.999  21.139  0.00  0.00    +0.000 C 
ATOM      4  C   UNL     1       1.410   8.297  19.810  0.00  0.00    +0.000 C 
ATOM      5  N   UNL     1       2.170   7.590  18.850  0.00  0.00    +0.000 N 
ATOM      6  C   UNL     1       2.405   8.406  17.746  0.00  0.00    +0.000 C 
ATOM      7  O   UNL     1       2.909   8.108  16.672  0.00  0.00    +0.000 OA
ATOM      8  C   UNL     1       1.941   9.795  18.046  0.00  0.00    +0.000 C 
ATOM      9  C   UNL     1       1.074   9.752  19.322  0.00  0.00    +0.000 C 
ATOM     10  O   UNL     1       1.410  10.540  20.506  0.00  0.00    +0.000 OA
ENDROOT
BRANCH   5  11
ATOM     11  C   UNL     1       2.890   6.336  19.010  0.00  0.00    +0.000 A 
ATOM     12  C   UNL     1       4.301   6.309  19.001  0.00  0.00    +0.000 A 
ATOM     13  C   UNL     1       5.029   5.144  19.280  0.00  0.00    +0.000 A 
ATOM     14 CL   UNL     1       6.751   5.185  19.260  0.00  0.00    +0.000 Cl
ATOM     15  C   UNL     1       4.379   3.965  19.603  0.00  0.00    +0.000 A 
ATOM     16  C   UNL     1       2.991   3.955  19.603  0.00  0.00    +0.000 A 
ATOM     17 CL   UNL     1       2.162   2.511  20.046  0.00  0.00    +0.000 Cl
ATOM     18  C   UNL     1       2.256   5.108  19.278  0.00  0.00    +0.000 A 
ENDBRANCH   5  11
BRANCH   9  19
ATOM     19  C   UNL     1      -0.078  10.669  18.843  0.00  0.00    +0.000 A 
ATOM     20  C   UNL     1      -0.257  12.040  18.940  0.00  0.00    +0.000 A 
ATOM     21  C   UNL     1      -1.474  12.614  18.479  0.00  0.00    +0.000 A 
ATOM     22  C   UNL     1      -2.510  11.858  17.921  0.00  0.00    +0.000 A 
ATOM     23  C   UNL     1      -2.365  10.486  17.805  0.00  0.00    +0.000 A 
ATOM     24  C   UNL     1      -1.183   9.926  18.268  0.00  0.00    +0.000 A 
ENDBRANCH   9  19
BRANCH   1  26
ATOM     25  C   UNL     1      -1.179  10.738  23.134  0.00  0.00    +0.000 C 
ATOM     26  O   UNL     1      -0.039  11.106  22.394  0.00  0.00    +0.000 OA
ENDBRANCH   1  26
TORSDOF 3
ENDMDL
MODEL 8
REMARK VINA RESULT:      -7.6      2.212      3.940
REMARK  Name = 
REMARK  4 active torsions:
REMARK  status: ('A' for Active; 'I' for Inactive)
REMARK    1  A    between atoms: C_1  and  O_2
REMARK    2  A    between atoms: O_2  and  C_3
REMARK    3  A    between atoms: N_7  and  C_8
REMARK    4  A    between atoms: C_19  and  C_20
REMARK                            x       y       z     vdW  Elec       q    Type
REMARK                         _______ _______ _______ _____ _____    ______ ____
ROOT
ATOM      1  C   UNL     1       3.777   6.103  18.003  0.00  0.00    +0.000 C 
ATOM      2  C   UNL     1       3.802   7.447  17.317  0.00  0.00    +0.000 C 
ATOM      3  C   UNL     1       2.603   8.190  17.846  0.00  0.00    +0.000 C 
ATOM      4  C   UNL     1       1.852   7.740  18.898  0.00  0.00    +0.000 C 
ATOM      5  N   UNL     1       1.073   8.649  19.649  0.00  0.00    +0.000 N 
ATOM      6  C   UNL     1       0.944   8.188  20.956  0.00  0.00    +0.000 C 
ATOM      7  O   UNL     1       0.243   8.631  21.856  0.00  0.00    +0.000 OA
ATOM      8  C   UNL     1       1.831   7.001  21.154  0.00  0.00    +0.000 C 
ATOM      9  C   UNL     1       2.307   6.514  19.769  0.00  0.00    +0.000 C 
ATOM     10  O   UNL     1       3.726   6.428  19.431  0.00  0.00    +0.000 OA
ENDROOT
BRANCH   5  11
ATOM     11  C   UNL     1       0.680  10.008  19.302  0.00  0.00    +0.000 A 
ATOM     12  C   UNL     1       1.637  11.043  19.245  0.00  0.00    +0.000 A 
ATOM     13  C   UNL     1       1.320  12.330  18.790  0.00  0.00    +0.000 A 
ATOM     14 CL   UNL     1       2.541  13.544  18.739  0.00  0.00    +0.000 Cl
ATOM     15  C   UNL     1       0.041  12.630  18.352  0.00  0.00    +0.000 A 
ATOM     16  C   UNL     1      -0.927  11.638  18.414  0.00  0.00    +0.000 A 
ATOM     17 CL   UNL     1      -2.513  11.975  17.832  0.00  0.00    +0.000 Cl
ATOM     18  C   UNL     1      -0.626  10.358  18.912  0.00  0.00    +0.000 A 
ENDBRANCH   5  11
BRANCH   9  19
ATOM     19  C   UNL     1       2.102   4.994  19.981  0.00  0.00    +0.000 A 
ATOM     20  C   UNL     1       2.481   4.155  21.017  0.00  0.00    +0.000 A 
ATOM     21  C   UNL     1       2.230   2.760  20.906  0.00  0.00    +0.000 A 
ATOM     22  C   UNL     1       1.609   2.183  19.794  0.00  0.00    +0.000 A 
ATOM     23  C   UNL     1       1.213   2.991  18.741  0.00  0.00    +0.000 A 
ATOM     24  C   UNL     1       1.471   4.350  18.845  0.00  0.00    +0.000 A 
ENDBRANCH   9  19
BRANCH   1  26
ATOM     25  C   UNL     1       5.525   4.621  18.630  0.00  0.00    +0.000 C 
ATOM     26  O   UNL     1       4.759   5.187  17.593  0.00  0.00    +0.000 OA
ENDBRANCH   1  26
TORSDOF 3
ENDMDL
MODEL 9
REMARK VINA RESULT:      -7.5      3.413      7.273
REMARK  Name = 
REMARK  4 active torsions:
REMARK  status: ('A' for Active; 'I' for Inactive)
REMARK    1  A    between atoms: C_1  and  O_2
REMARK    2  A    between atoms: O_2  and  C_3
REMARK    3  A    between atoms: N_7  and  C_8
REMARK    4  A    between atoms: C_19  and  C_20
REMARK                            x       y       z     vdW  Elec       q    Type
REMARK                         _______ _______ _______ _____ _____    ______ ____
ROOT
ATOM      1  C   UNL     1       0.151   9.639  21.200  0.00  0.00    +0.000 C 
ATOM      2  C   UNL     1       0.931   8.604  21.973  0.00  0.00    +0.000 C 
ATOM      3  C   UNL     1       1.512   7.680  20.934  0.00  0.00    +0.000 C 
ATOM      4  C   UNL     1       1.476   7.951  19.594  0.00  0.00    +0.000 C 
ATOM      5  N   UNL     1       2.412   7.343  18.726  0.00  0.00    +0.000 N 
ATOM      6  C   UNL     1       2.649   8.175  17.634  0.00  0.00    +0.000 C 
ATOM      7  O   UNL     1       3.291   7.938  16.620  0.00  0.00    +0.000 OA
ATOM      8  C   UNL     1       1.983   9.494  17.861  0.00  0.00    +0.000 C 
ATOM      9  C   UNL     1       1.007   9.348  19.047  0.00  0.00    +0.000 C 
ATOM     10  O   UNL     1       1.120  10.180  20.244  0.00  0.00    +0.000 OA
ENDROOT
BRANCH   5  11
ATOM     11  C   UNL     1       3.268   6.193  18.978  0.00  0.00    +0.000 A 
ATOM     12  C   UNL     1       2.744   4.883  18.943  0.00  0.00    +0.000 A 
ATOM     13  C   UNL     1       3.560   3.749  19.052  0.00  0.00    +0.000 A 
ATOM     14 CL   UNL     1       2.854   2.179  18.994  0.00  0.00    +0.000 Cl
ATOM     15  C   UNL     1       4.934   3.875  19.175  0.00  0.00    +0.000 A 
ATOM     16  C   UNL     1       5.477   5.151  19.230  0.00  0.00    +0.000 A 
ATOM     17 CL   UNL     1       7.187   5.331  19.337  0.00  0.00    +0.000 Cl
ATOM     18  C   UNL     1       4.659   6.292  19.168  0.00  0.00    +0.000 A 
ENDBRANCH   5  11
BRANCH   9  19
ATOM     19  C   UNL     1      -0.200  10.105  18.441  0.00  0.00    +0.000 A 
ATOM     20  C   UNL     1      -1.257   9.665  17.658  0.00  0.00    +0.000 A 
ATOM     21  C   UNL     1      -2.194  10.614  17.164  0.00  0.00    +0.000 A 
ATOM     22  C   UNL     1      -2.107  11.983  17.435  0.00  0.00    +0.000 A 
ATOM     23  C   UNL     1      -1.068  12.457  18.216  0.00  0.00    +0.000 A 
ATOM     24  C   UNL     1      -0.146  11.532  18.686  0.00  0.00    +0.000 A 
ENDBRANCH   9  19
BRANCH   1  26
ATOM     25  C   UNL     1      -0.774  10.200  23.315  0.00  0.00    +0.000 C 
ATOM     26  O   UNL     1      -0.569  10.565  21.970  0.00  0.00    +0.000 OA
ENDBRANCH   1  26
TORSDOF 3
ENDMDL
