MODEL 1
REMARK VINA RESULT:      -8.9      0.000      0.000
REMARK  Name = 
REMARK  6 active torsions:
REMARK  status: ('A' for Active; 'I' for Inactive)
REMARK    1  A    between atoms: C_1  and  C_2
REMARK    2  A    between atoms: C_4  and  C_5
REMARK    3  A    between atoms: C_9  and  C_10
REMARK    4  A    between atoms: C_13  and  C_14
REMARK    5  A    between atoms: C_17  and  C_18
REMARK    6  A    between atoms: C_18  and  O_20
REMARK                            x       y       z     vdW  Elec       q    Type
REMARK                         _______ _______ _______ _____ _____    ______ ____
ROOT
ATOM      1  C   UNL     1       2.004   7.029  19.935  0.00  0.00    +0.000 A 
ATOM      2  C   UNL     1       1.986   5.742  20.446  0.00  0.00    +0.000 A 
ATOM      3  C   UNL     1       2.828   4.947  19.644  0.00  0.00    +0.000 A 
ATOM      4  C   UNL     1       3.359   5.747  18.648  0.00  0.00    +0.000 A 
ATOM      5  N   UNL     1       2.855   7.011  18.851  0.00  0.00    +0.000 N 
ATOM      6  H   UNL     1       3.065   7.816  18.281  0.00  0.00    +0.000 HD
ENDROOT
BRANCH   1  15
ATOM      7  C   UNL     1      -0.244  13.996  18.698  0.00  0.00    +0.000 C 
ATOM      8  C   UNL     1      -0.142  12.820  19.624  0.00  0.00    +0.000 A 
ATOM      9  C   UNL     1      -0.790  12.821  20.860  0.00  0.00    +0.000 A 
ATOM     10  C   UNL     1      -0.755  11.696  21.700  0.00  0.00    +0.000 A 
ATOM     11  C   UNL     1      -1.473  11.761  23.022  0.00  0.00    +0.000 C 
ATOM     12  C   UNL     1      -0.066  10.530  21.287  0.00  0.00    +0.000 A 
ATOM     13  C   UNL     1      -0.060   9.338  22.038  0.00  0.00    +0.000 A 
ATOM     14  C   UNL     1       0.595   8.197  21.582  0.00  0.00    +0.000 A 
ATOM     15  C   UNL     1       1.314   8.224  20.387  0.00  0.00    +0.000 A 
ATOM     16  C   UNL     1       1.332   9.404  19.634  0.00  0.00    +0.000 A 
ATOM     17  C   UNL     1       0.628  10.545  20.053  0.00  0.00    +0.000 A 
ATOM     18  C   UNL     1       0.586  11.688  19.240  0.00  0.00    +0.000 A 
ENDBRANCH   1  15
BRANCH   4  19
ATOM     19  C   UNL     1       4.270   5.390  17.564  0.00  0.00    +0.000 A 
ATOM     20  C   UNL     1       4.701   6.394  16.694  0.00  0.00    +0.000 A 
ATOM     21  C   UNL     1       5.482   6.084  15.581  0.00  0.00    +0.000 A 
ATOM     22  C   UNL     1       5.849   4.763  15.316  0.00  0.00    +0.000 A 
ATOM     23  C   UNL     1       5.468   3.753  16.213  0.00  0.00    +0.000 A 
ATOM     24  C   UNL     1       4.680   4.070  17.333  0.00  0.00    +0.000 A 
BRANCH  22  25
ATOM     25  C   UNL     1       6.650   4.530  14.080  0.00  0.00    +0.000 C 
ATOM     26  O   UNL     1       7.462   5.339  13.675  0.00  0.00    +0.000 OA
BRANCH  25  27
ATOM     27  O   UNL     1       6.358   3.399  13.406  0.00  0.00    +0.000 OA
ATOM     28  H   UNL     1       6.107   3.491  12.472  0.00  0.00    +0.000 HD
ENDBRANCH  25  27
ENDBRANCH  22  25
ENDBRANCH   4  19
TORSDOF 4
ENDMDL
MODEL 2
REMARK VINA RESULT:      -8.9      0.550      1.094
REMARK  Name = 
REMARK  6 active torsions:
REMARK  status: ('A' for Active; 'I' for Inactive)
REMARK    1  A    between atoms: C_1  and  C_2
REMARK    2  A    between atoms: C_4  and  C_5
REMARK    3  A    between atoms: C_9  and  C_10
REMARK    4  A    between atoms: C_13  and  C_14
REMARK    5  A    between atoms: C_17  and  C_18
REMARK    6  A    between atoms: C_18  and  O_20
REMARK                            x       y       z     vdW  Elec       q    Type
REMARK                         _______ _______ _______ _____ _____    ______ ____
ROOT
ATOM      1  C   UNL     1       1.718   7.352  20.164  0.00  0.00    +0.000 A 
ATOM      2  C   UNL     1       1.806   6.076  20.695  0.00  0.00    +0.000 A 
ATOM      3  C   UNL     1       2.630   5.311  19.847  0.00  0.00    +0.000 A 
ATOM      4  C   UNL     1       3.045   6.118  18.803  0.00  0.00    +0.000 A 
ATOM      5  N   UNL     1       2.490   7.358  19.023  0.00  0.00    +0.000 N 
ATOM      6  H   UNL     1       2.615   8.162  18.427  0.00  0.00    +0.000 HD
ENDROOT
BRANCH   1  15
ATOM      7  C   UNL     1      -0.411  14.407  19.258  0.00  0.00    +0.000 C 
ATOM      8  C   UNL     1      -0.383  13.167  20.103  0.00  0.00    +0.000 A 
ATOM      9  C   UNL     1      -1.123  13.086  21.284  0.00  0.00    +0.000 A 
ATOM     10  C   UNL     1      -1.154  11.904  22.043  0.00  0.00    +0.000 A 
ATOM     11  C   UNL     1      -1.971  11.882  23.308  0.00  0.00    +0.000 C 
ATOM     12  C   UNL     1      -0.440  10.766  21.601  0.00  0.00    +0.000 A 
ATOM     13  C   UNL     1      -0.494   9.523  22.264  0.00  0.00    +0.000 A 
ATOM     14  C   UNL     1       0.191   8.412  21.779  0.00  0.00    +0.000 A 
ATOM     15  C   UNL     1       0.999   8.517  20.647  0.00  0.00    +0.000 A 
ATOM     16  C   UNL     1       1.077   9.747  19.982  0.00  0.00    +0.000 A 
ATOM     17  C   UNL     1       0.346  10.862  20.427  0.00  0.00    +0.000 A 
ATOM     18  C   UNL     1       0.369  12.060  19.696  0.00  0.00    +0.000 A 
ENDBRANCH   1  15
BRANCH   4  19
ATOM     19  C   UNL     1       3.895   5.789  17.662  0.00  0.00    +0.000 A 
ATOM     20  C   UNL     1       4.256   4.455  17.460  0.00  0.00    +0.000 A 
ATOM     21  C   UNL     1       5.153   4.106  16.450  0.00  0.00    +0.000 A 
ATOM     22  C   UNL     1       5.707   5.085  15.622  0.00  0.00    +0.000 A 
ATOM     23  C   UNL     1       5.309   6.422  15.781  0.00  0.00    +0.000 A 
ATOM     24  C   UNL     1       4.405   6.768  16.800  0.00  0.00    +0.000 A 
BRANCH  22  25
ATOM     25  C   UNL     1       6.686   4.616  14.600  0.00  0.00    +0.000 C 
ATOM     26  O   UNL     1       7.676   5.260  14.310  0.00  0.00    +0.000 OA
BRANCH  25  27
ATOM     27  O   UNL     1       6.359   3.470  13.969  0.00  0.00    +0.000 OA
ATOM     28  H   UNL     1       5.928   3.548  13.102  0.00  0.00    +0.000 HD
ENDBRANCH  25  27
ENDBRANCH  22  25
ENDBRANCH   4  19
TORSDOF 4
ENDMDL
MODEL 3
REMARK VINA RESULT:      -8.8      4.905      9.759
REMARK  Name = 
REMARK  6 active torsions:
REMARK  status: ('A' for Active; 'I' for Inactive)
REMARK    1  A    between atoms: C_1  and  C_2
REMARK    2  A    between atoms: C_4  and  C_5
REMARK    3  A    between atoms: C_9  and  C_10
REMARK    4  A    between atoms: C_13  and  C_14
REMARK    5  A    between atoms: C_17  and  C_18
REMARK    6  A    between atoms: C_18  and  O_20
REMARK                            x       y       z     vdW  Elec       q    Type
REMARK                         _______ _______ _______ _____ _____    ______ ____
ROOT
ATOM      1  C   UNL     1       1.879   8.818  18.651  0.00  0.00    +0.000 A 
ATOM      2  C   UNL     1       2.053  10.070  18.085  0.00  0.00    +0.000 A 
ATOM      3  C   UNL     1       1.256  10.983  18.803  0.00  0.00    +0.000 A 
ATOM      4  C   UNL     1       0.600  10.291  19.804  0.00  0.00    +0.000 A 
ATOM      5  N   UNL     1       1.002   8.979  19.702  0.00  0.00    +0.000 N 
ATOM      6  H   UNL     1       0.693   8.229  20.302  0.00  0.00    +0.000 HD
ENDROOT
BRANCH   1  15
ATOM      7  C   UNL     1       7.042   4.937  14.990  0.00  0.00    +0.000 C 
ATOM      8  C   UNL     1       5.822   4.956  15.862  0.00  0.00    +0.000 A 
ATOM      9  C   UNL     1       5.316   3.779  16.416  0.00  0.00    +0.000 A 
ATOM     10  C   UNL     1       4.216   3.799  17.289  0.00  0.00    +0.000 A 
ATOM     11  C   UNL     1       3.718   2.494  17.851  0.00  0.00    +0.000 C 
ATOM     12  C   UNL     1       3.613   5.033  17.632  0.00  0.00    +0.000 A 
ATOM     13  C   UNL     1       2.563   5.138  18.565  0.00  0.00    +0.000 A 
ATOM     14  C   UNL     1       2.020   6.374  18.910  0.00  0.00    +0.000 A 
ATOM     15  C   UNL     1       2.468   7.540  18.291  0.00  0.00    +0.000 A 
ATOM     16  C   UNL     1       3.501   7.454  17.350  0.00  0.00    +0.000 A 
ATOM     17  C   UNL     1       4.098   6.222  17.036  0.00  0.00    +0.000 A 
ATOM     18  C   UNL     1       5.191   6.169  16.157  0.00  0.00    +0.000 A 
ENDBRANCH   1  15
BRANCH   4  19
ATOM     19  C   UNL     1      -0.347  10.783  20.801  0.00  0.00    +0.000 A 
ATOM     20  C   UNL     1      -1.278  11.752  20.417  0.00  0.00    +0.000 A 
ATOM     21  C   UNL     1      -2.129  12.333  21.358  0.00  0.00    +0.000 A 
ATOM     22  C   UNL     1      -2.067  11.954  22.701  0.00  0.00    +0.000 A 
ATOM     23  C   UNL     1      -1.174  10.943  23.087  0.00  0.00    +0.000 A 
ATOM     24  C   UNL     1      -0.318  10.362  22.136  0.00  0.00    +0.000 A 
BRANCH  22  25
ATOM     25  C   UNL     1      -2.990  12.661  23.635  0.00  0.00    +0.000 C 
ATOM     26  O   UNL     1      -2.821  13.822  23.954  0.00  0.00    +0.000 OA
BRANCH  25  27
ATOM     27  O   UNL     1      -3.977  11.905  24.155  0.00  0.00    +0.000 OA
ATOM     28  H   UNL     1      -4.865  12.010  23.775  0.00  0.00    +0.000 HD
ENDBRANCH  25  27
ENDBRANCH  22  25
ENDBRANCH   4  19
TORSDOF 4
ENDMDL
MODEL 4
REMARK VINA RESULT:      -8.7      4.990      9.845
REMARK  Name = 
REMARK  6 active torsions:
REMARK  status: ('A' for Active; 'I' for Inactive)
REMARK    1  A    between atoms: C_1  and  C_2
REMARK    2  A    between atoms: C_4  and  C_5
REMARK    3  A    between atoms: C_9  and  C_10
REMARK    4  A    between atoms: C_13  and  C_14
REMARK    5  A    between atoms: C_17  and  C_18
REMARK    6  A    between atoms: C_18  and  O_20
REMARK                            x       y       z     vdW  Elec       q    Type
REMARK                         _______ _______ _______ _____ _____    ______ ____
ROOT
ATOM      1  C   UNL     1       1.583   9.076  18.946  0.00  0.00    +0.000 A 
ATOM      2  C   UNL     1       1.465  10.146  18.075  0.00  0.00    +0.000 A 
ATOM      3  C   UNL     1       0.618  11.099  18.675  0.00  0.00    +0.000 A 
ATOM      4  C   UNL     1       0.223  10.612  19.908  0.00  0.00    +0.000 A 
ATOM      5  N   UNL     1       0.831   9.386  20.057  0.00  0.00    +0.000 N 
ATOM      6  H   UNL     1       0.734   8.786  20.863  0.00  0.00    +0.000 HD
ENDROOT
BRANCH   1  15
ATOM      7  C   UNL     1       6.610   4.988  15.320  0.00  0.00    +0.000 C 
ATOM      8  C   UNL     1       5.603   5.111  16.425  0.00  0.00    +0.000 A 
ATOM      9  C   UNL     1       5.461   4.104  17.381  0.00  0.00    +0.000 A 
ATOM     10  C   UNL     1       4.569   4.243  18.457  0.00  0.00    +0.000 A 
ATOM     11  C   UNL     1       4.460   3.119  19.454  0.00  0.00    +0.000 C 
ATOM     12  C   UNL     1       3.809   5.429  18.592  0.00  0.00    +0.000 A 
ATOM     13  C   UNL     1       2.960   5.674  19.689  0.00  0.00    +0.000 A 
ATOM     14  C   UNL     1       2.257   6.871  19.810  0.00  0.00    +0.000 A 
ATOM     15  C   UNL     1       2.335   7.840  18.811  0.00  0.00    +0.000 A 
ATOM     16  C   UNL     1       3.162   7.609  17.705  0.00  0.00    +0.000 A 
ATOM     17  C   UNL     1       3.921   6.432  17.598  0.00  0.00    +0.000 A 
ATOM     18  C   UNL     1       4.811   6.259  16.527  0.00  0.00    +0.000 A 
ENDBRANCH   1  15
BRANCH   4  19
ATOM     19  C   UNL     1      -0.663  11.216  20.899  0.00  0.00    +0.000 A 
ATOM     20  C   UNL     1      -0.622  10.740  22.212  0.00  0.00    +0.000 A 
ATOM     21  C   UNL     1      -1.524  11.208  23.167  0.00  0.00    +0.000 A 
ATOM     22  C   UNL     1      -2.485  12.164  22.829  0.00  0.00    +0.000 A 
ATOM     23  C   UNL     1      -2.500  12.689  21.527  0.00  0.00    +0.000 A 
ATOM     24  C   UNL     1      -1.589  12.213  20.568  0.00  0.00    +0.000 A 
BRANCH  22  25
ATOM     25  C   UNL     1      -3.428  12.570  23.910  0.00  0.00    +0.000 C 
ATOM     26  O   UNL     1      -4.277  11.816  24.343  0.00  0.00    +0.000 OA
BRANCH  25  27
ATOM     27  O   UNL     1      -3.322  13.851  24.319  0.00  0.00    +0.000 OA
ATOM     28  H   UNL     1      -4.147  14.324  24.517  0.00  0.00    +0.000 HD
ENDBRANCH  25  27
ENDBRANCH  22  25
ENDBRANCH   4  19
TORSDOF 4
ENDMDL
MODEL 5
REMARK VINA RESULT:      -8.7      5.229     10.096
REMARK  Name = 
REMARK  6 active torsions:
REMARK  status: ('A' for Active; 'I' for Inactive)
REMARK    1  A    between atoms: C_1  and  C_2
REMARK    2  A    between atoms: C_4  and  C_5
REMARK    3  A    between atoms: C_9  and  C_10
REMARK    4  A    between atoms: C_13  and  C_14
REMARK    5  A    between atoms: C_17  and  C_18
REMARK    6  A    between atoms: C_18  and  O_20
REMARK                            x       y       z     vdW  Elec       q    Type
REMARK                         _______ _______ _______ _____ _____    ______ ____
ROOT
ATOM      1  C   UNL     1       1.206   9.544  19.333  0.00  0.00    +0.000 A 
ATOM      2  C   UNL     1       1.336  10.726  18.624  0.00  0.00    +0.000 A 
ATOM      3  C   UNL     1       0.465  11.673  19.199  0.00  0.00    +0.000 A 
ATOM      4  C   UNL     1      -0.193  11.070  20.255  0.00  0.00    +0.000 A 
ATOM      5  N   UNL     1       0.282   9.780  20.327  0.00  0.00    +0.000 N 
ATOM      6  H   UNL     1      -0.012   9.092  21.004  0.00  0.00    +0.000 HD
ENDROOT
BRANCH   1  15
ATOM      7  C   UNL     1       2.356   2.539  21.508  0.00  0.00    +0.000 C 
ATOM      8  C   UNL     1       2.686   3.672  20.581  0.00  0.00    +0.000 A 
ATOM      9  C   UNL     1       3.537   3.483  19.491  0.00  0.00    +0.000 A 
ATOM     10  C   UNL     1       3.795   4.521  18.581  0.00  0.00    +0.000 A 
ATOM     11  C   UNL     1       4.724   4.253  17.426  0.00  0.00    +0.000 C 
ATOM     12  C   UNL     1       3.172   5.779  18.755  0.00  0.00    +0.000 A 
ATOM     13  C   UNL     1       3.316   6.838  17.836  0.00  0.00    +0.000 A 
ATOM     14  C   UNL     1       2.655   8.051  18.018  0.00  0.00    +0.000 A 
ATOM     15  C   UNL     1       1.874   8.268  19.152  0.00  0.00    +0.000 A 
ATOM     16  C   UNL     1       1.730   7.232  20.084  0.00  0.00    +0.000 A 
ATOM     17  C   UNL     1       2.343   5.985  19.885  0.00  0.00    +0.000 A 
ATOM     18  C   UNL     1       2.115   4.932  20.784  0.00  0.00    +0.000 A 
ENDBRANCH   1  15
BRANCH   4  19
ATOM     19  C   UNL     1      -1.203  11.625  21.153  0.00  0.00    +0.000 A 
ATOM     20  C   UNL     1      -1.136  11.310  22.512  0.00  0.00    +0.000 A 
ATOM     21  C   UNL     1      -2.139  11.725  23.388  0.00  0.00    +0.000 A 
ATOM     22  C   UNL     1      -3.228  12.465  22.923  0.00  0.00    +0.000 A 
ATOM     23  C   UNL     1      -3.277  12.834  21.569  0.00  0.00    +0.000 A 
ATOM     24  C   UNL     1      -2.265  12.413  20.690  0.00  0.00    +0.000 A 
BRANCH  22  25
ATOM     25  C   UNL     1      -4.266  12.827  23.930  0.00  0.00    +0.000 C 
ATOM     26  O   UNL     1      -4.606  13.978  24.123  0.00  0.00    +0.000 OA
BRANCH  25  27
ATOM     27  O   UNL     1      -4.745  11.799  24.661  0.00  0.00    +0.000 OA
ATOM     28  H   UNL     1      -5.513  11.977  25.228  0.00  0.00    +0.000 HD
ENDBRANCH  25  27
ENDBRANCH  22  25
ENDBRANCH   4  19
TORSDOF 4
ENDMDL
MODEL 6
REMARK VINA RESULT:      -8.5      4.996      9.880
REMARK  Name = 
REMARK  6 active torsions:
REMARK  status: ('A' for Active; 'I' for Inactive)
REMARK    1  A    between atoms: C_1  and  C_2
REMARK    2  A    between atoms: C_4  and  C_5
REMARK    3  A    between atoms: C_9  and  C_10
REMARK    4  A    between atoms: C_13  and  C_14
REMARK    5  A    between atoms: C_17  and  C_18
REMARK    6  A    between atoms: C_18  and  O_20
REMARK                            x       y       z     vdW  Elec       q    Type
REMARK                         _______ _______ _______ _____ _____    ______ ____
ROOT
ATOM      1  C   UNL     1       1.816   9.119  18.634  0.00  0.00    +0.000 A 
ATOM      2  C   UNL     1       1.919  10.375  18.061  0.00  0.00    +0.000 A 
ATOM      3  C   UNL     1       1.083  11.249  18.783  0.00  0.00    +0.000 A 
ATOM      4  C   UNL     1       0.475  10.529  19.795  0.00  0.00    +0.000 A 
ATOM      5  N   UNL     1       0.944   9.239  19.694  0.00  0.00    +0.000 N 
ATOM      6  H   UNL     1       0.680   8.478  20.301  0.00  0.00    +0.000 HD
ENDROOT
BRANCH   1  15
ATOM      7  C   UNL     1       1.933   1.695  18.694  0.00  0.00    +0.000 C 
ATOM      8  C   UNL     1       2.595   2.992  18.333  0.00  0.00    +0.000 A 
ATOM      9  C   UNL     1       3.763   3.013  17.568  0.00  0.00    +0.000 A 
ATOM     10  C   UNL     1       4.349   4.226  17.169  0.00  0.00    +0.000 A 
ATOM     11  C   UNL     1       5.609   4.180  16.346  0.00  0.00    +0.000 C 
ATOM     12  C   UNL     1       3.744   5.452  17.531  0.00  0.00    +0.000 A 
ATOM     13  C   UNL     1       4.227   6.702  17.096  0.00  0.00    +0.000 A 
ATOM     14  C   UNL     1       3.582   7.888  17.439  0.00  0.00    +0.000 A 
ATOM     15  C   UNL     1       2.466   7.871  18.275  0.00  0.00    +0.000 A 
ATOM     16  C   UNL     1       1.979   6.639  18.729  0.00  0.00    +0.000 A 
ATOM     17  C   UNL     1       2.584   5.431  18.345  0.00  0.00    +0.000 A 
ATOM     18  C   UNL     1       2.029   4.204  18.738  0.00  0.00    +0.000 A 
ENDBRANCH   1  15
BRANCH   4  19
ATOM     19  C   UNL     1      -0.486  10.978  20.799  0.00  0.00    +0.000 A 
ATOM     20  C   UNL     1      -1.464  11.901  20.424  0.00  0.00    +0.000 A 
ATOM     21  C   UNL     1      -2.333  12.442  21.372  0.00  0.00    +0.000 A 
ATOM     22  C   UNL     1      -2.242  12.068  22.715  0.00  0.00    +0.000 A 
ATOM     23  C   UNL     1      -1.299  11.101  23.093  0.00  0.00    +0.000 A 
ATOM     24  C   UNL     1      -0.425  10.559  22.135  0.00  0.00    +0.000 A 
BRANCH  22  25
ATOM     25  C   UNL     1      -3.189  12.732  23.656  0.00  0.00    +0.000 C 
ATOM     26  O   UNL     1      -3.124  13.920  23.906  0.00  0.00    +0.000 OA
BRANCH  25  27
ATOM     27  O   UNL     1      -4.070  11.912  24.264  0.00  0.00    +0.000 OA
ATOM     28  H   UNL     1      -3.807  11.533  25.118  0.00  0.00    +0.000 HD
ENDBRANCH  25  27
ENDBRANCH  22  25
ENDBRANCH   4  19
TORSDOF 4
ENDMDL
MODEL 7
REMARK VINA RESULT:      -8.3      5.590     10.420
REMARK  Name = 
REMARK  6 active torsions:
REMARK  status: ('A' for Active; 'I' for Inactive)
REMARK    1  A    between atoms: C_1  and  C_2
REMARK    2  A    between atoms: C_4  and  C_5
REMARK    3  A    between atoms: C_9  and  C_10
REMARK    4  A    between atoms: C_13  and  C_14
REMARK    5  A    between atoms: C_17  and  C_18
REMARK    6  A    between atoms: C_18  and  O_20
REMARK                            x       y       z     vdW  Elec       q    Type
REMARK                         _______ _______ _______ _____ _____    ______ ____
ROOT
ATOM      1  C   UNL     1       0.661  10.552  19.754  0.00  0.00    +0.000 A 
ATOM      2  C   UNL     1       0.959  11.857  19.400  0.00  0.00    +0.000 A 
ATOM      3  C   UNL     1      -0.014  12.694  19.980  0.00  0.00    +0.000 A 
ATOM      4  C   UNL     1      -0.901  11.903  20.686  0.00  0.00    +0.000 A 
ATOM      5  N   UNL     1      -0.465  10.606  20.546  0.00  0.00    +0.000 N 
ATOM      6  H   UNL     1      -0.910   9.798  20.954  0.00  0.00    +0.000 HD
ENDROOT
BRANCH   1  15
ATOM      7  C   UNL     1       2.243   3.472  21.334  0.00  0.00    +0.000 C 
ATOM      8  C   UNL     1       2.439   4.671  20.454  0.00  0.00    +0.000 A 
ATOM      9  C   UNL     1       3.175   4.580  19.271  0.00  0.00    +0.000 A 
ATOM     10  C   UNL     1       3.303   5.682  18.408  0.00  0.00    +0.000 A 
ATOM     11  C   UNL     1       4.112   5.520  17.148  0.00  0.00    +0.000 C 
ATOM     12  C   UNL     1       2.665   6.904  18.728  0.00  0.00    +0.000 A 
ATOM     13  C   UNL     1       2.679   8.022  17.871  0.00  0.00    +0.000 A 
ATOM     14  C   UNL     1       2.006   9.196  18.199  0.00  0.00    +0.000 A 
ATOM     15  C   UNL     1       1.344   9.314  19.421  0.00  0.00    +0.000 A 
ATOM     16  C   UNL     1       1.331   8.218  20.293  0.00  0.00    +0.000 A 
ATOM     17  C   UNL     1       1.956   7.008  19.950  0.00  0.00    +0.000 A 
ATOM     18  C   UNL     1       1.855   5.895  20.797  0.00  0.00    +0.000 A 
ENDBRANCH   1  15
BRANCH   4  19
ATOM     19  C   UNL     1      -2.085  12.294  21.446  0.00  0.00    +0.000 A 
ATOM     20  C   UNL     1      -2.087  12.102  22.829  0.00  0.00    +0.000 A 
ATOM     21  C   UNL     1      -3.234  12.357  23.581  0.00  0.00    +0.000 A 
ATOM     22  C   UNL     1      -4.402  12.811  22.965  0.00  0.00    +0.000 A 
ATOM     23  C   UNL     1      -4.394  13.060  21.583  0.00  0.00    +0.000 A 
ATOM     24  C   UNL     1      -3.237  12.801  20.830  0.00  0.00    +0.000 A 
BRANCH  22  25
ATOM     25  C   UNL     1      -5.585  13.016  23.849  0.00  0.00    +0.000 C 
ATOM     26  O   UNL     1      -6.381  12.127  24.078  0.00  0.00    +0.000 OA
BRANCH  25  27
ATOM     27  O   UNL     1      -5.748  14.271  24.314  0.00  0.00    +0.000 OA
ATOM     28  H   UNL     1      -5.012  14.659  24.814  0.00  0.00    +0.000 HD
ENDBRANCH  25  27
ENDBRANCH  22  25
ENDBRANCH   4  19
TORSDOF 4
ENDMDL
MODEL 8
REMARK VINA RESULT:      -8.2      0.821      2.200
REMARK  Name = 
REMARK  6 active torsions:
REMARK  status: ('A' for Active; 'I' for Inactive)
REMARK    1  A    between atoms: C_1  and  C_2
REMARK    2  A    between atoms: C_4  and  C_5
REMARK    3  A    between atoms: C_9  and  C_10
REMARK    4  A    between atoms: C_13  and  C_14
REMARK    5  A    between atoms: C_17  and  C_18
REMARK    6  A    between atoms: C_18  and  O_20
REMARK                            x       y       z     vdW  Elec       q    Type
REMARK                         _______ _______ _______ _____ _____    ______ ____
ROOT
ATOM      1  C   UNL     1       1.805   8.089  19.530  0.00  0.00    +0.000 A 
ATOM      2  C   UNL     1       1.766   6.944  20.307  0.00  0.00    +0.000 A 
ATOM      3  C   UNL     1       2.616   5.990  19.713  0.00  0.00    +0.000 A 
ATOM      4  C   UNL     1       3.172   6.553  18.579  0.00  0.00    +0.000 A 
ATOM      5  N   UNL     1       2.675   7.833  18.493  0.00  0.00    +0.000 N 
ATOM      6  H   UNL     1       2.903   8.495  17.767  0.00  0.00    +0.000 HD
ENDROOT
BRANCH   1  15
ATOM      7  C   UNL     1      -2.546  12.535  23.583  0.00  0.00    +0.000 C 
ATOM      8  C   UNL     1      -1.776  12.288  22.320  0.00  0.00    +0.000 A 
ATOM      9  C   UNL     1      -1.625  13.293  21.363  0.00  0.00    +0.000 A 
ATOM     10  C   UNL     1      -0.848  13.090  20.211  0.00  0.00    +0.000 A 
ATOM     11  C   UNL     1      -0.725  14.214  19.216  0.00  0.00    +0.000 C 
ATOM     12  C   UNL     1      -0.190  11.852  20.016  0.00  0.00    +0.000 A 
ATOM     13  C   UNL     1       0.673  11.607  18.929  0.00  0.00    +0.000 A 
ATOM     14  C   UNL     1       1.337  10.390  18.790  0.00  0.00    +0.000 A 
ATOM     15  C   UNL     1       1.117   9.357  19.700  0.00  0.00    +0.000 A 
ATOM     16  C   UNL     1       0.252   9.577  20.779  0.00  0.00    +0.000 A 
ATOM     17  C   UNL     1      -0.379  10.818  20.964  0.00  0.00    +0.000 A 
ATOM     18  C   UNL     1      -1.172  11.046  22.099  0.00  0.00    +0.000 A 
ENDBRANCH   1  15
BRANCH   4  19
ATOM     19  C   UNL     1       4.100   5.966  17.616  0.00  0.00    +0.000 A 
ATOM     20  C   UNL     1       4.976   6.810  16.930  0.00  0.00    +0.000 A 
ATOM     21  C   UNL     1       5.802   6.312  15.923  0.00  0.00    +0.000 A 
ATOM     22  C   UNL     1       5.771   4.957  15.583  0.00  0.00    +0.000 A 
ATOM     23  C   UNL     1       4.934   4.090  16.303  0.00  0.00    +0.000 A 
ATOM     24  C   UNL     1       4.103   4.597  17.316  0.00  0.00    +0.000 A 
BRANCH  22  25
ATOM     25  C   UNL     1       6.663   4.531  14.467  0.00  0.00    +0.000 C 
ATOM     26  O   UNL     1       7.623   5.191  14.119  0.00  0.00    +0.000 OA
BRANCH  25  27
ATOM     27  O   UNL     1       6.288   3.406  13.825  0.00  0.00    +0.000 OA
ATOM     28  H   UNL     1       5.628   2.843  14.263  0.00  0.00    +0.000 HD
ENDBRANCH  25  27
ENDBRANCH  22  25
ENDBRANCH   4  19
TORSDOF 4
ENDMDL
MODEL 9
REMARK VINA RESULT:      -8.2      5.384      9.629
REMARK  Name = 
REMARK  6 active torsions:
REMARK  status: ('A' for Active; 'I' for Inactive)
REMARK    1  A    between atoms: C_1  and  C_2
REMARK    2  A    between atoms: C_4  and  C_5
REMARK    3  A    between atoms: C_9  and  C_10
REMARK    4  A    between atoms: C_13  and  C_14
REMARK    5  A    between atoms: C_17  and  C_18
REMARK    6  A    between atoms: C_18  and  O_20
REMARK                            x       y       z     vdW  Elec       q    Type
REMARK                         _______ _______ _______ _____ _____    ______ ____
ROOT
ATOM      1  C   UNL     1       0.973   9.764  18.635  0.00  0.00    +0.000 A 
ATOM      2  C   UNL     1       1.327  11.081  18.877  0.00  0.00    +0.000 A 
ATOM      3  C   UNL     1       0.166  11.869  18.750  0.00  0.00    +0.000 A 
ATOM      4  C   UNL     1      -0.891  11.036  18.435  0.00  0.00    +0.000 A 
ATOM      5  N   UNL     1      -0.381   9.759  18.382  0.00  0.00    +0.000 N 
ATOM      6  H   UNL     1      -0.916   8.930  18.174  0.00  0.00    +0.000 HD
ENDROOT
BRANCH   1  15
ATOM      7  C   UNL     1       2.444   3.021  21.373  0.00  0.00    +0.000 C 
ATOM      8  C   UNL     1       2.809   4.144  20.448  0.00  0.00    +0.000 A 
ATOM      9  C   UNL     1       3.846   4.005  19.524  0.00  0.00    +0.000 A 
ATOM     10  C   UNL     1       4.146   5.027  18.608  0.00  0.00    +0.000 A 
ATOM     11  C   UNL     1       5.278   4.816  17.638  0.00  0.00    +0.000 C 
ATOM     12  C   UNL     1       3.379   6.216  18.605  0.00  0.00    +0.000 A 
ATOM     13  C   UNL     1       3.568   7.246  17.662  0.00  0.00    +0.000 A 
ATOM     14  C   UNL     1       2.767   8.386  17.663  0.00  0.00    +0.000 A 
ATOM     15  C   UNL     1       1.788   8.562  18.640  0.00  0.00    +0.000 A 
ATOM     16  C   UNL     1       1.595   7.555  19.595  0.00  0.00    +0.000 A 
ATOM     17  C   UNL     1       2.356   6.375  19.571  0.00  0.00    +0.000 A 
ATOM     18  C   UNL     1       2.087   5.342  20.482  0.00  0.00    +0.000 A 
ENDBRANCH   1  15
BRANCH   4  19
ATOM     19  C   UNL     1      -2.290  11.373  18.186  0.00  0.00    +0.000 A 
ATOM     20  C   UNL     1      -3.038  11.935  19.224  0.00  0.00    +0.000 A 
ATOM     21  C   UNL     1      -4.404  12.171  19.070  0.00  0.00    +0.000 A 
ATOM     22  C   UNL     1      -5.050  11.851  17.874  0.00  0.00    +0.000 A 
ATOM     23  C   UNL     1      -4.298  11.336  16.806  0.00  0.00    +0.000 A 
ATOM     24  C   UNL     1      -2.922  11.099  16.966  0.00  0.00    +0.000 A 
BRANCH  22  25
ATOM     25  C   UNL     1      -6.518  12.104  17.822  0.00  0.00    +0.000 C 
ATOM     26  O   UNL     1      -7.255  11.820  18.746  0.00  0.00    +0.000 OA
BRANCH  25  27
ATOM     27  O   UNL     1      -6.979  12.598  16.655  0.00  0.00    +0.000 OA
ATOM     28  H   UNL     1      -7.777  12.187  16.283  0.00  0.00    +0.000 HD
ENDBRANCH  25  27
ENDBRANCH  22  25
ENDBRANCH   4  19
TORSDOF 4
ENDMDL
