MODEL 1
REMARK VINA RESULT:      -8.9      0.000      0.000
REMARK  Name = 
REMARK  4 active torsions:
REMARK  status: ('A' for Active; 'I' for Inactive)
REMARK    1  A    between atoms: C_2  and  C_10
REMARK    2  A    between atoms: N_3  and  C_4
REMARK    3  A    between atoms: C_21  and  N_22
REMARK    4  A    between atoms: N_22  and  C_23
REMARK                            x       y       z     vdW  Elec       q    Type
REMARK                         _______ _______ _______ _____ _____    ______ ____
ROOT
ATOM      1  C   UNL     1       7.300   5.655  18.063  0.00  0.00    +0.000 A 
ATOM      2  C   UNL     1       7.471   5.185  16.755  0.00  0.00    +0.000 A 
ATOM      3  C   UNL     1       6.457   4.429  16.178  0.00  0.00    +0.000 A 
ATOM      4  C   UNL     1       5.318   4.172  16.941  0.00  0.00    +0.000 A 
ATOM      5  C   UNL     1       5.414   4.185  18.327  0.00  0.00    +0.000 A 
ATOM      6  C   UNL     1       6.325   5.072  18.891  0.00  0.00    +0.000 A 
ATOM      7  C   UNL     1       4.230   3.665  19.035  0.00  0.00    +0.000 C 
ATOM      8  O   UNL     1       4.101   2.469  19.255  0.00  0.00    +0.000 OA
ATOM      9  C   UNL     1       3.192   4.638  19.395  0.00  0.00    +0.000 A 
ATOM     10  C   UNL     1       2.600   4.470  20.644  0.00  0.00    +0.000 A 
ATOM     11  C   UNL     1       1.950   5.545  21.223  0.00  0.00    +0.000 A 
ATOM     12  C   UNL     1       1.920   6.798  20.589  0.00  0.00    +0.000 A 
ATOM     13  C   UNL     1       2.372   6.883  19.253  0.00  0.00    +0.000 A 
ATOM     14  C   UNL     1       2.977   5.776  18.605  0.00  0.00    +0.000 A 
ATOM     15  C   UNL     1       3.409   5.848  17.130  0.00  0.00    +0.000 C 
ATOM     16  C   UNL     1       3.932   4.535  16.405  0.00  0.00    +0.000 C 
ENDROOT
BRANCH   1  18
ATOM     17  O   UNL     1       8.670   6.728  19.598  0.00  0.00    +0.000 OA
ATOM     18  C   UNL     1       8.033   6.852  18.556  0.00  0.00    +0.000 C 
ATOM     19  N   UNL     1       7.811   8.024  17.835  0.00  0.00    +0.000 N 
ATOM     20  H   UNL     1       7.135   8.008  17.087  0.00  0.00    +0.000 HD
BRANCH  19  21
ATOM     21  C   UNL     1       8.338   9.305  18.153  0.00  0.00    +0.000 A 
ATOM     22  C   UNL     1       9.247   9.523  19.191  0.00  0.00    +0.000 A 
ATOM     23  C   UNL     1       9.720  10.805  19.480  0.00  0.00    +0.000 A 
ATOM     24  C   UNL     1       9.292  11.890  18.729  0.00  0.00    +0.000 A 
ATOM     25  C   UNL     1       8.397  11.699  17.678  0.00  0.00    +0.000 A 
ATOM     26  C   UNL     1       7.925  10.408  17.389  0.00  0.00    +0.000 A 
ENDBRANCH  19  21
ENDBRANCH   1  18
BRANCH  12  27
ATOM     27  N   UNL     1       1.420   7.854  21.368  0.00  0.00    +0.000 N 
ATOM     28  H   UNL     1       1.721   7.795  22.342  0.00  0.00    +0.000 HD
BRANCH  27  29
ATOM     29  C   UNL     1       0.697   9.033  21.146  0.00  0.00    +0.000 A 
ATOM     30  C   UNL     1       0.483   9.588  19.885  0.00  0.00    +0.000 A 
ATOM     31  C   UNL     1      -0.296  10.742  19.738  0.00  0.00    +0.000 A 
ATOM     32  C   UNL     1      -0.856  11.350  20.859  0.00  0.00    +0.000 A 
ATOM     33  F   UNL     1      -1.623  12.435  20.703  0.00  0.00    +0.000 F 
ATOM     34  C   UNL     1      -0.648  10.838  22.128  0.00  0.00    +0.000 A 
ATOM     35  C   UNL     1       0.125   9.691  22.257  0.00  0.00    +0.000 A 
ATOM     36  F   UNL     1       0.312   9.179  23.487  0.00  0.00    +0.000 F 
ENDBRANCH  27  29
ENDBRANCH  12  27
TORSDOF 4
ENDMDL
MODEL 2
REMARK VINA RESULT:      -8.9      4.758      9.005
REMARK  Name = 
REMARK  4 active torsions:
REMARK  status: ('A' for Active; 'I' for Inactive)
REMARK    1  A    between atoms: C_2  and  C_10
REMARK    2  A    between atoms: N_3  and  C_4
REMARK    3  A    between atoms: C_21  and  N_22
REMARK    4  A    between atoms: N_22  and  C_23
REMARK                            x       y       z     vdW  Elec       q    Type
REMARK                         _______ _______ _______ _____ _____    ______ ____
ROOT
ATOM      1  C   UNL     1       9.468  11.361  18.076  0.00  0.00    +0.000 A 
ATOM      2  C   UNL     1      10.717  11.452  17.449  0.00  0.00    +0.000 A 
ATOM      3  C   UNL     1      11.377  12.676  17.449  0.00  0.00    +0.000 A 
ATOM      4  C   UNL     1      10.753  13.756  18.073  0.00  0.00    +0.000 A 
ATOM      5  C   UNL     1       9.369  13.761  18.192  0.00  0.00    +0.000 A 
ATOM      6  C   UNL     1       8.741  12.531  18.355  0.00  0.00    +0.000 A 
ATOM      7  C   UNL     1       8.790  15.042  18.637  0.00  0.00    +0.000 C 
ATOM      8  O   UNL     1       8.526  15.927  17.836  0.00  0.00    +0.000 OA
ATOM      9  C   UNL     1       8.617  15.224  20.083  0.00  0.00    +0.000 A 
ATOM     10  C   UNL     1       7.447  15.861  20.486  0.00  0.00    +0.000 A 
ATOM     11  C   UNL     1       7.013  15.697  21.789  0.00  0.00    +0.000 A 
ATOM     12  C   UNL     1       7.711  14.869  22.683  0.00  0.00    +0.000 A 
ATOM     13  C   UNL     1       8.982  14.386  22.297  0.00  0.00    +0.000 A 
ATOM     14  C   UNL     1       9.488  14.602  20.990  0.00  0.00    +0.000 A 
ATOM     15  C   UNL     1      10.897  14.134  20.588  0.00  0.00    +0.000 C 
ATOM     16  C   UNL     1      11.479  14.540  19.167  0.00  0.00    +0.000 C 
ENDROOT
BRANCH   1  18
ATOM     17  O   UNL     1       9.244   9.749  19.731  0.00  0.00    +0.000 OA
ATOM     18  C   UNL     1       8.950  10.060  18.580  0.00  0.00    +0.000 C 
ATOM     19  N   UNL     1       8.284   9.280  17.637  0.00  0.00    +0.000 N 
ATOM     20  H   UNL     1       8.253   9.601  16.682  0.00  0.00    +0.000 HD
BRANCH  19  21
ATOM     21  C   UNL     1       7.766   7.975  17.858  0.00  0.00    +0.000 A 
ATOM     22  C   UNL     1       8.306   7.085  18.789  0.00  0.00    +0.000 A 
ATOM     23  C   UNL     1       7.776   5.802  18.955  0.00  0.00    +0.000 A 
ATOM     24  C   UNL     1       6.692   5.394  18.193  0.00  0.00    +0.000 A 
ATOM     25  C   UNL     1       6.124   6.268  17.267  0.00  0.00    +0.000 A 
ATOM     26  C   UNL     1       6.659   7.556  17.104  0.00  0.00    +0.000 A 
ENDBRANCH  19  21
ENDBRANCH   1  18
BRANCH  12  27
ATOM     27  N   UNL     1       7.059  14.614  23.901  0.00  0.00    +0.000 N 
ATOM     28  H   UNL     1       6.448  15.383  24.183  0.00  0.00    +0.000 HD
BRANCH  27  29
ATOM     29  C   UNL     1       6.942  13.540  24.792  0.00  0.00    +0.000 A 
ATOM     30  C   UNL     1       7.446  13.549  26.092  0.00  0.00    +0.000 A 
ATOM     31  C   UNL     1       7.243  12.454  26.941  0.00  0.00    +0.000 A 
ATOM     32  C   UNL     1       6.543  11.341  26.486  0.00  0.00    +0.000 A 
ATOM     33  F   UNL     1       6.329  10.313  27.316  0.00  0.00    +0.000 F 
ATOM     34  C   UNL     1       6.045  11.289  25.195  0.00  0.00    +0.000 A 
ATOM     35  C   UNL     1       6.251  12.384  24.365  0.00  0.00    +0.000 A 
ATOM     36  F   UNL     1       5.753  12.345  23.117  0.00  0.00    +0.000 F 
ENDBRANCH  27  29
ENDBRANCH  12  27
TORSDOF 4
ENDMDL
MODEL 3
REMARK VINA RESULT:      -8.9      4.713      9.310
REMARK  Name = 
REMARK  4 active torsions:
REMARK  status: ('A' for Active; 'I' for Inactive)
REMARK    1  A    between atoms: C_2  and  C_10
REMARK    2  A    between atoms: N_3  and  C_4
REMARK    3  A    between atoms: C_21  and  N_22
REMARK    4  A    between atoms: N_22  and  C_23
REMARK                            x       y       z     vdW  Elec       q    Type
REMARK                         _______ _______ _______ _____ _____    ______ ____
ROOT
ATOM      1  C   UNL     1       0.881   9.983  19.135  0.00  0.00    +0.000 A 
ATOM      2  C   UNL     1      -0.516  10.001  19.045  0.00  0.00    +0.000 A 
ATOM      3  C   UNL     1      -1.192  11.173  19.364  0.00  0.00    +0.000 A 
ATOM      4  C   UNL     1      -0.437  12.275  19.764  0.00  0.00    +0.000 A 
ATOM      5  C   UNL     1       0.814  12.068  20.332  0.00  0.00    +0.000 A 
ATOM      6  C   UNL     1       1.545  10.975  19.878  0.00  0.00    +0.000 A 
ATOM      7  C   UNL     1       1.423  13.263  20.943  0.00  0.00    +0.000 C 
ATOM      8  O   UNL     1       1.172  13.580  22.098  0.00  0.00    +0.000 OA
ATOM      9  C   UNL     1       2.280  14.085  20.081  0.00  0.00    +0.000 A 
ATOM     10  C   UNL     1       3.434  14.596  20.669  0.00  0.00    +0.000 A 
ATOM     11  C   UNL     1       4.474  15.002  19.854  0.00  0.00    +0.000 A 
ATOM     12  C   UNL     1       4.394  14.865  18.458  0.00  0.00    +0.000 A 
ATOM     13  C   UNL     1       3.148  14.513  17.891  0.00  0.00    +0.000 A 
ATOM     14  C   UNL     1       2.039  14.163  18.701  0.00  0.00    +0.000 A 
ATOM     15  C   UNL     1       0.666  13.843  18.087  0.00  0.00    +0.000 C 
ATOM     16  C   UNL     1      -0.583  13.615  19.042  0.00  0.00    +0.000 C 
ENDROOT
BRANCH   1  18
ATOM     17  O   UNL     1       1.960   9.323  17.188  0.00  0.00    +0.000 OA
ATOM     18  C   UNL     1       1.694   9.017  18.347  0.00  0.00    +0.000 C 
ATOM     19  N   UNL     1       1.962   7.807  18.985  0.00  0.00    +0.000 N 
ATOM     20  H   UNL     1       1.544   7.636  19.886  0.00  0.00    +0.000 HD
BRANCH  19  21
ATOM     21  C   UNL     1       2.652   6.704  18.413  0.00  0.00    +0.000 A 
ATOM     22  C   UNL     1       3.929   6.805  17.856  0.00  0.00    +0.000 A 
ATOM     23  C   UNL     1       4.559   5.697  17.285  0.00  0.00    +0.000 A 
ATOM     24  C   UNL     1       3.920   4.466  17.269  0.00  0.00    +0.000 A 
ATOM     25  C   UNL     1       2.651   4.333  17.831  0.00  0.00    +0.000 A 
ATOM     26  C   UNL     1       2.022   5.450  18.405  0.00  0.00    +0.000 A 
ENDBRANCH  19  21
ENDBRANCH   1  18
BRANCH  12  27
ATOM     27  N   UNL     1       5.588  15.110  17.760  0.00  0.00    +0.000 N 
ATOM     28  H   UNL     1       5.499  15.883  17.098  0.00  0.00    +0.000 HD
BRANCH  27  29
ATOM     29  C   UNL     1       6.908  14.643  17.798  0.00  0.00    +0.000 A 
ATOM     30  C   UNL     1       7.272  13.322  17.541  0.00  0.00    +0.000 A 
ATOM     31  C   UNL     1       8.619  12.942  17.547  0.00  0.00    +0.000 A 
ATOM     32  C   UNL     1       9.607  13.884  17.821  0.00  0.00    +0.000 A 
ATOM     33  F   UNL     1      10.893  13.516  17.795  0.00  0.00    +0.000 F 
ATOM     34  C   UNL     1       9.280  15.200  18.100  0.00  0.00    +0.000 A 
ATOM     35  C   UNL     1       7.939  15.563  18.087  0.00  0.00    +0.000 A 
ATOM     36  F   UNL     1       7.620  16.845  18.338  0.00  0.00    +0.000 F 
ENDBRANCH  27  29
ENDBRANCH  12  27
TORSDOF 4
ENDMDL
MODEL 4
REMARK VINA RESULT:      -8.9      1.129      1.167
REMARK  Name = 
REMARK  4 active torsions:
REMARK  status: ('A' for Active; 'I' for Inactive)
REMARK    1  A    between atoms: C_2  and  C_10
REMARK    2  A    between atoms: N_3  and  C_4
REMARK    3  A    between atoms: C_21  and  N_22
REMARK    4  A    between atoms: N_22  and  C_23
REMARK                            x       y       z     vdW  Elec       q    Type
REMARK                         _______ _______ _______ _____ _____    ______ ____
ROOT
ATOM      1  C   UNL     1       7.274   6.565  17.671  0.00  0.00    +0.000 A 
ATOM      2  C   UNL     1       7.608   5.884  16.495  0.00  0.00    +0.000 A 
ATOM      3  C   UNL     1       6.909   4.726  16.171  0.00  0.00    +0.000 A 
ATOM      4  C   UNL     1       5.910   4.300  17.045  0.00  0.00    +0.000 A 
ATOM      5  C   UNL     1       5.978   4.668  18.383  0.00  0.00    +0.000 A 
ATOM      6  C   UNL     1       6.537   5.909  18.672  0.00  0.00    +0.000 A 
ATOM      7  C   UNL     1       5.024   3.974  19.267  0.00  0.00    +0.000 C 
ATOM      8  O   UNL     1       5.296   2.888  19.759  0.00  0.00    +0.000 OA
ATOM      9  C   UNL     1       3.718   4.613  19.466  0.00  0.00    +0.000 A 
ATOM     10  C   UNL     1       3.199   4.560  20.757  0.00  0.00    +0.000 A 
ATOM     11  C   UNL     1       2.222   5.470  21.120  0.00  0.00    +0.000 A 
ATOM     12  C   UNL     1       1.788   6.459  20.222  0.00  0.00    +0.000 A 
ATOM     13  C   UNL     1       2.203   6.370  18.875  0.00  0.00    +0.000 A 
ATOM     14  C   UNL     1       3.148   5.401  18.455  0.00  0.00    +0.000 A 
ATOM     15  C   UNL     1       3.551   5.260  16.977  0.00  0.00    +0.000 C 
ATOM     16  C   UNL     1       4.489   4.058  16.534  0.00  0.00    +0.000 C 
ENDROOT
BRANCH   1  18
ATOM     17  O   UNL     1       6.962   8.792  17.094  0.00  0.00    +0.000 OA
ATOM     18  C   UNL     1       7.563   8.016  17.832  0.00  0.00    +0.000 C 
ATOM     19  N   UNL     1       8.584   8.323  18.730  0.00  0.00    +0.000 N 
ATOM     20  H   UNL     1       9.097   7.565  19.153  0.00  0.00    +0.000 HD
BRANCH  19  21
ATOM     21  C   UNL     1       9.088   9.624  18.998  0.00  0.00    +0.000 A 
ATOM     22  C   UNL     1       9.211  10.148  20.287  0.00  0.00    +0.000 A 
ATOM     23  C   UNL     1       9.692  11.442  20.500  0.00  0.00    +0.000 A 
ATOM     24  C   UNL     1      10.063  12.231  19.421  0.00  0.00    +0.000 A 
ATOM     25  C   UNL     1       9.965  11.729  18.125  0.00  0.00    +0.000 A 
ATOM     26  C   UNL     1       9.482  10.427  17.915  0.00  0.00    +0.000 A 
ENDBRANCH  19  21
ENDBRANCH   1  18
BRANCH  12  27
ATOM     27  N   UNL     1       0.956   7.448  20.775  0.00  0.00    +0.000 N 
ATOM     28  H   UNL     1       0.370   7.086  21.528  0.00  0.00    +0.000 HD
BRANCH  27  29
ATOM     29  C   UNL     1       0.785   8.831  20.637  0.00  0.00    +0.000 A 
ATOM     30  C   UNL     1       1.158   9.552  19.503  0.00  0.00    +0.000 A 
ATOM     31  C   UNL     1       0.906  10.926  19.419  0.00  0.00    +0.000 A 
ATOM     32  C   UNL     1       0.289  11.586  20.478  0.00  0.00    +0.000 A 
ATOM     33  F   UNL     1       0.027  12.895  20.374  0.00  0.00    +0.000 F 
ATOM     34  C   UNL     1      -0.076  10.907  21.627  0.00  0.00    +0.000 A 
ATOM     35  C   UNL     1       0.177   9.543  21.695  0.00  0.00    +0.000 A 
ATOM     36  F   UNL     1      -0.194   8.876  22.802  0.00  0.00    +0.000 F 
ENDBRANCH  27  29
ENDBRANCH  12  27
TORSDOF 4
ENDMDL
MODEL 5
REMARK VINA RESULT:      -8.8      7.509     12.351
REMARK  Name = 
REMARK  4 active torsions:
REMARK  status: ('A' for Active; 'I' for Inactive)
REMARK    1  A    between atoms: C_2  and  C_10
REMARK    2  A    between atoms: N_3  and  C_4
REMARK    3  A    between atoms: C_21  and  N_22
REMARK    4  A    between atoms: N_22  and  C_23
REMARK                            x       y       z     vdW  Elec       q    Type
REMARK                         _______ _______ _______ _____ _____    ______ ____
ROOT
ATOM      1  C   UNL     1      -6.971  13.402  19.107  0.00  0.00    +0.000 A 
ATOM      2  C   UNL     1      -7.596  14.597  18.731  0.00  0.00    +0.000 A 
ATOM      3  C   UNL     1      -7.697  15.621  19.665  0.00  0.00    +0.000 A 
ATOM      4  C   UNL     1      -7.170  15.400  20.938  0.00  0.00    +0.000 A 
ATOM      5  C   UNL     1      -7.060  14.097  21.408  0.00  0.00    +0.000 A 
ATOM      6  C   UNL     1      -6.797  13.105  20.470  0.00  0.00    +0.000 A 
ATOM      7  C   UNL     1      -6.729  13.980  22.839  0.00  0.00    +0.000 C 
ATOM      8  O   UNL     1      -7.604  14.003  23.693  0.00  0.00    +0.000 OA
ATOM      9  C   UNL     1      -5.305  13.910  23.187  0.00  0.00    +0.000 A 
ATOM     10  C   UNL     1      -4.964  13.022  24.204  0.00  0.00    +0.000 A 
ATOM     11  C   UNL     1      -3.654  12.588  24.298  0.00  0.00    +0.000 A 
ATOM     12  C   UNL     1      -2.689  12.997  23.364  0.00  0.00    +0.000 A 
ATOM     13  C   UNL     1      -3.026  14.030  22.461  0.00  0.00    +0.000 A 
ATOM     14  C   UNL     1      -4.344  14.549  22.389  0.00  0.00    +0.000 A 
ATOM     15  C   UNL     1      -4.696  15.717  21.454  0.00  0.00    +0.000 C 
ATOM     16  C   UNL     1      -6.143  16.368  21.527  0.00  0.00    +0.000 C 
ENDROOT
BRANCH   1  18
ATOM     17  O   UNL     1      -7.128  11.851  17.386  0.00  0.00    +0.000 OA
ATOM     18  C   UNL     1      -6.361  12.498  18.095  0.00  0.00    +0.000 C 
ATOM     19  N   UNL     1      -4.972  12.396  18.148  0.00  0.00    +0.000 N 
ATOM     20  H   UNL     1      -4.483  12.873  18.890  0.00  0.00    +0.000 HD
BRANCH  19  21
ATOM     21  C   UNL     1      -4.171  11.546  17.339  0.00  0.00    +0.000 A 
ATOM     22  C   UNL     1      -4.297  11.470  15.950  0.00  0.00    +0.000 A 
ATOM     23  C   UNL     1      -3.502  10.602  15.198  0.00  0.00    +0.000 A 
ATOM     24  C   UNL     1      -2.563   9.798  15.828  0.00  0.00    +0.000 A 
ATOM     25  C   UNL     1      -2.406   9.864  17.211  0.00  0.00    +0.000 A 
ATOM     26  C   UNL     1      -3.207  10.740  17.963  0.00  0.00    +0.000 A 
ENDBRANCH  19  21
ENDBRANCH   1  18
BRANCH  12  27
ATOM     27  N   UNL     1      -1.457  12.325  23.439  0.00  0.00    +0.000 N 
ATOM     28  H   UNL     1      -0.930  12.573  24.277  0.00  0.00    +0.000 HD
BRANCH  27  29
ATOM     29  C   UNL     1      -0.795  11.323  22.718  0.00  0.00    +0.000 A 
ATOM     30  C   UNL     1      -0.712   9.994  23.133  0.00  0.00    +0.000 A 
ATOM     31  C   UNL     1      -0.077   9.037  22.331  0.00  0.00    +0.000 A 
ATOM     32  C   UNL     1       0.486   9.413  21.115  0.00  0.00    +0.000 A 
ATOM     33  F   UNL     1       1.063   8.484  20.343  0.00  0.00    +0.000 F 
ATOM     34  C   UNL     1       0.439  10.726  20.681  0.00  0.00    +0.000 A 
ATOM     35  C   UNL     1      -0.197  11.663  21.486  0.00  0.00    +0.000 A 
ATOM     36  F   UNL     1      -0.262  12.937  21.058  0.00  0.00    +0.000 F 
ENDBRANCH  27  29
ENDBRANCH  12  27
TORSDOF 4
ENDMDL
MODEL 6
REMARK VINA RESULT:      -8.8      4.658      9.247
REMARK  Name = 
REMARK  4 active torsions:
REMARK  status: ('A' for Active; 'I' for Inactive)
REMARK    1  A    between atoms: C_2  and  C_10
REMARK    2  A    between atoms: N_3  and  C_4
REMARK    3  A    between atoms: C_21  and  N_22
REMARK    4  A    between atoms: N_22  and  C_23
REMARK                            x       y       z     vdW  Elec       q    Type
REMARK                         _______ _______ _______ _____ _____    ______ ____
ROOT
ATOM      1  C   UNL     1       0.895   9.959  19.093  0.00  0.00    +0.000 A 
ATOM      2  C   UNL     1      -0.500   9.974  18.973  0.00  0.00    +0.000 A 
ATOM      3  C   UNL     1      -1.185  11.140  19.296  0.00  0.00    +0.000 A 
ATOM      4  C   UNL     1      -0.442  12.237  19.730  0.00  0.00    +0.000 A 
ATOM      5  C   UNL     1       0.796  12.024  20.323  0.00  0.00    +0.000 A 
ATOM      6  C   UNL     1       1.539  10.940  19.867  0.00  0.00    +0.000 A 
ATOM      7  C   UNL     1       1.389  13.211  20.966  0.00  0.00    +0.000 C 
ATOM      8  O   UNL     1       1.111  13.508  22.119  0.00  0.00    +0.000 OA
ATOM      9  C   UNL     1       2.262  14.048  20.136  0.00  0.00    +0.000 A 
ATOM     10  C   UNL     1       3.401  14.552  20.758  0.00  0.00    +0.000 A 
ATOM     11  C   UNL     1       4.459  14.973  19.972  0.00  0.00    +0.000 A 
ATOM     12  C   UNL     1       4.409  14.858  18.574  0.00  0.00    +0.000 A 
ATOM     13  C   UNL     1       3.178  14.513  17.973  0.00  0.00    +0.000 A 
ATOM     14  C   UNL     1       2.052  14.147  18.753  0.00  0.00    +0.000 A 
ATOM     15  C   UNL     1       0.693  13.835  18.103  0.00  0.00    +0.000 C 
ATOM     16  C   UNL     1      -0.576  13.588  19.026  0.00  0.00    +0.000 C 
ENDROOT
BRANCH   1  18
ATOM     17  O   UNL     1       2.029   9.338  17.165  0.00  0.00    +0.000 OA
ATOM     18  C   UNL     1       1.728   9.007  18.309  0.00  0.00    +0.000 C 
ATOM     19  N   UNL     1       1.972   7.782  18.926  0.00  0.00    +0.000 N 
ATOM     20  H   UNL     1       1.527   7.592  19.811  0.00  0.00    +0.000 HD
BRANCH  19  21
ATOM     21  C   UNL     1       2.675   6.690  18.351  0.00  0.00    +0.000 A 
ATOM     22  C   UNL     1       3.959   6.803  17.813  0.00  0.00    +0.000 A 
ATOM     23  C   UNL     1       4.602   5.705  17.237  0.00  0.00    +0.000 A 
ATOM     24  C   UNL     1       3.969   4.471  17.196  0.00  0.00    +0.000 A 
ATOM     25  C   UNL     1       2.693   4.326  17.739  0.00  0.00    +0.000 A 
ATOM     26  C   UNL     1       2.051   5.433  18.318  0.00  0.00    +0.000 A 
ENDBRANCH  19  21
ENDBRANCH   1  18
BRANCH  12  27
ATOM     27  N   UNL     1       5.618  15.118  17.906  0.00  0.00    +0.000 N 
ATOM     28  H   UNL     1       5.478  15.631  17.034  0.00  0.00    +0.000 HD
BRANCH  27  29
ATOM     29  C   UNL     1       6.984  14.949  18.165  0.00  0.00    +0.000 A 
ATOM     30  C   UNL     1       7.763  15.873  18.860  0.00  0.00    +0.000 A 
ATOM     31  C   UNL     1       9.112  15.609  19.126  0.00  0.00    +0.000 A 
ATOM     32  C   UNL     1       9.688  14.421  18.685  0.00  0.00    +0.000 A 
ATOM     33  F   UNL     1      10.971  14.166  18.971  0.00  0.00    +0.000 F 
ATOM     34  C   UNL     1       8.950  13.490  17.975  0.00  0.00    +0.000 A 
ATOM     35  C   UNL     1       7.612  13.765  17.722  0.00  0.00    +0.000 A 
ATOM     36  F   UNL     1       6.886  12.853  17.049  0.00  0.00    +0.000 F 
ENDBRANCH  27  29
ENDBRANCH  12  27
TORSDOF 4
ENDMDL
MODEL 7
REMARK VINA RESULT:      -8.7      7.145     12.070
REMARK  Name = 
REMARK  4 active torsions:
REMARK  status: ('A' for Active; 'I' for Inactive)
REMARK    1  A    between atoms: C_2  and  C_10
REMARK    2  A    between atoms: N_3  and  C_4
REMARK    3  A    between atoms: C_21  and  N_22
REMARK    4  A    between atoms: N_22  and  C_23
REMARK                            x       y       z     vdW  Elec       q    Type
REMARK                         _______ _______ _______ _____ _____    ______ ____
ROOT
ATOM      1  C   UNL     1      -6.707  13.458  19.033  0.00  0.00    +0.000 A 
ATOM      2  C   UNL     1      -7.341  14.683  18.790  0.00  0.00    +0.000 A 
ATOM      3  C   UNL     1      -7.399  15.621  19.815  0.00  0.00    +0.000 A 
ATOM      4  C   UNL     1      -6.825  15.286  21.040  0.00  0.00    +0.000 A 
ATOM      5  C   UNL     1      -6.703  13.947  21.388  0.00  0.00    +0.000 A 
ATOM      6  C   UNL     1      -6.481  13.041  20.356  0.00  0.00    +0.000 A 
ATOM      7  C   UNL     1      -6.317  13.702  22.790  0.00  0.00    +0.000 C 
ATOM      8  O   UNL     1      -7.157  13.650  23.676  0.00  0.00    +0.000 OA
ATOM      9  C   UNL     1      -4.881  13.599  23.073  0.00  0.00    +0.000 A 
ATOM     10  C   UNL     1      -4.505  12.624  23.993  0.00  0.00    +0.000 A 
ATOM     11  C   UNL     1      -3.195  12.181  23.997  0.00  0.00    +0.000 A 
ATOM     12  C   UNL     1      -2.264  12.669  23.065  0.00  0.00    +0.000 A 
ATOM     13  C   UNL     1      -2.631  13.779  22.271  0.00  0.00    +0.000 A 
ATOM     14  C   UNL     1      -3.948  14.304  22.298  0.00  0.00    +0.000 A 
ATOM     15  C   UNL     1      -4.331  15.552  21.485  0.00  0.00    +0.000 C 
ATOM     16  C   UNL     1      -5.770  16.196  21.672  0.00  0.00    +0.000 C 
ENDROOT
BRANCH   1  18
ATOM     17  O   UNL     1      -6.901  12.351  17.002  0.00  0.00    +0.000 OA
ATOM     18  C   UNL     1      -6.142  12.646  17.921  0.00  0.00    +0.000 C 
ATOM     19  N   UNL     1      -4.833  12.208  18.111  0.00  0.00    +0.000 N 
ATOM     20  H   UNL     1      -4.384  12.402  18.994  0.00  0.00    +0.000 HD
BRANCH  19  21
ATOM     21  C   UNL     1      -4.106  11.363  17.230  0.00  0.00    +0.000 A 
ATOM     22  C   UNL     1      -3.161  10.433  17.667  0.00  0.00    +0.000 A 
ATOM     23  C   UNL     1      -2.454   9.638  16.761  0.00  0.00    +0.000 A 
ATOM     24  C   UNL     1      -2.688   9.761  15.399  0.00  0.00    +0.000 A 
ATOM     25  C   UNL     1      -3.637  10.671  14.936  0.00  0.00    +0.000 A 
ATOM     26  C   UNL     1      -4.346  11.467  15.851  0.00  0.00    +0.000 A 
ENDBRANCH  19  21
ENDBRANCH   1  18
BRANCH  12  27
ATOM     27  N   UNL     1      -1.034  11.991  23.032  0.00  0.00    +0.000 N 
ATOM     28  H   UNL     1      -0.492  12.127  23.886  0.00  0.00    +0.000 HD
BRANCH  27  29
ATOM     29  C   UNL     1      -0.388  11.090  22.176  0.00  0.00    +0.000 A 
ATOM     30  C   UNL     1      -0.077  11.368  20.845  0.00  0.00    +0.000 A 
ATOM     31  C   UNL     1       0.617  10.434  20.068  0.00  0.00    +0.000 A 
ATOM     32  C   UNL     1       0.994   9.212  20.619  0.00  0.00    +0.000 A 
ATOM     33  F   UNL     1       1.684   8.340  19.874  0.00  0.00    +0.000 F 
ATOM     34  C   UNL     1       0.685   8.895  21.930  0.00  0.00    +0.000 A 
ATOM     35  C   UNL     1      -0.002   9.833  22.691  0.00  0.00    +0.000 A 
ATOM     36  F   UNL     1      -0.287   9.536  23.971  0.00  0.00    +0.000 F 
ENDBRANCH  27  29
ENDBRANCH  12  27
TORSDOF 4
ENDMDL
MODEL 8
REMARK VINA RESULT:      -8.7      3.073      7.388
REMARK  Name = 
REMARK  4 active torsions:
REMARK  status: ('A' for Active; 'I' for Inactive)
REMARK    1  A    between atoms: C_2  and  C_10
REMARK    2  A    between atoms: N_3  and  C_4
REMARK    3  A    between atoms: C_21  and  N_22
REMARK    4  A    between atoms: N_22  and  C_23
REMARK                            x       y       z     vdW  Elec       q    Type
REMARK                         _______ _______ _______ _____ _____    ______ ____
ROOT
ATOM      1  C   UNL     1       2.654   5.782  18.640  0.00  0.00    +0.000 A 
ATOM      2  C   UNL     1       2.343   4.429  18.465  0.00  0.00    +0.000 A 
ATOM      3  C   UNL     1       3.212   3.633  17.728  0.00  0.00    +0.000 A 
ATOM      4  C   UNL     1       4.353   4.231  17.194  0.00  0.00    +0.000 A 
ATOM      5  C   UNL     1       4.346   5.596  16.940  0.00  0.00    +0.000 A 
ATOM      6  C   UNL     1       3.594   6.397  17.794  0.00  0.00    +0.000 A 
ATOM      7  C   UNL     1       5.493   6.088  16.155  0.00  0.00    +0.000 C 
ATOM      8  O   UNL     1       5.479   6.062  14.933  0.00  0.00    +0.000 OA
ATOM      9  C   UNL     1       6.669   6.536  16.910  0.00  0.00    +0.000 A 
ATOM     10  C   UNL     1       7.311   7.674  16.428  0.00  0.00    +0.000 A 
ATOM     11  C   UNL     1       8.129   8.390  17.282  0.00  0.00    +0.000 A 
ATOM     12  C   UNL     1       8.282   8.007  18.625  0.00  0.00    +0.000 A 
ATOM     13  C   UNL     1       7.764   6.756  19.028  0.00  0.00    +0.000 A 
ATOM     14  C   UNL     1       6.981   5.963  18.151  0.00  0.00    +0.000 A 
ATOM     15  C   UNL     1       6.472   4.572  18.567  0.00  0.00    +0.000 C 
ATOM     16  C   UNL     1       5.739   3.657  17.496  0.00  0.00    +0.000 C 
ENDROOT
BRANCH   1  18
ATOM     17  O   UNL     1       1.897   5.939  20.829  0.00  0.00    +0.000 OA
ATOM     18  C   UNL     1       2.115   6.557  19.790  0.00  0.00    +0.000 C 
ATOM     19  N   UNL     1       1.802   7.887  19.517  0.00  0.00    +0.000 N 
ATOM     20  H   UNL     1       1.892   8.217  18.568  0.00  0.00    +0.000 HD
BRANCH  19  21
ATOM     21  C   UNL     1       1.209   8.803  20.427  0.00  0.00    +0.000 A 
ATOM     22  C   UNL     1       1.097   8.557  21.797  0.00  0.00    +0.000 A 
ATOM     23  C   UNL     1       0.486   9.479  22.651  0.00  0.00    +0.000 A 
ATOM     24  C   UNL     1      -0.020  10.666  22.143  0.00  0.00    +0.000 A 
ATOM     25  C   UNL     1       0.091  10.945  20.782  0.00  0.00    +0.000 A 
ATOM     26  C   UNL     1       0.708  10.015  19.928  0.00  0.00    +0.000 A 
ENDBRANCH  19  21
ENDBRANCH   1  18
BRANCH  12  27
ATOM     27  N   UNL     1       8.962   8.929  19.439  0.00  0.00    +0.000 N 
ATOM     28  H   UNL     1       9.350   8.494  20.278  0.00  0.00    +0.000 HD
BRANCH  27  29
ATOM     29  C   UNL     1       9.342  10.274  19.361  0.00  0.00    +0.000 A 
ATOM     30  C   UNL     1       9.693  10.915  18.173  0.00  0.00    +0.000 A 
ATOM     31  C   UNL     1      10.011  12.279  18.167  0.00  0.00    +0.000 A 
ATOM     32  C   UNL     1       9.988  13.003  19.355  0.00  0.00    +0.000 A 
ATOM     33  F   UNL     1      10.265  14.312  19.333  0.00  0.00    +0.000 F 
ATOM     34  C   UNL     1       9.663  12.395  20.556  0.00  0.00    +0.000 A 
ATOM     35  C   UNL     1       9.347  11.043  20.545  0.00  0.00    +0.000 A 
ATOM     36  F   UNL     1       9.012  10.453  21.707  0.00  0.00    +0.000 F 
ENDBRANCH  27  29
ENDBRANCH  12  27
TORSDOF 4
ENDMDL
MODEL 9
REMARK VINA RESULT:      -8.7      4.767      9.683
REMARK  Name = 
REMARK  4 active torsions:
REMARK  status: ('A' for Active; 'I' for Inactive)
REMARK    1  A    between atoms: C_2  and  C_10
REMARK    2  A    between atoms: N_3  and  C_4
REMARK    3  A    between atoms: C_21  and  N_22
REMARK    4  A    between atoms: N_22  and  C_23
REMARK                            x       y       z     vdW  Elec       q    Type
REMARK                         _______ _______ _______ _____ _____    ______ ____
ROOT
ATOM      1  C   UNL     1       0.465  10.671  19.933  0.00  0.00    +0.000 A 
ATOM      2  C   UNL     1      -0.920  10.879  19.941  0.00  0.00    +0.000 A 
ATOM      3  C   UNL     1      -1.401  12.165  20.155  0.00  0.00    +0.000 A 
ATOM      4  C   UNL     1      -0.473  13.186  20.358  0.00  0.00    +0.000 A 
ATOM      5  C   UNL     1       0.784  12.868  20.858  0.00  0.00    +0.000 A 
ATOM      6  C   UNL     1       1.318  11.636  20.496  0.00  0.00    +0.000 A 
ATOM      7  C   UNL     1       1.599  14.026  21.267  0.00  0.00    +0.000 C 
ATOM      8  O   UNL     1       1.495  14.508  22.386  0.00  0.00    +0.000 OA
ATOM      9  C   UNL     1       2.480  14.610  20.249  0.00  0.00    +0.000 A 
ATOM     10  C   UNL     1       3.739  15.015  20.684  0.00  0.00    +0.000 A 
ATOM     11  C   UNL     1       4.749  15.169  19.752  0.00  0.00    +0.000 A 
ATOM     12  C   UNL     1       4.528  14.883  18.395  0.00  0.00    +0.000 A 
ATOM     13  C   UNL     1       3.202  14.651  17.965  0.00  0.00    +0.000 A 
ATOM     14  C   UNL     1       2.131  14.560  18.891  0.00  0.00    +0.000 A 
ATOM     15  C   UNL     1       0.679  14.373  18.421  0.00  0.00    +0.000 C 
ATOM     16  C   UNL     1      -0.501  14.439  19.482  0.00  0.00    +0.000 C 
ENDROOT
BRANCH   1  18
ATOM     17  O   UNL     1       0.974   9.498  17.996  0.00  0.00    +0.000 OA
ATOM     18  C   UNL     1       1.068   9.512  19.220  0.00  0.00    +0.000 C 
ATOM     19  N   UNL     1       1.572   8.506  20.041  0.00  0.00    +0.000 N 
ATOM     20  H   UNL     1       1.441   8.587  21.038  0.00  0.00    +0.000 HD
BRANCH  19  21
ATOM     21  C   UNL     1       2.128   7.275  19.598  0.00  0.00    +0.000 A 
ATOM     22  C   UNL     1       2.029   6.085  20.322  0.00  0.00    +0.000 A 
ATOM     23  C   UNL     1       2.611   4.904  19.856  0.00  0.00    +0.000 A 
ATOM     24  C   UNL     1       3.298   4.896  18.651  0.00  0.00    +0.000 A 
ATOM     25  C   UNL     1       3.400   6.066  17.900  0.00  0.00    +0.000 A 
ATOM     26  C   UNL     1       2.812   7.251  18.372  0.00  0.00    +0.000 A 
ENDBRANCH  19  21
ENDBRANCH   1  18
BRANCH  12  27
ATOM     27  N   UNL     1       5.679  14.871  17.588  0.00  0.00    +0.000 N 
ATOM     28  H   UNL     1       5.549  15.391  16.719  0.00  0.00    +0.000 HD
BRANCH  27  29
ATOM     29  C   UNL     1       7.000  14.420  17.700  0.00  0.00    +0.000 A 
ATOM     30  C   UNL     1       7.390  13.097  17.490  0.00  0.00    +0.000 A 
ATOM     31  C   UNL     1       8.739  12.733  17.570  0.00  0.00    +0.000 A 
ATOM     32  C   UNL     1       9.702  13.692  17.871  0.00  0.00    +0.000 A 
ATOM     33  F   UNL     1      10.992  13.337  17.914  0.00  0.00    +0.000 F 
ATOM     34  C   UNL     1       9.349  15.010  18.104  0.00  0.00    +0.000 A 
ATOM     35  C   UNL     1       8.006  15.357  18.019  0.00  0.00    +0.000 A 
ATOM     36  F   UNL     1       7.662  16.640  18.226  0.00  0.00    +0.000 F 
ENDBRANCH  27  29
ENDBRANCH  12  27
TORSDOF 4
ENDMDL
