MODEL 1
REMARK VINA RESULT:      -8.0      0.000      0.000
REMARK  Name = 
REMARK  8 active torsions:
REMARK  status: ('A' for Active; 'I' for Inactive)
REMARK    1  A    between atoms: C_1  and  O_2
REMARK    2  A    between atoms: O_2  and  C_3
REMARK    3  A    between atoms: C_3  and  C_4
REMARK    4  A    between atoms: C_4  and  N_5
REMARK    5  A    between atoms: C_10  and  C_11
REMARK    6  A    between atoms: C_11  and  C_12
REMARK    7  A    between atoms: N_20  and  C_21
REMARK    8  A    between atoms: C_21  and  C_22
REMARK                            x       y       z     vdW  Elec       q    Type
REMARK                         _______ _______ _______ _____ _____    ______ ____
ROOT
ATOM      1  N   UNL     1       5.395   5.102  17.068  0.00  0.00    +0.000 N 
ATOM      2  C   UNL     1       5.330   6.481  17.307  0.00  0.00    +0.000 A 
ATOM      3  O   UNL     1       6.261   7.258  17.289  0.00  0.00    +0.000 OA
ATOM      4  C   UNL     1       4.009   6.905  17.588  0.00  0.00    +0.000 A 
ATOM      5  N   UNL     1       3.533   8.166  17.688  0.00  0.00    +0.000 N 
ATOM      6  C   UNL     1       2.198   8.057  18.007  0.00  0.00    +0.000 A 
ATOM      7  N   UNL     1       1.837   6.786  18.089  0.00  0.00    +0.000 NA
ATOM      8  C   UNL     1       2.974   6.075  17.816  0.00  0.00    +0.000 A 
ATOM      9  N   UNL     1       3.114   4.709  17.735  0.00  0.00    +0.000 N 
ATOM     10  C   UNL     1       4.315   4.201  17.208  0.00  0.00    +0.000 A 
ATOM     11  O   UNL     1       4.426   3.023  16.839  0.00  0.00    +0.000 OA
ATOM     12  H   UNL     1       4.057   9.022  17.557  0.00  0.00    +0.000 HD
ENDROOT
BRANCH   1  13
ATOM     13  C   UNL     1       6.700   4.552  16.680  0.00  0.00    +0.000 C 
BRANCH  13  14
ATOM     14  C   UNL     1       6.974   4.666  15.178  0.00  0.00    +0.000 C 
BRANCH  14  16
ATOM     15  C   UNL     1       6.343   3.880  13.076  0.00  0.00    +0.000 C 
ATOM     16  O   UNL     1       6.390   3.576  14.466  0.00  0.00    +0.000 OA
ENDBRANCH  14  16
ENDBRANCH  13  14
ENDBRANCH   1  13
BRANCH   6  17
ATOM     17  C   UNL     1       1.370   9.285  18.210  0.00  0.00    +0.000 C 
BRANCH  17  18
ATOM     18  C   UNL     1       0.929   9.481  19.640  0.00  0.00    +0.000 A 
ATOM     19  C   UNL     1       0.015  10.490  19.978  0.00  0.00    +0.000 A 
ATOM     20  C   UNL     1      -0.432  10.622  21.294  0.00  0.00    +0.000 A 
ATOM     21  C   UNL     1       0.024   9.747  22.277  0.00  0.00    +0.000 A 
ATOM     22  C   UNL     1       0.945   8.751  21.955  0.00  0.00    +0.000 A 
ATOM     23  C   UNL     1       1.396   8.623  20.642  0.00  0.00    +0.000 A 
ENDBRANCH  17  18
ENDBRANCH   6  17
BRANCH   9  24
ATOM     24  C   UNL     1       1.964   3.837  18.038  0.00  0.00    +0.000 C 
BRANCH  24  25
ATOM     25  C   UNL     1       1.930   3.430  19.477  0.00  0.00    +0.000 A 
ATOM     26  C   UNL     1       1.062   3.677  20.527  0.00  0.00    +0.000 A 
ATOM     27  C   UNL     1       1.692   3.177  21.698  0.00  0.00    +0.000 A 
ATOM     28  C   UNL     1       2.846   2.563  21.277  0.00  0.00    +0.000 A 
ATOM     29  O   UNL     1       2.979   2.672  19.928  0.00  0.00    +0.000 OA
ENDBRANCH  24  25
ENDBRANCH   9  24
TORSDOF 7
ENDMDL
MODEL 2
REMARK VINA RESULT:      -7.9      2.015      4.803
REMARK  Name = 
REMARK  8 active torsions:
REMARK  status: ('A' for Active; 'I' for Inactive)
REMARK    1  A    between atoms: C_1  and  O_2
REMARK    2  A    between atoms: O_2  and  C_3
REMARK    3  A    between atoms: C_3  and  C_4
REMARK    4  A    between atoms: C_4  and  N_5
REMARK    5  A    between atoms: C_10  and  C_11
REMARK    6  A    between atoms: C_11  and  C_12
REMARK    7  A    between atoms: N_20  and  C_21
REMARK    8  A    between atoms: C_21  and  C_22
REMARK                            x       y       z     vdW  Elec       q    Type
REMARK                         _______ _______ _______ _____ _____    ______ ____
ROOT
ATOM      1  N   UNL     1       3.109   4.455  20.163  0.00  0.00    +0.000 N 
ATOM      2  C   UNL     1       2.135   5.461  20.188  0.00  0.00    +0.000 A 
ATOM      3  O   UNL     1       1.133   5.475  20.873  0.00  0.00    +0.000 OA
ATOM      4  C   UNL     1       2.442   6.514  19.294  0.00  0.00    +0.000 A 
ATOM      5  N   UNL     1       1.843   7.721  19.177  0.00  0.00    +0.000 N 
ATOM      6  C   UNL     1       2.479   8.374  18.145  0.00  0.00    +0.000 A 
ATOM      7  N   UNL     1       3.447   7.627  17.640  0.00  0.00    +0.000 NA
ATOM      8  C   UNL     1       3.421   6.470  18.372  0.00  0.00    +0.000 A 
ATOM      9  N   UNL     1       4.262   5.386  18.264  0.00  0.00    +0.000 N 
ATOM     10  C   UNL     1       4.206   4.408  19.274  0.00  0.00    +0.000 A 
ATOM     11  O   UNL     1       5.096   3.557  19.416  0.00  0.00    +0.000 OA
ATOM     12  H   UNL     1       1.078   8.072  19.736  0.00  0.00    +0.000 HD
ENDROOT
BRANCH   1  13
ATOM     13  C   UNL     1       2.948   3.346  21.112  0.00  0.00    +0.000 C 
BRANCH  13  14
ATOM     14  C   UNL     1       1.748   2.452  20.790  0.00  0.00    +0.000 C 
BRANCH  14  16
ATOM     15  C   UNL     1       0.717   2.337  18.702  0.00  0.00    +0.000 C 
ATOM     16  O   UNL     1       1.843   1.922  19.468  0.00  0.00    +0.000 OA
ENDBRANCH  14  16
ENDBRANCH  13  14
ENDBRANCH   1  13
BRANCH   6  17
ATOM     17  C   UNL     1       2.042   9.745  17.740  0.00  0.00    +0.000 C 
BRANCH  17  18
ATOM     18  C   UNL     1       0.849  10.247  18.516  0.00  0.00    +0.000 A 
ATOM     19  C   UNL     1       1.019  10.975  19.703  0.00  0.00    +0.000 A 
ATOM     20  C   UNL     1      -0.091  11.487  20.379  0.00  0.00    +0.000 A 
ATOM     21  C   UNL     1      -1.372  11.282  19.873  0.00  0.00    +0.000 A 
ATOM     22  C   UNL     1      -1.553  10.547  18.702  0.00  0.00    +0.000 A 
ATOM     23  C   UNL     1      -0.445  10.030  18.031  0.00  0.00    +0.000 A 
ENDBRANCH  17  18
ENDBRANCH   6  17
BRANCH   9  24
ATOM     24  C   UNL     1       5.292   5.361  17.209  0.00  0.00    +0.000 C 
BRANCH  24  25
ATOM     25  C   UNL     1       6.492   6.175  17.575  0.00  0.00    +0.000 A 
ATOM     26  C   UNL     1       7.530   6.010  18.475  0.00  0.00    +0.000 A 
ATOM     27  C   UNL     1       8.248   7.236  18.493  0.00  0.00    +0.000 A 
ATOM     28  C   UNL     1       7.674   8.027  17.528  0.00  0.00    +0.000 A 
ATOM     29  O   UNL     1       6.636   7.379  16.935  0.00  0.00    +0.000 OA
ENDBRANCH  24  25
ENDBRANCH   9  24
TORSDOF 7
ENDMDL
MODEL 3
REMARK VINA RESULT:      -7.7      0.967      1.893
REMARK  Name = 
REMARK  8 active torsions:
REMARK  status: ('A' for Active; 'I' for Inactive)
REMARK    1  A    between atoms: C_1  and  O_2
REMARK    2  A    between atoms: O_2  and  C_3
REMARK    3  A    between atoms: C_3  and  C_4
REMARK    4  A    between atoms: C_4  and  N_5
REMARK    5  A    between atoms: C_10  and  C_11
REMARK    6  A    between atoms: C_11  and  C_12
REMARK    7  A    between atoms: N_20  and  C_21
REMARK    8  A    between atoms: C_21  and  C_22
REMARK                            x       y       z     vdW  Elec       q    Type
REMARK                         _______ _______ _______ _____ _____    ______ ____
ROOT
ATOM      1  N   UNL     1       5.358   5.204  16.885  0.00  0.00    +0.000 N 
ATOM      2  C   UNL     1       5.309   6.589  17.087  0.00  0.00    +0.000 A 
ATOM      3  O   UNL     1       6.236   7.364  16.979  0.00  0.00    +0.000 OA
ATOM      4  C   UNL     1       4.011   7.023  17.448  0.00  0.00    +0.000 A 
ATOM      5  N   UNL     1       3.543   8.288  17.544  0.00  0.00    +0.000 N 
ATOM      6  C   UNL     1       2.234   8.190  17.961  0.00  0.00    +0.000 A 
ATOM      7  N   UNL     1       1.880   6.923  18.107  0.00  0.00    +0.000 NA
ATOM      8  C   UNL     1       2.996   6.202  17.775  0.00  0.00    +0.000 A 
ATOM      9  N   UNL     1       3.130   4.834  17.725  0.00  0.00    +0.000 N 
ATOM     10  C   UNL     1       4.291   4.308  17.128  0.00  0.00    +0.000 A 
ATOM     11  O   UNL     1       4.376   3.120  16.788  0.00  0.00    +0.000 OA
ATOM     12  H   UNL     1       4.055   9.138  17.351  0.00  0.00    +0.000 HD
ENDROOT
BRANCH   1  13
ATOM     13  C   UNL     1       6.632   4.641  16.421  0.00  0.00    +0.000 C 
BRANCH  13  14
ATOM     14  C   UNL     1       7.694   4.581  17.521  0.00  0.00    +0.000 C 
BRANCH  14  16
ATOM     15  C   UNL     1       7.689   5.569  19.633  0.00  0.00    +0.000 C 
ATOM     16  O   UNL     1       7.093   4.567  18.816  0.00  0.00    +0.000 OA
ENDBRANCH  14  16
ENDBRANCH  13  14
ENDBRANCH   1  13
BRANCH   6  17
ATOM     17  C   UNL     1       1.422   9.424  18.186  0.00  0.00    +0.000 C 
BRANCH  17  18
ATOM     18  C   UNL     1       0.877   9.536  19.589  0.00  0.00    +0.000 A 
ATOM     19  C   UNL     1       1.381   8.732  20.622  0.00  0.00    +0.000 A 
ATOM     20  C   UNL     1       0.912   8.888  21.928  0.00  0.00    +0.000 A 
ATOM     21  C   UNL     1      -0.058   9.848  22.211  0.00  0.00    +0.000 A 
ATOM     22  C   UNL     1      -0.577  10.641  21.189  0.00  0.00    +0.000 A 
ATOM     23  C   UNL     1      -0.112  10.481  19.884  0.00  0.00    +0.000 A 
ENDBRANCH  17  18
ENDBRANCH   6  17
BRANCH   9  24
ATOM     24  C   UNL     1       2.006   3.973  18.135  0.00  0.00    +0.000 C 
BRANCH  24  25
ATOM     25  C   UNL     1       2.033   3.671  19.599  0.00  0.00    +0.000 A 
ATOM     26  C   UNL     1       1.829   4.424  20.742  0.00  0.00    +0.000 A 
ATOM     27  C   UNL     1       2.199   3.602  21.840  0.00  0.00    +0.000 A 
ATOM     28  C   UNL     1       2.498   2.370  21.309  0.00  0.00    +0.000 A 
ATOM     29  O   UNL     1       2.359   2.388  19.957  0.00  0.00    +0.000 OA
ENDBRANCH  24  25
ENDBRANCH   9  24
TORSDOF 7
ENDMDL
MODEL 4
REMARK VINA RESULT:      -7.7      0.525      1.171
REMARK  Name = 
REMARK  8 active torsions:
REMARK  status: ('A' for Active; 'I' for Inactive)
REMARK    1  A    between atoms: C_1  and  O_2
REMARK    2  A    between atoms: O_2  and  C_3
REMARK    3  A    between atoms: C_3  and  C_4
REMARK    4  A    between atoms: C_4  and  N_5
REMARK    5  A    between atoms: C_10  and  C_11
REMARK    6  A    between atoms: C_11  and  C_12
REMARK    7  A    between atoms: N_20  and  C_21
REMARK    8  A    between atoms: C_21  and  C_22
REMARK                            x       y       z     vdW  Elec       q    Type
REMARK                         _______ _______ _______ _____ _____    ______ ____
ROOT
ATOM      1  N   UNL     1       5.486   5.245  16.907  0.00  0.00    +0.000 N 
ATOM      2  C   UNL     1       5.369   6.624  17.127  0.00  0.00    +0.000 A 
ATOM      3  O   UNL     1       6.262   7.442  17.048  0.00  0.00    +0.000 OA
ATOM      4  C   UNL     1       4.046   6.993  17.468  0.00  0.00    +0.000 A 
ATOM      5  N   UNL     1       3.519   8.233  17.572  0.00  0.00    +0.000 N 
ATOM      6  C   UNL     1       2.208   8.069  17.962  0.00  0.00    +0.000 A 
ATOM      7  N   UNL     1       1.910   6.786  18.084  0.00  0.00    +0.000 NA
ATOM      8  C   UNL     1       3.064   6.122  17.764  0.00  0.00    +0.000 A 
ATOM      9  N   UNL     1       3.262   4.762  17.699  0.00  0.00    +0.000 N 
ATOM     10  C   UNL     1       4.457   4.298  17.118  0.00  0.00    +0.000 A 
ATOM     11  O   UNL     1       4.604   3.120  16.764  0.00  0.00    +0.000 OA
ATOM     12  H   UNL     1       3.995   9.109  17.400  0.00  0.00    +0.000 HD
ENDROOT
BRANCH   1  13
ATOM     13  C   UNL     1       6.793   4.748  16.461  0.00  0.00    +0.000 C 
BRANCH  13  14
ATOM     14  C   UNL     1       6.968   4.805  14.942  0.00  0.00    +0.000 C 
BRANCH  14  16
ATOM     15  C   UNL     1       5.565   3.973  13.276  0.00  0.00    +0.000 C 
ATOM     16  O   UNL     1       6.465   3.622  14.322  0.00  0.00    +0.000 OA
ENDBRANCH  14  16
ENDBRANCH  13  14
ENDBRANCH   1  13
BRANCH   6  17
ATOM     17  C   UNL     1       1.336   9.262  18.187  0.00  0.00    +0.000 C 
BRANCH  17  18
ATOM     18  C   UNL     1       0.907   9.428  19.624  0.00  0.00    +0.000 A 
ATOM     19  C   UNL     1       1.340   8.531  20.612  0.00  0.00    +0.000 A 
ATOM     20  C   UNL     1       0.987   8.731  21.948  0.00  0.00    +0.000 A 
ATOM     21  C   UNL     1       0.205   9.827  22.307  0.00  0.00    +0.000 A 
ATOM     22  C   UNL     1      -0.244  10.715  21.331  0.00  0.00    +0.000 A 
ATOM     23  C   UNL     1       0.104  10.512  19.996  0.00  0.00    +0.000 A 
ENDBRANCH  17  18
ENDBRANCH   6  17
BRANCH   9  24
ATOM     24  C   UNL     1       2.172   3.844  18.075  0.00  0.00    +0.000 C 
BRANCH  24  25
ATOM     25  C   UNL     1       2.240   3.450  19.517  0.00  0.00    +0.000 A 
ATOM     26  C   UNL     1       3.231   2.919  20.324  0.00  0.00    +0.000 A 
ATOM     27  C   UNL     1       2.610   2.578  21.555  0.00  0.00    +0.000 A 
ATOM     28  C   UNL     1       1.313   3.021  21.463  0.00  0.00    +0.000 A 
ATOM     29  O   UNL     1       1.089   3.590  20.248  0.00  0.00    +0.000 OA
ENDBRANCH  24  25
ENDBRANCH   9  24
TORSDOF 7
ENDMDL
MODEL 5
REMARK VINA RESULT:      -7.6      0.923      1.653
REMARK  Name = 
REMARK  8 active torsions:
REMARK  status: ('A' for Active; 'I' for Inactive)
REMARK    1  A    between atoms: C_1  and  O_2
REMARK    2  A    between atoms: O_2  and  C_3
REMARK    3  A    between atoms: C_3  and  C_4
REMARK    4  A    between atoms: C_4  and  N_5
REMARK    5  A    between atoms: C_10  and  C_11
REMARK    6  A    between atoms: C_11  and  C_12
REMARK    7  A    between atoms: N_20  and  C_21
REMARK    8  A    between atoms: C_21  and  C_22
REMARK                            x       y       z     vdW  Elec       q    Type
REMARK                         _______ _______ _______ _____ _____    ______ ____
ROOT
ATOM      1  N   UNL     1       5.382   5.386  16.868  0.00  0.00    +0.000 N 
ATOM      2  C   UNL     1       5.264   6.756  17.136  0.00  0.00    +0.000 A 
ATOM      3  O   UNL     1       6.159   7.575  17.097  0.00  0.00    +0.000 OA
ATOM      4  C   UNL     1       3.938   7.114  17.476  0.00  0.00    +0.000 A 
ATOM      5  N   UNL     1       3.411   8.350  17.619  0.00  0.00    +0.000 N 
ATOM      6  C   UNL     1       2.096   8.174  17.988  0.00  0.00    +0.000 A 
ATOM      7  N   UNL     1       1.795   6.887  18.060  0.00  0.00    +0.000 NA
ATOM      8  C   UNL     1       2.952   6.234  17.729  0.00  0.00    +0.000 A 
ATOM      9  N   UNL     1       3.150   4.877  17.616  0.00  0.00    +0.000 N 
ATOM     10  C   UNL     1       4.350   4.434  17.033  0.00  0.00    +0.000 A 
ATOM     11  O   UNL     1       4.500   3.269  16.637  0.00  0.00    +0.000 OA
ATOM     12  H   UNL     1       3.889   9.231  17.484  0.00  0.00    +0.000 HD
ENDROOT
BRANCH   1  13
ATOM     13  C   UNL     1       6.694   4.903  16.419  0.00  0.00    +0.000 C 
BRANCH  13  14
ATOM     14  C   UNL     1       7.601   4.474  17.575  0.00  0.00    +0.000 C 
BRANCH  14  16
ATOM     15  C   UNL     1       7.787   5.648  19.581  0.00  0.00    +0.000 C 
ATOM     16  O   UNL     1       8.188   5.606  18.215  0.00  0.00    +0.000 OA
ENDBRANCH  14  16
ENDBRANCH  13  14
ENDBRANCH   1  13
BRANCH   6  17
ATOM     17  C   UNL     1       1.222   9.359  18.247  0.00  0.00    +0.000 C 
BRANCH  17  18
ATOM     18  C   UNL     1       0.864   9.534  19.703  0.00  0.00    +0.000 A 
ATOM     19  C   UNL     1       0.017  10.574  20.115  0.00  0.00    +0.000 A 
ATOM     20  C   UNL     1      -0.356  10.688  21.455  0.00  0.00    +0.000 A 
ATOM     21  C   UNL     1       0.108   9.765  22.390  0.00  0.00    +0.000 A 
ATOM     22  C   UNL     1       0.963   8.737  21.993  0.00  0.00    +0.000 A 
ATOM     23  C   UNL     1       1.340   8.627  20.656  0.00  0.00    +0.000 A 
ENDBRANCH  17  18
ENDBRANCH   6  17
BRANCH   9  24
ATOM     24  C   UNL     1       2.054   3.948  17.947  0.00  0.00    +0.000 C 
BRANCH  24  25
ATOM     25  C   UNL     1       2.054   3.569  19.394  0.00  0.00    +0.000 A 
ATOM     26  C   UNL     1       1.255   3.897  20.476  0.00  0.00    +0.000 A 
ATOM     27  C   UNL     1       1.899   3.371  21.628  0.00  0.00    +0.000 A 
ATOM     28  C   UNL     1       2.984   2.666  21.169  0.00  0.00    +0.000 A 
ATOM     29  O   UNL     1       3.064   2.742  19.813  0.00  0.00    +0.000 OA
ENDBRANCH  24  25
ENDBRANCH   9  24
TORSDOF 7
ENDMDL
MODEL 6
REMARK VINA RESULT:      -7.5      4.747      8.874
REMARK  Name = 
REMARK  8 active torsions:
REMARK  status: ('A' for Active; 'I' for Inactive)
REMARK    1  A    between atoms: C_1  and  O_2
REMARK    2  A    between atoms: O_2  and  C_3
REMARK    3  A    between atoms: C_3  and  C_4
REMARK    4  A    between atoms: C_4  and  N_5
REMARK    5  A    between atoms: C_10  and  C_11
REMARK    6  A    between atoms: C_11  and  C_12
REMARK    7  A    between atoms: N_20  and  C_21
REMARK    8  A    between atoms: C_21  and  C_22
REMARK                            x       y       z     vdW  Elec       q    Type
REMARK                         _______ _______ _______ _____ _____    ______ ____
ROOT
ATOM      1  N   UNL     1      -0.826  10.893  22.130  0.00  0.00    +0.000 N 
ATOM      2  C   UNL     1       0.133   9.924  22.450  0.00  0.00    +0.000 A 
ATOM      3  O   UNL     1       0.448   9.565  23.566  0.00  0.00    +0.000 OA
ATOM      4  C   UNL     1       0.734   9.375  21.292  0.00  0.00    +0.000 A 
ATOM      5  N   UNL     1       1.556   8.306  21.196  0.00  0.00    +0.000 N 
ATOM      6  C   UNL     1       1.899   8.194  19.867  0.00  0.00    +0.000 A 
ATOM      7  N   UNL     1       1.309   9.135  19.148  0.00  0.00    +0.000 NA
ATOM      8  C   UNL     1       0.576   9.862  20.047  0.00  0.00    +0.000 A 
ATOM      9  N   UNL     1      -0.253  10.930  19.790  0.00  0.00    +0.000 N 
ATOM     10  C   UNL     1      -1.093  11.375  20.828  0.00  0.00    +0.000 A 
ATOM     11  O   UNL     1      -2.054  12.127  20.620  0.00  0.00    +0.000 OA
ATOM     12  H   UNL     1       1.862   7.709  21.953  0.00  0.00    +0.000 HD
ENDROOT
BRANCH   1  13
ATOM     13  C   UNL     1      -1.583  11.476  23.245  0.00  0.00    +0.000 C 
BRANCH  13  14
ATOM     14  C   UNL     1      -1.611  13.006  23.213  0.00  0.00    +0.000 C 
BRANCH  14  16
ATOM     15  C   UNL     1      -0.170  14.695  22.500  0.00  0.00    +0.000 C 
ATOM     16  O   UNL     1      -0.295  13.546  23.332  0.00  0.00    +0.000 OA
ENDBRANCH  14  16
ENDBRANCH  13  14
ENDBRANCH   1  13
BRANCH   6  17
ATOM     17  C   UNL     1       2.824   7.109  19.418  0.00  0.00    +0.000 C 
BRANCH  17  18
ATOM     18  C   UNL     1       2.181   5.744  19.396  0.00  0.00    +0.000 A 
ATOM     19  C   UNL     1       1.688   5.163  20.574  0.00  0.00    +0.000 A 
ATOM     20  C   UNL     1       1.040   3.927  20.531  0.00  0.00    +0.000 A 
ATOM     21  C   UNL     1       0.877   3.266  19.316  0.00  0.00    +0.000 A 
ATOM     22  C   UNL     1       1.378   3.827  18.142  0.00  0.00    +0.000 A 
ATOM     23  C   UNL     1       2.030   5.058  18.186  0.00  0.00    +0.000 A 
ENDBRANCH  17  18
ENDBRANCH   6  17
BRANCH   9  24
ATOM     24  C   UNL     1      -0.361  11.459  18.419  0.00  0.00    +0.000 C 
BRANCH  24  25
ATOM     25  C   UNL     1      -1.557  10.922  17.700  0.00  0.00    +0.000 A 
ATOM     26  C   UNL     1      -1.853   9.716  17.090  0.00  0.00    +0.000 A 
ATOM     27  C   UNL     1      -3.085   9.900  16.406  0.00  0.00    +0.000 A 
ATOM     28  C   UNL     1      -3.515  11.163  16.730  0.00  0.00    +0.000 A 
ATOM     29  O   UNL     1      -2.619  11.777  17.549  0.00  0.00    +0.000 OA
ENDBRANCH  24  25
ENDBRANCH   9  24
TORSDOF 7
ENDMDL
MODEL 7
REMARK VINA RESULT:      -7.4      1.607      2.108
REMARK  Name = 
REMARK  8 active torsions:
REMARK  status: ('A' for Active; 'I' for Inactive)
REMARK    1  A    between atoms: C_1  and  O_2
REMARK    2  A    between atoms: O_2  and  C_3
REMARK    3  A    between atoms: C_3  and  C_4
REMARK    4  A    between atoms: C_4  and  N_5
REMARK    5  A    between atoms: C_10  and  C_11
REMARK    6  A    between atoms: C_11  and  C_12
REMARK    7  A    between atoms: N_20  and  C_21
REMARK    8  A    between atoms: C_21  and  C_22
REMARK                            x       y       z     vdW  Elec       q    Type
REMARK                         _______ _______ _______ _____ _____    ______ ____
ROOT
ATOM      1  N   UNL     1       5.838   5.485  17.997  0.00  0.00    +0.000 N 
ATOM      2  C   UNL     1       5.491   6.720  17.433  0.00  0.00    +0.000 A 
ATOM      3  O   UNL     1       6.186   7.398  16.704  0.00  0.00    +0.000 OA
ATOM      4  C   UNL     1       4.189   7.126  17.811  0.00  0.00    +0.000 A 
ATOM      5  N   UNL     1       3.454   8.152  17.329  0.00  0.00    +0.000 N 
ATOM      6  C   UNL     1       2.274   8.156  18.040  0.00  0.00    +0.000 A 
ATOM      7  N   UNL     1       2.252   7.169  18.921  0.00  0.00    +0.000 NA
ATOM      8  C   UNL     1       3.450   6.525  18.763  0.00  0.00    +0.000 A 
ATOM      9  N   UNL     1       3.896   5.401  19.420  0.00  0.00    +0.000 N 
ATOM     10  C   UNL     1       5.056   4.771  18.933  0.00  0.00    +0.000 A 
ATOM     11  O   UNL     1       5.372   3.622  19.270  0.00  0.00    +0.000 OA
ATOM     12  H   UNL     1       3.720   8.793  16.593  0.00  0.00    +0.000 HD
ENDROOT
BRANCH   1  13
ATOM     13  C   UNL     1       7.134   4.915  17.609  0.00  0.00    +0.000 C 
BRANCH  13  14
ATOM     14  C   UNL     1       7.077   4.143  16.288  0.00  0.00    +0.000 C 
BRANCH  14  16
ATOM     15  C   UNL     1       6.861   4.814  14.066  0.00  0.00    +0.000 C 
ATOM     16  O   UNL     1       7.676   4.891  15.231  0.00  0.00    +0.000 OA
ENDBRANCH  14  16
ENDBRANCH  13  14
ENDBRANCH   1  13
BRANCH   6  17
ATOM     17  C   UNL     1       1.232   9.191  17.762  0.00  0.00    +0.000 C 
BRANCH  17  18
ATOM     18  C   UNL     1       1.378  10.431  18.608  0.00  0.00    +0.000 A 
ATOM     19  C   UNL     1       2.101  11.539  18.141  0.00  0.00    +0.000 A 
ATOM     20  C   UNL     1       2.177  12.704  18.907  0.00  0.00    +0.000 A 
ATOM     21  C   UNL     1       1.531  12.772  20.139  0.00  0.00    +0.000 A 
ATOM     22  C   UNL     1       0.823  11.671  20.620  0.00  0.00    +0.000 A 
ATOM     23  C   UNL     1       0.752  10.507  19.857  0.00  0.00    +0.000 A 
ENDBRANCH  17  18
ENDBRANCH   6  17
BRANCH   9  24
ATOM     24  C   UNL     1       3.073   4.803  20.487  0.00  0.00    +0.000 C 
BRANCH  24  25
ATOM     25  C   UNL     1       2.228   3.677  19.982  0.00  0.00    +0.000 A 
ATOM     26  C   UNL     1       2.269   2.301  20.130  0.00  0.00    +0.000 A 
ATOM     27  C   UNL     1       1.304   1.769  19.233  0.00  0.00    +0.000 A 
ATOM     28  C   UNL     1       0.663   2.851  18.679  0.00  0.00    +0.000 A 
ATOM     29  O   UNL     1       1.185   4.011  19.158  0.00  0.00    +0.000 OA
ENDBRANCH  24  25
ENDBRANCH   9  24
TORSDOF 7
ENDMDL
MODEL 8
REMARK VINA RESULT:      -7.3      1.662      4.454
REMARK  Name = 
REMARK  8 active torsions:
REMARK  status: ('A' for Active; 'I' for Inactive)
REMARK    1  A    between atoms: C_1  and  O_2
REMARK    2  A    between atoms: O_2  and  C_3
REMARK    3  A    between atoms: C_3  and  C_4
REMARK    4  A    between atoms: C_4  and  N_5
REMARK    5  A    between atoms: C_10  and  C_11
REMARK    6  A    between atoms: C_11  and  C_12
REMARK    7  A    between atoms: N_20  and  C_21
REMARK    8  A    between atoms: C_21  and  C_22
REMARK                            x       y       z     vdW  Elec       q    Type
REMARK                         _______ _______ _______ _____ _____    ______ ____
ROOT
ATOM      1  N   UNL     1       3.912   4.462  19.598  0.00  0.00    +0.000 N 
ATOM      2  C   UNL     1       2.668   5.106  19.606  0.00  0.00    +0.000 A 
ATOM      3  O   UNL     1       1.651   4.700  20.128  0.00  0.00    +0.000 OA
ATOM      4  C   UNL     1       2.709   6.338  18.911  0.00  0.00    +0.000 A 
ATOM      5  N   UNL     1       1.769   7.309  18.862  0.00  0.00    +0.000 N 
ATOM      6  C   UNL     1       2.262   8.289  18.029  0.00  0.00    +0.000 A 
ATOM      7  N   UNL     1       3.466   7.967  17.584  0.00  0.00    +0.000 NA
ATOM      8  C   UNL     1       3.739   6.750  18.148  0.00  0.00    +0.000 A 
ATOM      9  N   UNL     1       4.891   6.006  18.029  0.00  0.00    +0.000 N 
ATOM     10  C   UNL     1       5.051   4.901  18.885  0.00  0.00    +0.000 A 
ATOM     11  O   UNL     1       6.148   4.348  19.048  0.00  0.00    +0.000 OA
ATOM     12  H   UNL     1       0.878   7.311  19.340  0.00  0.00    +0.000 HD
ENDROOT
BRANCH   1  13
ATOM     13  C   UNL     1       4.022   3.212  20.361  0.00  0.00    +0.000 C 
BRANCH  13  14
ATOM     14  C   UNL     1       3.962   1.964  19.477  0.00  0.00    +0.000 C 
BRANCH  14  16
ATOM     15  C   UNL     1       2.563   2.043  17.614  0.00  0.00    +0.000 C 
ATOM     16  O   UNL     1       2.636   1.735  19.002  0.00  0.00    +0.000 OA
ENDBRANCH  14  16
ENDBRANCH  13  14
ENDBRANCH   1  13
BRANCH   6  17
ATOM     17  C   UNL     1       1.450   9.511  17.743  0.00  0.00    +0.000 C 
BRANCH  17  18
ATOM     18  C   UNL     1       1.085  10.292  18.982  0.00  0.00    +0.000 A 
ATOM     19  C   UNL     1       1.589  11.584  19.192  0.00  0.00    +0.000 A 
ATOM     20  C   UNL     1       1.195  12.319  20.311  0.00  0.00    +0.000 A 
ATOM     21  C   UNL     1       0.294  11.774  21.223  0.00  0.00    +0.000 A 
ATOM     22  C   UNL     1      -0.201  10.485  21.032  0.00  0.00    +0.000 A 
ATOM     23  C   UNL     1       0.197   9.748  19.918  0.00  0.00    +0.000 A 
ENDBRANCH  17  18
ENDBRANCH   6  17
BRANCH   9  24
ATOM     24  C   UNL     1       5.976   6.473  17.147  0.00  0.00    +0.000 C 
BRANCH  24  25
ATOM     25  C   UNL     1       6.084   5.649  15.904  0.00  0.00    +0.000 A 
ATOM     26  C   UNL     1       5.237   4.767  15.256  0.00  0.00    +0.000 A 
ATOM     27  C   UNL     1       6.003   4.151  14.230  0.00  0.00    +0.000 A 
ATOM     28  C   UNL     1       7.229   4.771  14.245  0.00  0.00    +0.000 A 
ATOM     29  O   UNL     1       7.275   5.711  15.227  0.00  0.00    +0.000 OA
ENDBRANCH  24  25
ENDBRANCH   9  24
TORSDOF 7
ENDMDL
MODEL 9
REMARK VINA RESULT:      -7.3      1.492      1.993
REMARK  Name = 
REMARK  8 active torsions:
REMARK  status: ('A' for Active; 'I' for Inactive)
REMARK    1  A    between atoms: C_1  and  O_2
REMARK    2  A    between atoms: O_2  and  C_3
REMARK    3  A    between atoms: C_3  and  C_4
REMARK    4  A    between atoms: C_4  and  N_5
REMARK    5  A    between atoms: C_10  and  C_11
REMARK    6  A    between atoms: C_11  and  C_12
REMARK    7  A    between atoms: N_20  and  C_21
REMARK    8  A    between atoms: C_21  and  C_22
REMARK                            x       y       z     vdW  Elec       q    Type
REMARK                         _______ _______ _______ _____ _____    ______ ____
ROOT
ATOM      1  N   UNL     1       5.978   5.597  17.944  0.00  0.00    +0.000 N 
ATOM      2  C   UNL     1       5.594   6.833  17.408  0.00  0.00    +0.000 A 
ATOM      3  O   UNL     1       6.276   7.558  16.713  0.00  0.00    +0.000 OA
ATOM      4  C   UNL     1       4.271   7.178  17.772  0.00  0.00    +0.000 A 
ATOM      5  N   UNL     1       3.505   8.189  17.304  0.00  0.00    +0.000 N 
ATOM      6  C   UNL     1       2.313   8.127  17.991  0.00  0.00    +0.000 A 
ATOM      7  N   UNL     1       2.313   7.114  18.843  0.00  0.00    +0.000 NA
ATOM      8  C   UNL     1       3.538   6.522  18.691  0.00  0.00    +0.000 A 
ATOM      9  N   UNL     1       4.014   5.398  19.325  0.00  0.00    +0.000 N 
ATOM     10  C   UNL     1       5.207   4.827  18.844  0.00  0.00    +0.000 A 
ATOM     11  O   UNL     1       5.561   3.681  19.155  0.00  0.00    +0.000 OA
ATOM     12  H   UNL     1       3.760   8.860  16.592  0.00  0.00    +0.000 HD
ENDROOT
BRANCH   1  13
ATOM     13  C   UNL     1       7.302   5.088  17.566  0.00  0.00    +0.000 C 
BRANCH  13  14
ATOM     14  C   UNL     1       7.290   4.308  16.249  0.00  0.00    +0.000 C 
BRANCH  14  16
ATOM     15  C   UNL     1       6.845   4.813  14.016  0.00  0.00    +0.000 C 
ATOM     16  O   UNL     1       7.637   5.151  15.150  0.00  0.00    +0.000 OA
ENDBRANCH  14  16
ENDBRANCH  13  14
ENDBRANCH   1  13
BRANCH   6  17
ATOM     17  C   UNL     1       1.237   9.129  17.722  0.00  0.00    +0.000 C 
BRANCH  17  18
ATOM     18  C   UNL     1       1.220  10.271  18.708  0.00  0.00    +0.000 A 
ATOM     19  C   UNL     1       0.638  10.118  19.975  0.00  0.00    +0.000 A 
ATOM     20  C   UNL     1       0.684  11.162  20.901  0.00  0.00    +0.000 A 
ATOM     21  C   UNL     1       1.313  12.360  20.572  0.00  0.00    +0.000 A 
ATOM     22  C   UNL     1       1.881  12.528  19.310  0.00  0.00    +0.000 A 
ATOM     23  C   UNL     1       1.830  11.488  18.383  0.00  0.00    +0.000 A 
ENDBRANCH  17  18
ENDBRANCH   6  17
BRANCH   9  24
ATOM     24  C   UNL     1       3.195   4.738  20.358  0.00  0.00    +0.000 C 
BRANCH  24  25
ATOM     25  C   UNL     1       2.274   3.714  19.778  0.00  0.00    +0.000 A 
ATOM     26  C   UNL     1       1.781   3.471  18.507  0.00  0.00    +0.000 A 
ATOM     27  C   UNL     1       0.784   2.469  18.644  0.00  0.00    +0.000 A 
ATOM     28  C   UNL     1       0.808   2.087  19.964  0.00  0.00    +0.000 A 
ATOM     29  O   UNL     1       1.737   2.803  20.651  0.00  0.00    +0.000 OA
ENDBRANCH  24  25
ENDBRANCH   9  24
TORSDOF 7
ENDMDL
