MODEL 1
REMARK VINA RESULT:      -7.5      0.000      0.000
REMARK  Name = 
REMARK  8 active torsions:
REMARK  status: ('A' for Active; 'I' for Inactive)
REMARK    1  A    between atoms: C_2  and  C_4
REMARK    2  A    between atoms: C_8  and  N_9
REMARK    3  A    between atoms: C_10  and  C_12
REMARK    4  A    between atoms: C_12  and  C_13
REMARK    5  A    between atoms: C_13  and  C_14
REMARK    6  A    between atoms: C_14  and  C_15
REMARK    7  A    between atoms: C_15  and  N_16
REMARK    8  A    between atoms: N_19  and  C_20
REMARK                            x       y       z     vdW  Elec       q    Type
REMARK                         _______ _______ _______ _____ _____    ______ ____
ROOT
ATOM      1  C   UNL     1       9.541  10.806  17.954  0.00  0.00    +0.000 C 
ENDROOT
BRANCH   1   3
ATOM      2  N   UNL     1       8.608  13.039  17.593  0.00  0.00    +0.000 N 
ATOM      3  C   UNL     1       9.072  12.134  18.528  0.00  0.00    +0.000 C 
ATOM      4  O   UNL     1       9.122  12.340  19.740  0.00  0.00    +0.000 OA
ATOM      5  H   UNL     1       8.406  12.733  16.641  0.00  0.00    +0.000 HD
BRANCH   2  10
ATOM      6  C   UNL     1       9.132  15.415  17.965  0.00  0.00    +0.000 A 
ATOM      7  S   UNL     1       8.347  16.883  18.414  0.00  0.00    +0.000 S 
ATOM      8  C   UNL     1       6.829  16.130  18.525  0.00  0.00    +0.000 A 
ATOM      9  C   UNL     1       6.914  14.785  18.258  0.00  0.00    +0.000 A 
ATOM     10  C   UNL     1       8.239  14.350  17.923  0.00  0.00    +0.000 A 
BRANCH   6  12
ATOM     11  N   UNL     1      11.393  14.962  18.644  0.00  0.00    +0.000 N 
ATOM     12  C   UNL     1      10.553  15.409  17.656  0.00  0.00    +0.000 C 
ATOM     13  O   UNL     1      11.024  15.796  16.589  0.00  0.00    +0.000 OA
ATOM     14  H   UNL     1      12.391  15.012  18.501  0.00  0.00    +0.000 HD
ATOM     15  H   UNL     1      11.038  14.694  19.552  0.00  0.00    +0.000 HD
ENDBRANCH   6  12
ENDBRANCH   2  10
ENDBRANCH   1   3
BRANCH   1  16
ATOM     16  C   UNL     1       8.726   9.686  18.600  0.00  0.00    +0.000 C 
BRANCH  16  17
ATOM     17  C   UNL     1       8.041   8.767  17.599  0.00  0.00    +0.000 C 
BRANCH  17  18
ATOM     18  C   UNL     1       7.874   7.375  18.228  0.00  0.00    +0.000 C 
BRANCH  18  19
ATOM     19  N   UNL     1       7.550   6.313  17.261  0.00  0.00    +0.000 NA
ATOM     20  C   UNL     1       7.386   4.989  17.900  0.00  0.00    +0.000 C 
ATOM     21  C   UNL     1       6.226   4.908  18.915  0.00  0.00    +0.000 C 
ATOM     22  N   UNL     1       4.956   5.323  18.290  0.00  0.00    +0.000 N 
ATOM     23  C   UNL     1       5.001   6.564  17.493  0.00  0.00    +0.000 C 
ATOM     24  C   UNL     1       6.259   6.617  16.584  0.00  0.00    +0.000 C 
BRANCH  22  25
ATOM     25  C   UNL     1       3.866   4.473  18.338  0.00  0.00    +0.000 A 
ATOM     26  C   UNL     1       3.980   3.125  17.952  0.00  0.00    +0.000 A 
ATOM     27  C   UNL     1       2.876   2.272  17.879  0.00  0.00    +0.000 A 
ATOM     28  C   UNL     1       1.619   2.739  18.231  0.00  0.00    +0.000 A 
ATOM     29  C   UNL     1       1.479   4.048  18.677  0.00  0.00    +0.000 A 
ATOM     30  C   UNL     1       2.591   4.900  18.732  0.00  0.00    +0.000 A 
ENDBRANCH  22  25
ENDBRANCH  18  19
ENDBRANCH  17  18
ENDBRANCH  16  17
ENDBRANCH   1  16
TORSDOF 8
ENDMDL
MODEL 2
REMARK VINA RESULT:      -7.5      6.194      8.440
REMARK  Name = 
REMARK  8 active torsions:
REMARK  status: ('A' for Active; 'I' for Inactive)
REMARK    1  A    between atoms: C_2  and  C_4
REMARK    2  A    between atoms: C_8  and  N_9
REMARK    3  A    between atoms: C_10  and  C_12
REMARK    4  A    between atoms: C_12  and  C_13
REMARK    5  A    between atoms: C_13  and  C_14
REMARK    6  A    between atoms: C_14  and  C_15
REMARK    7  A    between atoms: C_15  and  N_16
REMARK    8  A    between atoms: N_19  and  C_20
REMARK                            x       y       z     vdW  Elec       q    Type
REMARK                         _______ _______ _______ _____ _____    ______ ____
ROOT
ATOM      1  C   UNL     1       2.234   4.412  21.497  0.00  0.00    +0.000 C 
ENDROOT
BRANCH   1   3
ATOM      2  N   UNL     1       2.473   6.581  20.391  0.00  0.00    +0.000 N 
ATOM      3  C   UNL     1       1.630   5.514  20.641  0.00  0.00    +0.000 C 
ATOM      4  O   UNL     1       0.475   5.419  20.227  0.00  0.00    +0.000 OA
ATOM      5  H   UNL     1       3.470   6.503  20.590  0.00  0.00    +0.000 HD
BRANCH   2  10
ATOM      6  C   UNL     1       1.337   8.764  20.318  0.00  0.00    +0.000 A 
ATOM      7  S   UNL     1       0.980  10.026  19.200  0.00  0.00    +0.000 S 
ATOM      8  C   UNL     1       1.790   9.240  17.932  0.00  0.00    +0.000 A 
ATOM      9  C   UNL     1       2.298   8.029  18.334  0.00  0.00    +0.000 A 
ATOM     10  C   UNL     1       2.054   7.736  19.716  0.00  0.00    +0.000 A 
BRANCH   6  12
ATOM     11  N   UNL     1      -0.407   8.659  21.970  0.00  0.00    +0.000 N 
ATOM     12  C   UNL     1       0.922   8.876  21.707  0.00  0.00    +0.000 C 
ATOM     13  O   UNL     1       1.681   9.170  22.628  0.00  0.00    +0.000 OA
ATOM     14  H   UNL     1      -0.753   8.801  22.907  0.00  0.00    +0.000 HD
ATOM     15  H   UNL     1      -1.064   8.474  21.224  0.00  0.00    +0.000 HD
ENDBRANCH   6  12
ENDBRANCH   2  10
ENDBRANCH   1   3
BRANCH   1  16
ATOM     16  C   UNL     1       1.337   3.178  21.399  0.00  0.00    +0.000 C 
BRANCH  16  17
ATOM     17  C   UNL     1       1.881   2.091  20.484  0.00  0.00    +0.000 C 
BRANCH  17  18
ATOM     18  C   UNL     1       1.396   2.353  19.049  0.00  0.00    +0.000 C 
BRANCH  18  19
ATOM     19  N   UNL     1       2.396   2.051  18.012  0.00  0.00    +0.000 NA
ATOM     20  C   UNL     1       2.572   3.159  17.047  0.00  0.00    +0.000 C 
ATOM     21  C   UNL     1       3.093   4.472  17.670  0.00  0.00    +0.000 C 
ATOM     22  N   UNL     1       4.353   4.240  18.400  0.00  0.00    +0.000 N 
ATOM     23  C   UNL     1       4.374   3.071  19.301  0.00  0.00    +0.000 C 
ATOM     24  C   UNL     1       3.729   1.824  18.639  0.00  0.00    +0.000 C 
BRANCH  22  25
ATOM     25  C   UNL     1       5.468   4.998  18.090  0.00  0.00    +0.000 A 
ATOM     26  C   UNL     1       6.427   5.312  19.070  0.00  0.00    +0.000 A 
ATOM     27  C   UNL     1       7.502   6.168  18.817  0.00  0.00    +0.000 A 
ATOM     28  C   UNL     1       7.670   6.710  17.552  0.00  0.00    +0.000 A 
ATOM     29  C   UNL     1       6.776   6.371  16.542  0.00  0.00    +0.000 A 
ATOM     30  C   UNL     1       5.693   5.523  16.811  0.00  0.00    +0.000 A 
ENDBRANCH  22  25
ENDBRANCH  18  19
ENDBRANCH  17  18
ENDBRANCH  16  17
ENDBRANCH   1  16
TORSDOF 8
ENDMDL
MODEL 3
REMARK VINA RESULT:      -7.5      1.660      1.891
REMARK  Name = 
REMARK  8 active torsions:
REMARK  status: ('A' for Active; 'I' for Inactive)
REMARK    1  A    between atoms: C_2  and  C_4
REMARK    2  A    between atoms: C_8  and  N_9
REMARK    3  A    between atoms: C_10  and  C_12
REMARK    4  A    between atoms: C_12  and  C_13
REMARK    5  A    between atoms: C_13  and  C_14
REMARK    6  A    between atoms: C_14  and  C_15
REMARK    7  A    between atoms: C_15  and  N_16
REMARK    8  A    between atoms: N_19  and  C_20
REMARK                            x       y       z     vdW  Elec       q    Type
REMARK                         _______ _______ _______ _____ _____    ______ ____
ROOT
ATOM      1  C   UNL     1       8.303   9.433  17.977  0.00  0.00    +0.000 C 
ENDROOT
BRANCH   1   3
ATOM      2  N   UNL     1       8.592  11.863  18.033  0.00  0.00    +0.000 N 
ATOM      3  C   UNL     1       8.888  10.664  18.654  0.00  0.00    +0.000 C 
ATOM      4  O   UNL     1       9.566  10.550  19.674  0.00  0.00    +0.000 OA
ATOM      5  H   UNL     1       7.867  11.903  17.317  0.00  0.00    +0.000 HD
BRANCH   2  10
ATOM      6  C   UNL     1      10.395  13.538  18.073  0.00  0.00    +0.000 A 
ATOM      7  S   UNL     1      10.749  15.076  18.768  0.00  0.00    +0.000 S 
ATOM      8  C   UNL     1       9.239  15.164  19.538  0.00  0.00    +0.000 A 
ATOM      9  C   UNL     1       8.487  14.039  19.302  0.00  0.00    +0.000 A 
ATOM     10  C   UNL     1       9.135  13.086  18.448  0.00  0.00    +0.000 A 
BRANCH   6  12
ATOM     11  N   UNL     1      12.028  11.814  17.697  0.00  0.00    +0.000 N 
ATOM     12  C   UNL     1      11.354  12.896  17.189  0.00  0.00    +0.000 C 
ATOM     13  O   UNL     1      11.597  13.279  16.047  0.00  0.00    +0.000 OA
ATOM     14  H   UNL     1      12.757  11.386  17.146  0.00  0.00    +0.000 HD
ATOM     15  H   UNL     1      11.891  11.515  18.653  0.00  0.00    +0.000 HD
ENDBRANCH   6  12
ENDBRANCH   2  10
ENDBRANCH   1   3
BRANCH   1  16
ATOM     16  C   UNL     1       8.794   8.193  18.723  0.00  0.00    +0.000 C 
BRANCH  16  17
ATOM     17  C   UNL     1       7.932   6.959  18.501  0.00  0.00    +0.000 C 
BRANCH  17  18
ATOM     18  C   UNL     1       6.928   7.244  17.373  0.00  0.00    +0.000 C 
BRANCH  18  19
ATOM     19  N   UNL     1       6.331   6.036  16.780  0.00  0.00    +0.000 NA
ATOM     20  C   UNL     1       6.399   4.864  17.681  0.00  0.00    +0.000 C 
ATOM     21  C   UNL     1       5.621   5.030  19.004  0.00  0.00    +0.000 C 
ATOM     22  N   UNL     1       4.213   5.380  18.742  0.00  0.00    +0.000 N 
ATOM     23  C   UNL     1       3.984   6.445  17.747  0.00  0.00    +0.000 C 
ATOM     24  C   UNL     1       4.887   6.267  16.497  0.00  0.00    +0.000 C 
BRANCH  22  25
ATOM     25  C   UNL     1       3.207   4.606  19.293  0.00  0.00    +0.000 A 
ATOM     26  C   UNL     1       3.152   3.218  19.065  0.00  0.00    +0.000 A 
ATOM     27  C   UNL     1       2.089   2.428  19.510  0.00  0.00    +0.000 A 
ATOM     28  C   UNL     1       1.058   3.005  20.236  0.00  0.00    +0.000 A 
ATOM     29  C   UNL     1       1.111   4.362  20.534  0.00  0.00    +0.000 A 
ATOM     30  C   UNL     1       2.175   5.148  20.069  0.00  0.00    +0.000 A 
ENDBRANCH  22  25
ENDBRANCH  18  19
ENDBRANCH  17  18
ENDBRANCH  16  17
ENDBRANCH   1  16
TORSDOF 8
ENDMDL
MODEL 4
REMARK VINA RESULT:      -7.4      1.594      2.377
REMARK  Name = 
REMARK  8 active torsions:
REMARK  status: ('A' for Active; 'I' for Inactive)
REMARK    1  A    between atoms: C_2  and  C_4
REMARK    2  A    between atoms: C_8  and  N_9
REMARK    3  A    between atoms: C_10  and  C_12
REMARK    4  A    between atoms: C_12  and  C_13
REMARK    5  A    between atoms: C_13  and  C_14
REMARK    6  A    between atoms: C_14  and  C_15
REMARK    7  A    between atoms: C_15  and  N_16
REMARK    8  A    between atoms: N_19  and  C_20
REMARK                            x       y       z     vdW  Elec       q    Type
REMARK                         _______ _______ _______ _____ _____    ______ ____
ROOT
ATOM      1  C   UNL     1       9.111   9.459  19.079  0.00  0.00    +0.000 C 
ENDROOT
BRANCH   1   3
ATOM      2  N   UNL     1      10.002  11.697  18.649  0.00  0.00    +0.000 N 
ATOM      3  C   UNL     1       9.406  10.864  19.578  0.00  0.00    +0.000 C 
ATOM      4  O   UNL     1       9.118  11.189  20.729  0.00  0.00    +0.000 OA
ATOM      5  H   UNL     1      10.027  11.430  17.665  0.00  0.00    +0.000 HD
BRANCH   2  10
ATOM      6  C   UNL     1       9.669  14.130  18.812  0.00  0.00    +0.000 A 
ATOM      7  S   UNL     1      10.528  15.549  19.283  0.00  0.00    +0.000 S 
ATOM      8  C   UNL     1      11.912  14.664  19.712  0.00  0.00    +0.000 A 
ATOM      9  C   UNL     1      11.744  13.321  19.477  0.00  0.00    +0.000 A 
ATOM     10  C   UNL     1      10.448  12.988  18.963  0.00  0.00    +0.000 A 
BRANCH   6  12
ATOM     11  N   UNL     1       7.517  15.192  18.949  0.00  0.00    +0.000 N 
ATOM     12  C   UNL     1       8.291  14.225  18.359  0.00  0.00    +0.000 C 
ATOM     13  O   UNL     1       7.796  13.486  17.511  0.00  0.00    +0.000 OA
ATOM     14  H   UNL     1       6.535  15.243  18.720  0.00  0.00    +0.000 HD
ATOM     15  H   UNL     1       7.882  15.773  19.692  0.00  0.00    +0.000 HD
ENDBRANCH   6  12
ENDBRANCH   2  10
ENDBRANCH   1   3
BRANCH   1  16
ATOM     16  C   UNL     1       8.376   9.565  17.743  0.00  0.00    +0.000 C 
BRANCH  16  17
ATOM     17  C   UNL     1       7.199   8.610  17.609  0.00  0.00    +0.000 C 
BRANCH  17  18
ATOM     18  C   UNL     1       7.700   7.168  17.789  0.00  0.00    +0.000 C 
BRANCH  18  19
ATOM     19  N   UNL     1       7.249   6.240  16.738  0.00  0.00    +0.000 NA
ATOM     20  C   UNL     1       7.197   4.836  17.201  0.00  0.00    +0.000 C 
ATOM     21  C   UNL     1       6.200   4.578  18.351  0.00  0.00    +0.000 C 
ATOM     22  N   UNL     1       4.847   5.035  17.982  0.00  0.00    +0.000 N 
ATOM     23  C   UNL     1       4.760   6.375  17.370  0.00  0.00    +0.000 C 
ATOM     24  C   UNL     1       5.868   6.593  16.305  0.00  0.00    +0.000 C 
BRANCH  22  25
ATOM     25  C   UNL     1       3.786   4.151  18.066  0.00  0.00    +0.000 A 
ATOM     26  C   UNL     1       2.456   4.608  18.004  0.00  0.00    +0.000 A 
ATOM     27  C   UNL     1       1.364   3.759  18.200  0.00  0.00    +0.000 A 
ATOM     28  C   UNL     1       1.574   2.407  18.429  0.00  0.00    +0.000 A 
ATOM     29  C   UNL     1       2.872   1.910  18.434  0.00  0.00    +0.000 A 
ATOM     30  C   UNL     1       3.961   2.774  18.251  0.00  0.00    +0.000 A 
ENDBRANCH  22  25
ENDBRANCH  18  19
ENDBRANCH  17  18
ENDBRANCH  16  17
ENDBRANCH   1  16
TORSDOF 8
ENDMDL
MODEL 5
REMARK VINA RESULT:      -7.3      2.380      2.845
REMARK  Name = 
REMARK  8 active torsions:
REMARK  status: ('A' for Active; 'I' for Inactive)
REMARK    1  A    between atoms: C_2  and  C_4
REMARK    2  A    between atoms: C_8  and  N_9
REMARK    3  A    between atoms: C_10  and  C_12
REMARK    4  A    between atoms: C_12  and  C_13
REMARK    5  A    between atoms: C_13  and  C_14
REMARK    6  A    between atoms: C_14  and  C_15
REMARK    7  A    between atoms: C_15  and  N_16
REMARK    8  A    between atoms: N_19  and  C_20
REMARK                            x       y       z     vdW  Elec       q    Type
REMARK                         _______ _______ _______ _____ _____    ______ ____
ROOT
ATOM      1  C   UNL     1       8.669   9.201  18.502  0.00  0.00    +0.000 C 
ENDROOT
BRANCH   1   3
ATOM      2  N   UNL     1      10.202  11.108  18.449  0.00  0.00    +0.000 N 
ATOM      3  C   UNL     1       8.940  10.649  18.121  0.00  0.00    +0.000 C 
ATOM      4  O   UNL     1       8.072  11.319  17.564  0.00  0.00    +0.000 OA
ATOM      5  H   UNL     1      10.932  10.449  18.721  0.00  0.00    +0.000 HD
BRANCH   2  10
ATOM      6  C   UNL     1      10.497  13.409  19.271  0.00  0.00    +0.000 A 
ATOM      7  S   UNL     1      11.056  14.944  18.719  0.00  0.00    +0.000 S 
ATOM      8  C   UNL     1      11.451  14.336  17.184  0.00  0.00    +0.000 A 
ATOM      9  C   UNL     1      11.140  13.003  17.075  0.00  0.00    +0.000 A 
ATOM     10  C   UNL     1      10.592  12.443  18.277  0.00  0.00    +0.000 A 
BRANCH   6  12
ATOM     11  N   UNL     1       9.328  14.294  21.176  0.00  0.00    +0.000 N 
ATOM     12  C   UNL     1      10.034  13.248  20.640  0.00  0.00    +0.000 C 
ATOM     13  O   UNL     1      10.259  12.254  21.327  0.00  0.00    +0.000 OA
ATOM     14  H   UNL     1       9.054  14.257  22.147  0.00  0.00    +0.000 HD
ATOM     15  H   UNL     1       9.180  15.148  20.654  0.00  0.00    +0.000 HD
ENDBRANCH   6  12
ENDBRANCH   2  10
ENDBRANCH   1   3
BRANCH   1  16
ATOM     16  C   UNL     1       7.518   8.683  17.640  0.00  0.00    +0.000 C 
BRANCH  16  17
ATOM     17  C   UNL     1       7.727   7.269  17.118  0.00  0.00    +0.000 C 
BRANCH  17  18
ATOM     18  C   UNL     1       6.373   6.690  16.679  0.00  0.00    +0.000 C 
BRANCH  18  19
ATOM     19  N   UNL     1       6.255   5.234  16.859  0.00  0.00    +0.000 NA
ATOM     20  C   UNL     1       6.425   4.817  18.269  0.00  0.00    +0.000 C 
ATOM     21  C   UNL     1       5.360   5.381  19.234  0.00  0.00    +0.000 C 
ATOM     22  N   UNL     1       4.003   5.040  18.772  0.00  0.00    +0.000 N 
ATOM     23  C   UNL     1       3.729   5.270  17.340  0.00  0.00    +0.000 C 
ATOM     24  C   UNL     1       4.898   4.777  16.446  0.00  0.00    +0.000 C 
BRANCH  22  25
ATOM     25  C   UNL     1       3.137   4.386  19.630  0.00  0.00    +0.000 A 
ATOM     26  C   UNL     1       3.598   3.377  20.496  0.00  0.00    +0.000 A 
ATOM     27  C   UNL     1       2.733   2.621  21.291  0.00  0.00    +0.000 A 
ATOM     28  C   UNL     1       1.371   2.881  21.269  0.00  0.00    +0.000 A 
ATOM     29  C   UNL     1       0.887   3.912  20.472  0.00  0.00    +0.000 A 
ATOM     30  C   UNL     1       1.762   4.655  19.668  0.00  0.00    +0.000 A 
ENDBRANCH  22  25
ENDBRANCH  18  19
ENDBRANCH  17  18
ENDBRANCH  16  17
ENDBRANCH   1  16
TORSDOF 8
ENDMDL
MODEL 6
REMARK VINA RESULT:      -7.3      1.653      2.200
REMARK  Name = 
REMARK  8 active torsions:
REMARK  status: ('A' for Active; 'I' for Inactive)
REMARK    1  A    between atoms: C_2  and  C_4
REMARK    2  A    between atoms: C_8  and  N_9
REMARK    3  A    between atoms: C_10  and  C_12
REMARK    4  A    between atoms: C_12  and  C_13
REMARK    5  A    between atoms: C_13  and  C_14
REMARK    6  A    between atoms: C_14  and  C_15
REMARK    7  A    between atoms: C_15  and  N_16
REMARK    8  A    between atoms: N_19  and  C_20
REMARK                            x       y       z     vdW  Elec       q    Type
REMARK                         _______ _______ _______ _____ _____    ______ ____
ROOT
ATOM      1  C   UNL     1       9.076   9.624  19.069  0.00  0.00    +0.000 C 
ENDROOT
BRANCH   1   3
ATOM      2  N   UNL     1       9.227  11.884  18.143  0.00  0.00    +0.000 N 
ATOM      3  C   UNL     1       9.800  10.960  18.996  0.00  0.00    +0.000 C 
ATOM      4  O   UNL     1      10.815  11.155  19.664  0.00  0.00    +0.000 OA
ATOM      5  H   UNL     1       8.286  11.732  17.781  0.00  0.00    +0.000 HD
BRANCH   2  10
ATOM      6  C   UNL     1       9.348  14.332  18.371  0.00  0.00    +0.000 A 
ATOM      7  S   UNL     1      10.299  15.661  17.821  0.00  0.00    +0.000 S 
ATOM      8  C   UNL     1      11.342  14.653  16.940  0.00  0.00    +0.000 A 
ATOM      9  C   UNL     1      10.965  13.335  17.032  0.00  0.00    +0.000 A 
ATOM     10  C   UNL     1       9.815  13.126  17.864  0.00  0.00    +0.000 A 
BRANCH   6  12
ATOM     11  N   UNL     1       8.450  14.249  20.600  0.00  0.00    +0.000 N 
ATOM     12  C   UNL     1       8.235  14.555  19.280  0.00  0.00    +0.000 C 
ATOM     13  O   UNL     1       7.134  14.972  18.926  0.00  0.00    +0.000 OA
ATOM     14  H   UNL     1       7.682  14.315  21.252  0.00  0.00    +0.000 HD
ATOM     15  H   UNL     1       9.326  13.848  20.907  0.00  0.00    +0.000 HD
ENDBRANCH   6  12
ENDBRANCH   2  10
ENDBRANCH   1   3
BRANCH   1  16
ATOM     16  C   UNL     1       8.005   9.596  17.979  0.00  0.00    +0.000 C 
BRANCH  16  17
ATOM     17  C   UNL     1       7.952   8.289  17.201  0.00  0.00    +0.000 C 
BRANCH  17  18
ATOM     18  C   UNL     1       7.788   7.123  18.189  0.00  0.00    +0.000 C 
BRANCH  18  19
ATOM     19  N   UNL     1       7.529   5.823  17.547  0.00  0.00    +0.000 NA
ATOM     20  C   UNL     1       7.202   4.760  18.522  0.00  0.00    +0.000 C 
ATOM     21  C   UNL     1       5.917   5.014  19.338  0.00  0.00    +0.000 C 
ATOM     22  N   UNL     1       4.767   5.243  18.443  0.00  0.00    +0.000 N 
ATOM     23  C   UNL     1       4.992   6.181  17.327  0.00  0.00    +0.000 C 
ATOM     24  C   UNL     1       6.358   5.931  16.633  0.00  0.00    +0.000 C 
BRANCH  22  25
ATOM     25  C   UNL     1       3.630   4.469  18.586  0.00  0.00    +0.000 A 
ATOM     26  C   UNL     1       2.543   4.606  17.703  0.00  0.00    +0.000 A 
ATOM     27  C   UNL     1       1.338   3.923  17.887  0.00  0.00    +0.000 A 
ATOM     28  C   UNL     1       1.199   3.045  18.952  0.00  0.00    +0.000 A 
ATOM     29  C   UNL     1       2.273   2.838  19.809  0.00  0.00    +0.000 A 
ATOM     30  C   UNL     1       3.473   3.539  19.623  0.00  0.00    +0.000 A 
ENDBRANCH  22  25
ENDBRANCH  18  19
ENDBRANCH  17  18
ENDBRANCH  16  17
ENDBRANCH   1  16
TORSDOF 8
ENDMDL
MODEL 7
REMARK VINA RESULT:      -7.3      1.612      2.217
REMARK  Name = 
REMARK  8 active torsions:
REMARK  status: ('A' for Active; 'I' for Inactive)
REMARK    1  A    between atoms: C_2  and  C_4
REMARK    2  A    between atoms: C_8  and  N_9
REMARK    3  A    between atoms: C_10  and  C_12
REMARK    4  A    between atoms: C_12  and  C_13
REMARK    5  A    between atoms: C_13  and  C_14
REMARK    6  A    between atoms: C_14  and  C_15
REMARK    7  A    between atoms: C_15  and  N_16
REMARK    8  A    between atoms: N_19  and  C_20
REMARK                            x       y       z     vdW  Elec       q    Type
REMARK                         _______ _______ _______ _____ _____    ______ ____
ROOT
ATOM      1  C   UNL     1       8.962   9.942  19.288  0.00  0.00    +0.000 C 
ENDROOT
BRANCH   1   3
ATOM      2  N   UNL     1       9.626  11.967  18.085  0.00  0.00    +0.000 N 
ATOM      3  C   UNL     1       9.864  11.162  19.184  0.00  0.00    +0.000 C 
ATOM      4  O   UNL     1      10.724  11.374  20.037  0.00  0.00    +0.000 OA
ATOM      5  H   UNL     1       8.776  11.845  17.536  0.00  0.00    +0.000 HD
BRANCH   2  10
ATOM      6  C   UNL     1      10.017  14.390  17.907  0.00  0.00    +0.000 A 
ATOM      7  S   UNL     1      11.247  15.494  17.415  0.00  0.00    +0.000 S 
ATOM      8  C   UNL     1      12.332  14.242  17.044  0.00  0.00    +0.000 A 
ATOM      9  C   UNL     1      11.769  13.008  17.257  0.00  0.00    +0.000 A 
ATOM     10  C   UNL     1      10.429  13.070  17.765  0.00  0.00    +0.000 A 
BRANCH   6  12
ATOM     11  N   UNL     1       8.591  14.859  19.785  0.00  0.00    +0.000 N 
ATOM     12  C   UNL     1       8.751  14.887  18.423  0.00  0.00    +0.000 C 
ATOM     13  O   UNL     1       7.836  15.299  17.714  0.00  0.00    +0.000 OA
ATOM     14  H   UNL     1       7.701  15.122  20.181  0.00  0.00    +0.000 HD
ATOM     15  H   UNL     1       9.304  14.470  20.388  0.00  0.00    +0.000 HD
ENDBRANCH   6  12
ENDBRANCH   2  10
ENDBRANCH   1   3
BRANCH   1  16
ATOM     16  C   UNL     1       8.276   9.732  17.938  0.00  0.00    +0.000 C 
BRANCH  16  17
ATOM     17  C   UNL     1       8.289   8.288  17.458  0.00  0.00    +0.000 C 
BRANCH  17  18
ATOM     18  C   UNL     1       6.904   7.666  17.699  0.00  0.00    +0.000 C 
BRANCH  18  19
ATOM     19  N   UNL     1       6.607   6.510  16.838  0.00  0.00    +0.000 NA
ATOM     20  C   UNL     1       6.708   5.221  17.557  0.00  0.00    +0.000 C 
ATOM     21  C   UNL     1       5.710   5.059  18.724  0.00  0.00    +0.000 C 
ATOM     22  N   UNL     1       4.326   5.265  18.259  0.00  0.00    +0.000 N 
ATOM     23  C   UNL     1       4.099   6.446  17.404  0.00  0.00    +0.000 C 
ATOM     24  C   UNL     1       5.209   6.599  16.330  0.00  0.00    +0.000 C 
BRANCH  22  25
ATOM     25  C   UNL     1       3.377   4.287  18.497  0.00  0.00    +0.000 A 
ATOM     26  C   UNL     1       3.708   3.110  19.194  0.00  0.00    +0.000 A 
ATOM     27  C   UNL     1       2.805   2.055  19.350  0.00  0.00    +0.000 A 
ATOM     28  C   UNL     1       1.520   2.165  18.840  0.00  0.00    +0.000 A 
ATOM     29  C   UNL     1       1.140   3.339  18.200  0.00  0.00    +0.000 A 
ATOM     30  C   UNL     1       2.058   4.385  18.036  0.00  0.00    +0.000 A 
ENDBRANCH  22  25
ENDBRANCH  18  19
ENDBRANCH  17  18
ENDBRANCH  16  17
ENDBRANCH   1  16
TORSDOF 8
ENDMDL
MODEL 8
REMARK VINA RESULT:      -7.3      3.899     10.787
REMARK  Name = 
REMARK  8 active torsions:
REMARK  status: ('A' for Active; 'I' for Inactive)
REMARK    1  A    between atoms: C_2  and  C_4
REMARK    2  A    between atoms: C_8  and  N_9
REMARK    3  A    between atoms: C_10  and  C_12
REMARK    4  A    between atoms: C_12  and  C_13
REMARK    5  A    between atoms: C_13  and  C_14
REMARK    6  A    between atoms: C_14  and  C_15
REMARK    7  A    between atoms: C_15  and  N_16
REMARK    8  A    between atoms: N_19  and  C_20
REMARK                            x       y       z     vdW  Elec       q    Type
REMARK                         _______ _______ _______ _____ _____    ______ ____
ROOT
ATOM      1  C   UNL     1       7.634   6.751  18.132  0.00  0.00    +0.000 C 
ENDROOT
BRANCH   1   3
ATOM      2  N   UNL     1       5.545   5.514  18.438  0.00  0.00    +0.000 N 
ATOM      3  C   UNL     1       6.278   6.324  17.592  0.00  0.00    +0.000 C 
ATOM      4  O   UNL     1       5.906   6.696  16.479  0.00  0.00    +0.000 OA
ATOM      5  H   UNL     1       5.821   5.412  19.415  0.00  0.00    +0.000 HD
BRANCH   2  10
ATOM      6  C   UNL     1       3.088   5.522  18.300  0.00  0.00    +0.000 A 
ATOM      7  S   UNL     1       1.798   4.535  17.721  0.00  0.00    +0.000 S 
ATOM      8  C   UNL     1       2.862   3.349  17.136  0.00  0.00    +0.000 A 
ATOM      9  C   UNL     1       4.171   3.673  17.398  0.00  0.00    +0.000 A 
ATOM     10  C   UNL     1       4.325   4.933  18.066  0.00  0.00    +0.000 A 
BRANCH   6  12
ATOM     11  N   UNL     1       2.519   6.801  20.254  0.00  0.00    +0.000 N 
ATOM     12  C   UNL     1       2.806   6.810  18.912  0.00  0.00    +0.000 C 
ATOM     13  O   UNL     1       2.793   7.873  18.297  0.00  0.00    +0.000 OA
ATOM     14  H   UNL     1       2.244   7.662  20.703  0.00  0.00    +0.000 HD
ATOM     15  H   UNL     1       2.465   5.935  20.772  0.00  0.00    +0.000 HD
ENDBRANCH   6  12
ENDBRANCH   2  10
ENDBRANCH   1   3
BRANCH   1  16
ATOM     16  C   UNL     1       7.867   8.212  17.750  0.00  0.00    +0.000 C 
BRANCH  16  17
ATOM     17  C   UNL     1       8.670   8.998  18.778  0.00  0.00    +0.000 C 
BRANCH  17  18
ATOM     18  C   UNL     1       8.981  10.392  18.212  0.00  0.00    +0.000 C 
BRANCH  18  19
ATOM     19  N   UNL     1      10.029  11.119  18.948  0.00  0.00    +0.000 NA
ATOM     20  C   UNL     1      11.014  11.764  18.053  0.00  0.00    +0.000 C 
ATOM     21  C   UNL     1      10.422  12.844  17.122  0.00  0.00    +0.000 C 
ATOM     22  N   UNL     1       9.708  13.871  17.903  0.00  0.00    +0.000 N 
ATOM     23  C   UNL     1       8.787  13.372  18.942  0.00  0.00    +0.000 C 
ATOM     24  C   UNL     1       9.418  12.211  19.758  0.00  0.00    +0.000 C 
BRANCH  22  25
ATOM     25  C   UNL     1      10.049  15.203  17.746  0.00  0.00    +0.000 A 
ATOM     26  C   UNL     1      11.347  15.577  17.350  0.00  0.00    +0.000 A 
ATOM     27  C   UNL     1      11.755  16.912  17.293  0.00  0.00    +0.000 A 
ATOM     28  C   UNL     1      10.855  17.922  17.598  0.00  0.00    +0.000 A 
ATOM     29  C   UNL     1       9.547  17.591  17.933  0.00  0.00    +0.000 A 
ATOM     30  C   UNL     1       9.152  16.248  18.001  0.00  0.00    +0.000 A 
ENDBRANCH  22  25
ENDBRANCH  18  19
ENDBRANCH  17  18
ENDBRANCH  16  17
ENDBRANCH   1  16
TORSDOF 8
ENDMDL
MODEL 9
REMARK VINA RESULT:      -7.2      1.718      2.558
REMARK  Name = 
REMARK  8 active torsions:
REMARK  status: ('A' for Active; 'I' for Inactive)
REMARK    1  A    between atoms: C_2  and  C_4
REMARK    2  A    between atoms: C_8  and  N_9
REMARK    3  A    between atoms: C_10  and  C_12
REMARK    4  A    between atoms: C_12  and  C_13
REMARK    5  A    between atoms: C_13  and  C_14
REMARK    6  A    between atoms: C_14  and  C_15
REMARK    7  A    between atoms: C_15  and  N_16
REMARK    8  A    between atoms: N_19  and  C_20
REMARK                            x       y       z     vdW  Elec       q    Type
REMARK                         _______ _______ _______ _____ _____    ______ ____
ROOT
ATOM      1  C   UNL     1       7.889   9.869  18.067  0.00  0.00    +0.000 C 
ENDROOT
BRANCH   1   3
ATOM      2  N   UNL     1       9.076  11.976  17.692  0.00  0.00    +0.000 N 
ATOM      3  C   UNL     1       9.052  10.790  18.403  0.00  0.00    +0.000 C 
ATOM      4  O   UNL     1       9.883  10.462  19.248  0.00  0.00    +0.000 OA
ATOM      5  H   UNL     1       8.256  12.271  17.162  0.00  0.00    +0.000 HD
BRANCH   2  10
ATOM      6  C   UNL     1       9.969  14.211  18.206  0.00  0.00    +0.000 A 
ATOM      7  S   UNL     1      11.466  15.066  18.196  0.00  0.00    +0.000 S 
ATOM      8  C   UNL     1      12.331  13.704  17.669  0.00  0.00    +0.000 A 
ATOM      9  C   UNL     1      11.502  12.626  17.473  0.00  0.00    +0.000 A 
ATOM     10  C   UNL     1      10.129  12.896  17.786  0.00  0.00    +0.000 A 
BRANCH   6  12
ATOM     11  N   UNL     1       8.316  14.569  19.915  0.00  0.00    +0.000 N 
ATOM     12  C   UNL     1       8.752  14.872  18.650  0.00  0.00    +0.000 C 
ATOM     13  O   UNL     1       8.103  15.650  17.955  0.00  0.00    +0.000 OA
ATOM     14  H   UNL     1       7.436  14.945  20.235  0.00  0.00    +0.000 HD
ATOM     15  H   UNL     1       8.798  13.887  20.485  0.00  0.00    +0.000 HD
ENDBRANCH   6  12
ENDBRANCH   2  10
ENDBRANCH   1   3
BRANCH   1  16
ATOM     16  C   UNL     1       8.454   8.551  17.538  0.00  0.00    +0.000 C 
BRANCH  16  17
ATOM     17  C   UNL     1       7.905   7.319  18.242  0.00  0.00    +0.000 C 
BRANCH  17  18
ATOM     18  C   UNL     1       7.122   6.469  17.228  0.00  0.00    +0.000 C 
BRANCH  18  19
ATOM     19  N   UNL     1       6.951   5.063  17.629  0.00  0.00    +0.000 NA
ATOM     20  C   UNL     1       6.433   4.921  19.008  0.00  0.00    +0.000 C 
ATOM     21  C   UNL     1       5.030   5.526  19.229  0.00  0.00    +0.000 C 
ATOM     22  N   UNL     1       4.062   4.963  18.270  0.00  0.00    +0.000 N 
ATOM     23  C   UNL     1       4.501   4.907  16.863  0.00  0.00    +0.000 C 
ATOM     24  C   UNL     1       5.961   4.396  16.737  0.00  0.00    +0.000 C 
BRANCH  22  25
ATOM     25  C   UNL     1       2.899   4.380  18.742  0.00  0.00    +0.000 A 
ATOM     26  C   UNL     1       2.347   4.761  19.979  0.00  0.00    +0.000 A 
ATOM     27  C   UNL     1       1.241   4.113  20.536  0.00  0.00    +0.000 A 
ATOM     28  C   UNL     1       0.628   3.079  19.846  0.00  0.00    +0.000 A 
ATOM     29  C   UNL     1       1.109   2.717  18.593  0.00  0.00    +0.000 A 
ATOM     30  C   UNL     1       2.228   3.364  18.050  0.00  0.00    +0.000 A 
ENDBRANCH  22  25
ENDBRANCH  18  19
ENDBRANCH  17  18
ENDBRANCH  16  17
ENDBRANCH   1  16
TORSDOF 8
ENDMDL
