MODEL 1
REMARK VINA RESULT:      -8.7      0.000      0.000
REMARK  Name = 
REMARK  6 active torsions:
REMARK  status: ('A' for Active; 'I' for Inactive)
REMARK    1  A    between atoms: C_1  and  C_2
REMARK    2  A    between atoms: C_4  and  C_5
REMARK    3  A    between atoms: C_13  and  C_14
REMARK    4  A    between atoms: C_14  and  N_15
REMARK    5  A    between atoms: C_18  and  C_19
REMARK    6  A    between atoms: N_21  and  C_22
REMARK                            x       y       z     vdW  Elec       q    Type
REMARK                         _______ _______ _______ _____ _____    ______ ____
ROOT
ATOM      1  N   UNL     1       4.325   4.106  19.019  0.00  0.00    +0.000 NA
ATOM      2  C   UNL     1       3.931   4.470  20.388  0.00  0.00    +0.000 C 
ATOM      3  C   UNL     1       2.421   4.644  20.609  0.00  0.00    +0.000 C 
ATOM      4  C   UNL     1       1.713   5.512  19.574  0.00  0.00    +0.000 C 
ATOM      5  C   UNL     1       2.148   5.077  18.168  0.00  0.00    +0.000 C 
ATOM      6  C   UNL     1       3.665   4.938  17.998  0.00  0.00    +0.000 C 
ENDROOT
BRANCH   4   7
ATOM      7  C   UNL     1       1.826   7.032  19.769  0.00  0.00    +0.000 C 
ATOM      8  O   UNL     1       2.487   7.729  18.998  0.00  0.00    +0.000 OA
ATOM      9  N   UNL     1       1.062   7.607  20.788  0.00  0.00    +0.000 N 
ATOM     10  H   UNL     1       0.783   7.021  21.558  0.00  0.00    +0.000 HD
BRANCH   9  11
ATOM     11  C   UNL     1       1.100   9.074  20.990  0.00  0.00    +0.000 C 
ATOM     12  C   UNL     1       0.165   9.859  20.043  0.00  0.00    +0.000 C 
ATOM     13  C   UNL     1       0.359  11.389  20.060  0.00  0.00    +0.000 C 
ATOM     14  C   UNL     1       0.033  12.176  21.337  0.00  0.00    +0.000 C 
ATOM     15  C   UNL     1      -1.260  11.785  22.051  0.00  0.00    +0.000 C 
ATOM     16  C   UNL     1      -1.098  10.821  23.231  0.00  0.00    +0.000 C 
ATOM     17  C   UNL     1      -0.577   9.418  22.918  0.00  0.00    +0.000 C 
ATOM     18  C   UNL     1       0.890   9.383  22.480  0.00  0.00    +0.000 C 
ENDBRANCH   9  11
ENDBRANCH   4   7
BRANCH   1  19
ATOM     19  C   UNL     1       5.802   4.244  18.853  0.00  0.00    +0.000 C 
BRANCH  19  25
ATOM     20  C   UNL     1       7.597   6.957  17.804  0.00  0.00    +0.000 C 
ATOM     21  C   UNL     1       6.971   5.813  17.124  0.00  0.00    +0.000 A 
ATOM     22  O   UNL     1       7.161   5.761  15.774  0.00  0.00    +0.000 OA
ATOM     23  C   UNL     1       6.531   4.620  15.381  0.00  0.00    +0.000 A 
ATOM     24  N   UNL     1       5.913   3.982  16.351  0.00  0.00    +0.000 NA
ATOM     25  C   UNL     1       6.214   4.717  17.491  0.00  0.00    +0.000 A 
BRANCH  23  26
ATOM     26  C   UNL     1       6.606   4.332  13.955  0.00  0.00    +0.000 A 
ATOM     27  C   UNL     1       5.707   3.449  13.366  0.00  0.00    +0.000 A 
ATOM     28  C   UNL     1       5.746   3.194  11.984  0.00  0.00    +0.000 A 
ATOM     29  C   UNL     1       6.702   3.823  11.188  0.00  0.00    +0.000 A 
ATOM     30  C   UNL     1       7.620   4.699  11.768  0.00  0.00    +0.000 A 
ATOM     31  C   UNL     1       7.565   4.946  13.137  0.00  0.00    +0.000 A 
ATOM     32  F   UNL     1       8.478   5.789  13.652  0.00  0.00    +0.000 F 
ENDBRANCH  23  26
ENDBRANCH  19  25
ENDBRANCH   1  19
TORSDOF 5
ENDMDL
MODEL 2
REMARK VINA RESULT:      -8.7      4.349      7.308
REMARK  Name = 
REMARK  6 active torsions:
REMARK  status: ('A' for Active; 'I' for Inactive)
REMARK    1  A    between atoms: C_1  and  C_2
REMARK    2  A    between atoms: C_4  and  C_5
REMARK    3  A    between atoms: C_13  and  C_14
REMARK    4  A    between atoms: C_14  and  N_15
REMARK    5  A    between atoms: C_18  and  C_19
REMARK    6  A    between atoms: N_21  and  C_22
REMARK                            x       y       z     vdW  Elec       q    Type
REMARK                         _______ _______ _______ _____ _____    ______ ____
ROOT
ATOM      1  N   UNL     1      -1.144  10.343  17.830  0.00  0.00    +0.000 NA
ATOM      2  C   UNL     1      -2.286   9.626  18.416  0.00  0.00    +0.000 C 
ATOM      3  C   UNL     1      -3.525   9.520  17.514  0.00  0.00    +0.000 C 
ATOM      4  C   UNL     1      -3.961  10.828  16.861  0.00  0.00    +0.000 C 
ATOM      5  C   UNL     1      -2.735  11.523  16.254  0.00  0.00    +0.000 C 
ATOM      6  C   UNL     1      -1.535  11.617  17.203  0.00  0.00    +0.000 C 
ENDROOT
BRANCH   4   7
ATOM      7  C   UNL     1      -4.790  11.782  17.737  0.00  0.00    +0.000 C 
ATOM      8  O   UNL     1      -5.734  12.420  17.271  0.00  0.00    +0.000 OA
ATOM      9  N   UNL     1      -4.501  11.812  19.104  0.00  0.00    +0.000 N 
ATOM     10  H   UNL     1      -3.581  11.531  19.399  0.00  0.00    +0.000 HD
BRANCH   9  11
ATOM     11  C   UNL     1      -5.300  12.680  19.999  0.00  0.00    +0.000 C 
ATOM     12  C   UNL     1      -6.443  11.940  20.730  0.00  0.00    +0.000 C 
ATOM     13  C   UNL     1      -7.436  12.855  21.476  0.00  0.00    +0.000 C 
ATOM     14  C   UNL     1      -6.948  13.675  22.678  0.00  0.00    +0.000 C 
ATOM     15  C   UNL     1      -6.041  12.941  23.664  0.00  0.00    +0.000 C 
ATOM     16  C   UNL     1      -4.538  13.170  23.476  0.00  0.00    +0.000 C 
ATOM     17  C   UNL     1      -3.914  12.667  22.174  0.00  0.00    +0.000 C 
ATOM     18  C   UNL     1      -4.352  13.448  20.932  0.00  0.00    +0.000 C 
ENDBRANCH   9  11
ENDBRANCH   4   7
BRANCH   1  19
ATOM     19  C   UNL     1      -0.122  10.630  18.878  0.00  0.00    +0.000 C 
BRANCH  19  25
ATOM     20  C   UNL     1       0.910   8.986  21.692  0.00  0.00    +0.000 C 
ATOM     21  C   UNL     1       1.212   8.859  20.257  0.00  0.00    +0.000 A 
ATOM     22  O   UNL     1       2.057   7.840  19.927  0.00  0.00    +0.000 OA
ATOM     23  C   UNL     1       2.155   7.901  18.570  0.00  0.00    +0.000 A 
ATOM     24  N   UNL     1       1.497   8.900  18.024  0.00  0.00    +0.000 NA
ATOM     25  C   UNL     1       0.852   9.510  19.094  0.00  0.00    +0.000 A 
BRANCH  23  26
ATOM     26  C   UNL     1       3.009   6.886  17.966  0.00  0.00    +0.000 A 
ATOM     27  C   UNL     1       4.165   7.253  17.285  0.00  0.00    +0.000 A 
ATOM     28  C   UNL     1       5.016   6.279  16.733  0.00  0.00    +0.000 A 
ATOM     29  C   UNL     1       4.698   4.928  16.855  0.00  0.00    +0.000 A 
ATOM     30  C   UNL     1       3.533   4.547  17.521  0.00  0.00    +0.000 A 
ATOM     31  C   UNL     1       2.703   5.522  18.068  0.00  0.00    +0.000 A 
ATOM     32  F   UNL     1       1.586   5.106  18.691  0.00  0.00    +0.000 F 
ENDBRANCH  23  26
ENDBRANCH  19  25
ENDBRANCH   1  19
TORSDOF 5
ENDMDL
MODEL 3
REMARK VINA RESULT:      -8.6      3.722      6.217
REMARK  Name = 
REMARK  6 active torsions:
REMARK  status: ('A' for Active; 'I' for Inactive)
REMARK    1  A    between atoms: C_1  and  C_2
REMARK    2  A    between atoms: C_4  and  C_5
REMARK    3  A    between atoms: C_13  and  C_14
REMARK    4  A    between atoms: C_14  and  N_15
REMARK    5  A    between atoms: C_18  and  C_19
REMARK    6  A    between atoms: N_21  and  C_22
REMARK                            x       y       z     vdW  Elec       q    Type
REMARK                         _______ _______ _______ _____ _____    ______ ____
ROOT
ATOM      1  N   UNL     1       1.165  10.126  19.652  0.00  0.00    +0.000 NA
ATOM      2  C   UNL     1       1.416  11.535  19.316  0.00  0.00    +0.000 C 
ATOM      3  C   UNL     1       1.087  12.541  20.430  0.00  0.00    +0.000 C 
ATOM      4  C   UNL     1      -0.278  12.356  21.083  0.00  0.00    +0.000 C 
ATOM      5  C   UNL     1      -0.478  10.874  21.426  0.00  0.00    +0.000 C 
ATOM      6  C   UNL     1      -0.154   9.916  20.274  0.00  0.00    +0.000 C 
ENDROOT
BRANCH   4   7
ATOM      7  C   UNL     1      -1.481  12.940  20.324  0.00  0.00    +0.000 C 
ATOM      8  O   UNL     1      -1.428  14.054  19.802  0.00  0.00    +0.000 OA
ATOM      9  N   UNL     1      -2.595  12.114  20.154  0.00  0.00    +0.000 N 
ATOM     10  H   UNL     1      -2.732  11.363  20.811  0.00  0.00    +0.000 HD
BRANCH   9  11
ATOM     11  C   UNL     1      -3.763  12.611  19.391  0.00  0.00    +0.000 C 
ATOM     12  C   UNL     1      -4.409  11.547  18.476  0.00  0.00    +0.000 C 
ATOM     13  C   UNL     1      -5.467  12.091  17.494  0.00  0.00    +0.000 C 
ATOM     14  C   UNL     1      -6.773  12.681  18.044  0.00  0.00    +0.000 C 
ATOM     15  C   UNL     1      -7.436  11.897  19.175  0.00  0.00    +0.000 C 
ATOM     16  C   UNL     1      -7.143  12.406  20.591  0.00  0.00    +0.000 C 
ATOM     17  C   UNL     1      -5.695  12.324  21.074  0.00  0.00    +0.000 C 
ATOM     18  C   UNL     1      -4.745  13.288  20.359  0.00  0.00    +0.000 C 
ENDBRANCH   9  11
ENDBRANCH   4   7
BRANCH   1  19
ATOM     19  C   UNL     1       1.244   9.280  18.424  0.00  0.00    +0.000 C 
BRANCH  19  25
ATOM     20  C   UNL     1       1.611   6.771  20.717  0.00  0.00    +0.000 C 
ATOM     21  C   UNL     1       2.305   7.136  19.471  0.00  0.00    +0.000 A 
ATOM     22  O   UNL     1       3.298   6.285  19.085  0.00  0.00    +0.000 OA
ATOM     23  C   UNL     1       3.758   6.802  17.913  0.00  0.00    +0.000 A 
ATOM     24  N   UNL     1       3.186   7.931  17.558  0.00  0.00    +0.000 NA
ATOM     25  C   UNL     1       2.220   8.147  18.534  0.00  0.00    +0.000 A 
BRANCH  23  26
ATOM     26  C   UNL     1       4.834   6.046  17.284  0.00  0.00    +0.000 A 
ATOM     27  C   UNL     1       6.113   6.587  17.191  0.00  0.00    +0.000 A 
ATOM     28  C   UNL     1       7.166   5.850  16.622  0.00  0.00    +0.000 A 
ATOM     29  C   UNL     1       6.933   4.566  16.132  0.00  0.00    +0.000 A 
ATOM     30  C   UNL     1       5.652   4.019  16.205  0.00  0.00    +0.000 A 
ATOM     31  C   UNL     1       4.620   4.758  16.776  0.00  0.00    +0.000 A 
ATOM     32  F   UNL     1       3.400   4.192  16.813  0.00  0.00    +0.000 F 
ENDBRANCH  23  26
ENDBRANCH  19  25
ENDBRANCH   1  19
TORSDOF 5
ENDMDL
MODEL 4
REMARK VINA RESULT:      -8.5      4.991     12.313
REMARK  Name = 
REMARK  6 active torsions:
REMARK  status: ('A' for Active; 'I' for Inactive)
REMARK    1  A    between atoms: C_1  and  C_2
REMARK    2  A    between atoms: C_4  and  C_5
REMARK    3  A    between atoms: C_13  and  C_14
REMARK    4  A    between atoms: C_14  and  N_15
REMARK    5  A    between atoms: C_18  and  C_19
REMARK    6  A    between atoms: N_21  and  C_22
REMARK                            x       y       z     vdW  Elec       q    Type
REMARK                         _______ _______ _______ _____ _____    ______ ____
ROOT
ATOM      1  N   UNL     1      -0.137  11.882  20.376  0.00  0.00    +0.000 NA
ATOM      2  C   UNL     1       1.295  11.953  20.052  0.00  0.00    +0.000 C 
ATOM      3  C   UNL     1       1.668  11.495  18.634  0.00  0.00    +0.000 C 
ATOM      4  C   UNL     1       1.064  10.162  18.206  0.00  0.00    +0.000 C 
ATOM      5  C   UNL     1      -0.431  10.151  18.553  0.00  0.00    +0.000 C 
ATOM      6  C   UNL     1      -0.745  10.598  19.985  0.00  0.00    +0.000 C 
ENDROOT
BRANCH   4   7
ATOM      7  C   UNL     1       1.781   8.898  18.707  0.00  0.00    +0.000 C 
ATOM      8  O   UNL     1       1.656   8.509  19.869  0.00  0.00    +0.000 OA
ATOM      9  N   UNL     1       2.490   8.147  17.766  0.00  0.00    +0.000 N 
ATOM     10  H   UNL     1       2.817   8.615  16.936  0.00  0.00    +0.000 HD
BRANCH   9  11
ATOM     11  C   UNL     1       3.162   6.896  18.186  0.00  0.00    +0.000 C 
ATOM     12  C   UNL     1       2.381   5.614  17.820  0.00  0.00    +0.000 C 
ATOM     13  C   UNL     1       2.929   4.317  18.451  0.00  0.00    +0.000 C 
ATOM     14  C   UNL     1       4.319   3.810  18.046  0.00  0.00    +0.000 C 
ATOM     15  C   UNL     1       4.642   3.864  16.554  0.00  0.00    +0.000 C 
ATOM     16  C   UNL     1       5.452   5.081  16.097  0.00  0.00    +0.000 C 
ATOM     17  C   UNL     1       4.790   6.452  16.237  0.00  0.00    +0.000 C 
ATOM     18  C   UNL     1       4.614   6.912  17.686  0.00  0.00    +0.000 C 
ENDBRANCH   9  11
ENDBRANCH   4   7
BRANCH   1  19
ATOM     19  C   UNL     1      -0.345  12.072  21.842  0.00  0.00    +0.000 C 
BRANCH  19  25
ATOM     20  C   UNL     1      -0.895  15.432  22.149  0.00  0.00    +0.000 C 
ATOM     21  C   UNL     1      -1.745  14.236  22.260  0.00  0.00    +0.000 A 
ATOM     22  O   UNL     1      -3.067  14.479  22.497  0.00  0.00    +0.000 OA
ATOM     23  C   UNL     1      -3.644  13.246  22.524  0.00  0.00    +0.000 A 
ATOM     24  N   UNL     1      -2.798  12.250  22.386  0.00  0.00    +0.000 NA
ATOM     25  C   UNL     1      -1.570  12.868  22.179  0.00  0.00    +0.000 A 
BRANCH  23  26
ATOM     26  C   UNL     1      -5.083  13.243  22.753  0.00  0.00    +0.000 A 
ATOM     27  C   UNL     1      -5.955  13.682  21.762  0.00  0.00    +0.000 A 
ATOM     28  C   UNL     1      -7.347  13.647  21.959  0.00  0.00    +0.000 A 
ATOM     29  C   UNL     1      -7.867  13.177  23.164  0.00  0.00    +0.000 A 
ATOM     30  C   UNL     1      -7.003  12.749  24.172  0.00  0.00    +0.000 A 
ATOM     31  C   UNL     1      -5.628  12.785  23.961  0.00  0.00    +0.000 A 
ATOM     32  F   UNL     1      -4.835  12.372  24.966  0.00  0.00    +0.000 F 
ENDBRANCH  23  26
ENDBRANCH  19  25
ENDBRANCH   1  19
TORSDOF 5
ENDMDL
MODEL 5
REMARK VINA RESULT:      -8.4      8.089     10.582
REMARK  Name = 
REMARK  6 active torsions:
REMARK  status: ('A' for Active; 'I' for Inactive)
REMARK    1  A    between atoms: C_1  and  C_2
REMARK    2  A    between atoms: C_4  and  C_5
REMARK    3  A    between atoms: C_13  and  C_14
REMARK    4  A    between atoms: C_14  and  N_15
REMARK    5  A    between atoms: C_18  and  C_19
REMARK    6  A    between atoms: N_21  and  C_22
REMARK                            x       y       z     vdW  Elec       q    Type
REMARK                         _______ _______ _______ _____ _____    ______ ____
ROOT
ATOM      1  N   UNL     1      -6.368  11.903  17.658  0.00  0.00    +0.000 NA
ATOM      2  C   UNL     1      -6.056  10.771  18.541  0.00  0.00    +0.000 C 
ATOM      3  C   UNL     1      -7.041  10.554  19.700  0.00  0.00    +0.000 C 
ATOM      4  C   UNL     1      -7.383  11.808  20.498  0.00  0.00    +0.000 C 
ATOM      5  C   UNL     1      -7.714  12.950  19.528  0.00  0.00    +0.000 C 
ATOM      6  C   UNL     1      -6.690  13.133  18.403  0.00  0.00    +0.000 C 
ENDROOT
BRANCH   4   7
ATOM      7  C   UNL     1      -6.360  12.236  21.564  0.00  0.00    +0.000 C 
ATOM      8  O   UNL     1      -6.506  11.931  22.748  0.00  0.00    +0.000 OA
ATOM      9  N   UNL     1      -5.206  12.886  21.121  0.00  0.00    +0.000 N 
ATOM     10  H   UNL     1      -5.245  13.371  20.239  0.00  0.00    +0.000 HD
BRANCH   9  11
ATOM     11  C   UNL     1      -4.168  13.280  22.102  0.00  0.00    +0.000 C 
ATOM     12  C   UNL     1      -2.881  12.428  22.023  0.00  0.00    +0.000 C 
ATOM     13  C   UNL     1      -1.885  12.650  23.180  0.00  0.00    +0.000 C 
ATOM     14  C   UNL     1      -1.197  14.014  23.332  0.00  0.00    +0.000 C 
ATOM     15  C   UNL     1      -0.679  14.649  22.042  0.00  0.00    +0.000 C 
ATOM     16  C   UNL     1      -1.601  15.694  21.405  0.00  0.00    +0.000 C 
ATOM     17  C   UNL     1      -2.956  15.208  20.892  0.00  0.00    +0.000 C 
ATOM     18  C   UNL     1      -3.928  14.793  22.001  0.00  0.00    +0.000 C 
ENDBRANCH   9  11
ENDBRANCH   4   7
BRANCH   1  19
ATOM     19  C   UNL     1      -5.212  12.190  16.758  0.00  0.00    +0.000 C 
BRANCH  19  25
ATOM     20  C   UNL     1      -3.280   9.808  15.248  0.00  0.00    +0.000 C 
ATOM     21  C   UNL     1      -3.181  10.568  16.504  0.00  0.00    +0.000 A 
ATOM     22  O   UNL     1      -2.060  10.331  17.244  0.00  0.00    +0.000 OA
ATOM     23  C   UNL     1      -2.176  11.157  18.320  0.00  0.00    +0.000 A 
ATOM     24  N   UNL     1      -3.294  11.848  18.353  0.00  0.00    +0.000 NA
ATOM     25  C   UNL     1      -3.942  11.508  17.171  0.00  0.00    +0.000 A 
BRANCH  23  26
ATOM     26  C   UNL     1      -1.071  11.095  19.268  0.00  0.00    +0.000 A 
ATOM     27  C   UNL     1      -0.845   9.941  20.011  0.00  0.00    +0.000 A 
ATOM     28  C   UNL     1       0.241   9.858  20.900  0.00  0.00    +0.000 A 
ATOM     29  C   UNL     1       1.100  10.945  21.053  0.00  0.00    +0.000 A 
ATOM     30  C   UNL     1       0.875  12.114  20.326  0.00  0.00    +0.000 A 
ATOM     31  C   UNL     1      -0.201  12.180  19.445  0.00  0.00    +0.000 A 
ATOM     32  F   UNL     1      -0.383  13.332  18.775  0.00  0.00    +0.000 F 
ENDBRANCH  23  26
ENDBRANCH  19  25
ENDBRANCH   1  19
TORSDOF 5
ENDMDL
MODEL 6
REMARK VINA RESULT:      -8.4      4.070      6.984
REMARK  Name = 
REMARK  6 active torsions:
REMARK  status: ('A' for Active; 'I' for Inactive)
REMARK    1  A    between atoms: C_1  and  C_2
REMARK    2  A    between atoms: C_4  and  C_5
REMARK    3  A    between atoms: C_13  and  C_14
REMARK    4  A    between atoms: C_14  and  N_15
REMARK    5  A    between atoms: C_18  and  C_19
REMARK    6  A    between atoms: N_21  and  C_22
REMARK                            x       y       z     vdW  Elec       q    Type
REMARK                         _______ _______ _______ _____ _____    ______ ____
ROOT
ATOM      1  N   UNL     1       0.327   9.320  21.455  0.00  0.00    +0.000 NA
ATOM      2  C   UNL     1       0.100   9.754  22.841  0.00  0.00    +0.000 C 
ATOM      3  C   UNL     1      -1.183  10.568  23.070  0.00  0.00    +0.000 C 
ATOM      4  C   UNL     1      -1.408  11.708  22.083  0.00  0.00    +0.000 C 
ATOM      5  C   UNL     1      -1.174  11.195  20.656  0.00  0.00    +0.000 C 
ATOM      6  C   UNL     1       0.129  10.406  20.480  0.00  0.00    +0.000 C 
ENDROOT
BRANCH   4   7
ATOM      7  C   UNL     1      -0.639  13.010  22.360  0.00  0.00    +0.000 C 
ATOM      8  O   UNL     1      -0.472  13.422  23.509  0.00  0.00    +0.000 OA
ATOM      9  N   UNL     1      -0.042  13.648  21.270  0.00  0.00    +0.000 N 
ATOM     10  H   UNL     1      -0.424  13.475  20.354  0.00  0.00    +0.000 HD
BRANCH   9  11
ATOM     11  C   UNL     1       0.748  14.882  21.488  0.00  0.00    +0.000 C 
ATOM     12  C   UNL     1       2.274  14.645  21.537  0.00  0.00    +0.000 C 
ATOM     13  C   UNL     1       3.105  15.859  22.001  0.00  0.00    +0.000 C 
ATOM     14  C   UNL     1       3.141  17.124  21.132  0.00  0.00    +0.000 C 
ATOM     15  C   UNL     1       3.302  16.899  19.630  0.00  0.00    +0.000 C 
ATOM     16  C   UNL     1       2.005  16.926  18.815  0.00  0.00    +0.000 C 
ATOM     17  C   UNL     1       0.979  15.829  19.102  0.00  0.00    +0.000 C 
ATOM     18  C   UNL     1       0.309  15.947  20.473  0.00  0.00    +0.000 C 
ENDBRANCH   9  11
ENDBRANCH   4   7
BRANCH   1  19
ATOM     19  C   UNL     1       1.716   8.798  21.298  0.00  0.00    +0.000 C 
BRANCH  19  25
ATOM     20  C   UNL     1       2.118   9.218  17.929  0.00  0.00    +0.000 C 
ATOM     21  C   UNL     1       2.061   8.048  18.821  0.00  0.00    +0.000 A 
ATOM     22  O   UNL     1       2.249   6.842  18.213  0.00  0.00    +0.000 OA
ATOM     23  C   UNL     1       2.189   5.933  19.225  0.00  0.00    +0.000 A 
ATOM     24  N   UNL     1       1.923   6.453  20.403  0.00  0.00    +0.000 NA
ATOM     25  C   UNL     1       1.870   7.822  20.170  0.00  0.00    +0.000 A 
BRANCH  23  26
ATOM     26  C   UNL     1       2.379   4.546  18.822  0.00  0.00    +0.000 A 
ATOM     27  C   UNL     1       3.447   4.189  18.006  0.00  0.00    +0.000 A 
ATOM     28  C   UNL     1       3.660   2.847  17.643  0.00  0.00    +0.000 A 
ATOM     29  C   UNL     1       2.789   1.858  18.094  0.00  0.00    +0.000 A 
ATOM     30  C   UNL     1       1.704   2.204  18.901  0.00  0.00    +0.000 A 
ATOM     31  C   UNL     1       1.509   3.536  19.256  0.00  0.00    +0.000 A 
ATOM     32  F   UNL     1       0.443   3.822  20.025  0.00  0.00    +0.000 F 
ENDBRANCH  23  26
ENDBRANCH  19  25
ENDBRANCH   1  19
TORSDOF 5
ENDMDL
MODEL 7
REMARK VINA RESULT:      -8.3      3.330      5.805
REMARK  Name = 
REMARK  6 active torsions:
REMARK  status: ('A' for Active; 'I' for Inactive)
REMARK    1  A    between atoms: C_1  and  C_2
REMARK    2  A    between atoms: C_4  and  C_5
REMARK    3  A    between atoms: C_13  and  C_14
REMARK    4  A    between atoms: C_14  and  N_15
REMARK    5  A    between atoms: C_18  and  C_19
REMARK    6  A    between atoms: N_21  and  C_22
REMARK                            x       y       z     vdW  Elec       q    Type
REMARK                         _______ _______ _______ _____ _____    ______ ____
ROOT
ATOM      1  N   UNL     1       1.693   9.902  19.139  0.00  0.00    +0.000 NA
ATOM      2  C   UNL     1       1.799  11.077  18.264  0.00  0.00    +0.000 C 
ATOM      3  C   UNL     1       1.841  12.431  18.989  0.00  0.00    +0.000 C 
ATOM      4  C   UNL     1       0.769  12.624  20.056  0.00  0.00    +0.000 C 
ATOM      5  C   UNL     1       0.714  11.376  20.948  0.00  0.00    +0.000 C 
ATOM      6  C   UNL     1       0.655  10.055  20.173  0.00  0.00    +0.000 C 
ENDROOT
BRANCH   4   7
ATOM      7  C   UNL     1      -0.625  13.036  19.554  0.00  0.00    +0.000 C 
ATOM      8  O   UNL     1      -0.780  13.545  18.444  0.00  0.00    +0.000 OA
ATOM      9  N   UNL     1      -1.719  12.709  20.359  0.00  0.00    +0.000 N 
ATOM     10  H   UNL     1      -1.559  12.576  21.344  0.00  0.00    +0.000 HD
BRANCH   9  11
ATOM     11  C   UNL     1      -3.087  13.043  19.902  0.00  0.00    +0.000 C 
ATOM     12  C   UNL     1      -3.844  11.851  19.273  0.00  0.00    +0.000 C 
ATOM     13  C   UNL     1      -5.168  12.219  18.572  0.00  0.00    +0.000 C 
ATOM     14  C   UNL     1      -6.336  12.762  19.406  0.00  0.00    +0.000 C 
ATOM     15  C   UNL     1      -6.604  12.044  20.728  0.00  0.00    +0.000 C 
ATOM     16  C   UNL     1      -6.004  12.707  21.972  0.00  0.00    +0.000 C 
ATOM     17  C   UNL     1      -4.479  12.778  22.056  0.00  0.00    +0.000 C 
ATOM     18  C   UNL     1      -3.845  13.736  21.044  0.00  0.00    +0.000 C 
ENDBRANCH   9  11
ENDBRANCH   4   7
BRANCH   1  19
ATOM     19  C   UNL     1       1.376   8.685  18.334  0.00  0.00    +0.000 C 
BRANCH  19  25
ATOM     20  C   UNL     1       1.628   6.060  20.509  0.00  0.00    +0.000 C 
ATOM     21  C   UNL     1       2.423   6.526  19.362  0.00  0.00    +0.000 A 
ATOM     22  O   UNL     1       3.487   5.737  19.032  0.00  0.00    +0.000 OA
ATOM     23  C   UNL     1       4.037   6.341  17.942  0.00  0.00    +0.000 A 
ATOM     24  N   UNL     1       3.452   7.467  17.595  0.00  0.00    +0.000 NA
ATOM     25  C   UNL     1       2.386   7.586  18.479  0.00  0.00    +0.000 A 
BRANCH  23  26
ATOM     26  C   UNL     1       5.202   5.667  17.385  0.00  0.00    +0.000 A 
ATOM     27  C   UNL     1       5.255   5.356  16.030  0.00  0.00    +0.000 A 
ATOM     28  C   UNL     1       6.391   4.740  15.475  0.00  0.00    +0.000 A 
ATOM     29  C   UNL     1       7.478   4.425  16.289  0.00  0.00    +0.000 A 
ATOM     30  C   UNL     1       7.431   4.716  17.652  0.00  0.00    +0.000 A 
ATOM     31  C   UNL     1       6.302   5.331  18.186  0.00  0.00    +0.000 A 
ATOM     32  F   UNL     1       6.299   5.581  19.508  0.00  0.00    +0.000 F 
ENDBRANCH  23  26
ENDBRANCH  19  25
ENDBRANCH   1  19
TORSDOF 5
ENDMDL
MODEL 8
REMARK VINA RESULT:      -8.3      5.112     11.809
REMARK  Name = 
REMARK  6 active torsions:
REMARK  status: ('A' for Active; 'I' for Inactive)
REMARK    1  A    between atoms: C_1  and  C_2
REMARK    2  A    between atoms: C_4  and  C_5
REMARK    3  A    between atoms: C_13  and  C_14
REMARK    4  A    between atoms: C_14  and  N_15
REMARK    5  A    between atoms: C_18  and  C_19
REMARK    6  A    between atoms: N_21  and  C_22
REMARK                            x       y       z     vdW  Elec       q    Type
REMARK                         _______ _______ _______ _____ _____    ______ ____
ROOT
ATOM      1  N   UNL     1       0.045  11.896  19.807  0.00  0.00    +0.000 NA
ATOM      2  C   UNL     1       1.492  11.792  19.571  0.00  0.00    +0.000 C 
ATOM      3  C   UNL     1       1.895  11.000  18.318  0.00  0.00    +0.000 C 
ATOM      4  C   UNL     1       1.204   9.649  18.159  0.00  0.00    +0.000 C 
ATOM      5  C   UNL     1      -0.302   9.821  18.400  0.00  0.00    +0.000 C 
ATOM      6  C   UNL     1      -0.647  10.603  19.673  0.00  0.00    +0.000 C 
ENDROOT
BRANCH   4   7
ATOM      7  C   UNL     1       1.790   8.486  18.975  0.00  0.00    +0.000 C 
ATOM      8  O   UNL     1       1.963   8.580  20.190  0.00  0.00    +0.000 OA
ATOM      9  N   UNL     1       2.014   7.281  18.304  0.00  0.00    +0.000 N 
ATOM     10  H   UNL     1       2.147   7.312  17.307  0.00  0.00    +0.000 HD
BRANCH   9  11
ATOM     11  C   UNL     1       2.535   6.114  19.053  0.00  0.00    +0.000 C 
ATOM     12  C   UNL     1       1.648   5.691  20.245  0.00  0.00    +0.000 C 
ATOM     13  C   UNL     1       2.279   4.642  21.184  0.00  0.00    +0.000 C 
ATOM     14  C   UNL     1       2.565   3.231  20.655  0.00  0.00    +0.000 C 
ATOM     15  C   UNL     1       1.465   2.601  19.802  0.00  0.00    +0.000 C 
ATOM     16  C   UNL     1       1.657   2.716  18.286  0.00  0.00    +0.000 C 
ATOM     17  C   UNL     1       1.635   4.122  17.686  0.00  0.00    +0.000 C 
ATOM     18  C   UNL     1       2.845   4.979  18.066  0.00  0.00    +0.000 C 
ENDBRANCH   9  11
ENDBRANCH   4   7
BRANCH   1  19
ATOM     19  C   UNL     1      -0.217  12.428  21.177  0.00  0.00    +0.000 C 
BRANCH  19  25
ATOM     20  C   UNL     1      -1.551  15.455  20.313  0.00  0.00    +0.000 C 
ATOM     21  C   UNL     1      -2.084  14.239  20.947  0.00  0.00    +0.000 A 
ATOM     22  O   UNL     1      -3.418  14.267  21.232  0.00  0.00    +0.000 OA
ATOM     23  C   UNL     1      -3.681  13.044  21.770  0.00  0.00    +0.000 A 
ATOM     24  N   UNL     1      -2.624  12.274  21.902  0.00  0.00    +0.000 NA
ATOM     25  C   UNL     1      -1.588  13.013  21.344  0.00  0.00    +0.000 A 
BRANCH  23  26
ATOM     26  C   UNL     1      -5.070  12.823  22.151  0.00  0.00    +0.000 A 
ATOM     27  C   UNL     1      -5.498  13.102  23.444  0.00  0.00    +0.000 A 
ATOM     28  C   UNL     1      -6.845  12.928  23.811  0.00  0.00    +0.000 A 
ATOM     29  C   UNL     1      -7.766  12.460  22.875  0.00  0.00    +0.000 A 
ATOM     30  C   UNL     1      -7.345  12.160  21.579  0.00  0.00    +0.000 A 
ATOM     31  C   UNL     1      -6.010  12.343  21.229  0.00  0.00    +0.000 A 
ATOM     32  F   UNL     1      -5.651  12.029  19.971  0.00  0.00    +0.000 F 
ENDBRANCH  23  26
ENDBRANCH  19  25
ENDBRANCH   1  19
TORSDOF 5
ENDMDL
MODEL 9
REMARK VINA RESULT:      -8.3      5.082     11.438
REMARK  Name = 
REMARK  6 active torsions:
REMARK  status: ('A' for Active; 'I' for Inactive)
REMARK    1  A    between atoms: C_1  and  C_2
REMARK    2  A    between atoms: C_4  and  C_5
REMARK    3  A    between atoms: C_13  and  C_14
REMARK    4  A    between atoms: C_14  and  N_15
REMARK    5  A    between atoms: C_18  and  C_19
REMARK    6  A    between atoms: N_21  and  C_22
REMARK                            x       y       z     vdW  Elec       q    Type
REMARK                         _______ _______ _______ _____ _____    ______ ____
ROOT
ATOM      1  N   UNL     1      -0.073  11.671  19.380  0.00  0.00    +0.000 NA
ATOM      2  C   UNL     1       1.396  11.618  19.350  0.00  0.00    +0.000 C 
ATOM      3  C   UNL     1       1.997  10.805  18.193  0.00  0.00    +0.000 C 
ATOM      4  C   UNL     1       1.383   9.424  17.988  0.00  0.00    +0.000 C 
ATOM      5  C   UNL     1      -0.147   9.543  18.013  0.00  0.00    +0.000 C 
ATOM      6  C   UNL     1      -0.693  10.348  19.197  0.00  0.00    +0.000 C 
ENDROOT
BRANCH   4   7
ATOM      7  C   UNL     1       1.890   8.309  18.917  0.00  0.00    +0.000 C 
ATOM      8  O   UNL     1       1.828   8.420  20.142  0.00  0.00    +0.000 OA
ATOM      9  N   UNL     1       2.320   7.122  18.320  0.00  0.00    +0.000 N 
ATOM     10  H   UNL     1       2.634   7.161  17.364  0.00  0.00    +0.000 HD
BRANCH   9  11
ATOM     11  C   UNL     1       2.777   6.000  19.171  0.00  0.00    +0.000 C 
ATOM     12  C   UNL     1       1.646   5.340  19.993  0.00  0.00    +0.000 C 
ATOM     13  C   UNL     1       2.122   4.336  21.063  0.00  0.00    +0.000 C 
ATOM     14  C   UNL     1       2.815   3.039  20.625  0.00  0.00    +0.000 C 
ATOM     15  C   UNL     1       2.180   2.309  19.442  0.00  0.00    +0.000 C 
ATOM     16  C   UNL     1       2.824   2.578  18.078  0.00  0.00    +0.000 C 
ATOM     17  C   UNL     1       2.741   4.005  17.538  0.00  0.00    +0.000 C 
ATOM     18  C   UNL     1       3.588   5.016  18.316  0.00  0.00    +0.000 C 
ENDBRANCH   9  11
ENDBRANCH   4   7
BRANCH   1  19
ATOM     19  C   UNL     1      -0.542  12.233  20.681  0.00  0.00    +0.000 C 
BRANCH  19  25
ATOM     20  C   UNL     1      -2.653  12.195  23.370  0.00  0.00    +0.000 C 
ATOM     21  C   UNL     1      -2.840  12.335  21.917  0.00  0.00    +0.000 A 
ATOM     22  O   UNL     1      -4.126  12.540  21.511  0.00  0.00    +0.000 OA
ATOM     23  C   UNL     1      -4.044  12.671  20.159  0.00  0.00    +0.000 A 
ATOM     24  N   UNL     1      -2.833  12.508  19.672  0.00  0.00    +0.000 NA
ATOM     25  C   UNL     1      -2.034  12.325  20.795  0.00  0.00    +0.000 A 
BRANCH  23  26
ATOM     26  C   UNL     1      -5.311  12.915  19.483  0.00  0.00    +0.000 A 
ATOM     27  C   UNL     1      -5.849  11.960  18.627  0.00  0.00    +0.000 A 
ATOM     28  C   UNL     1      -7.090  12.170  18.000  0.00  0.00    +0.000 A 
ATOM     29  C   UNL     1      -7.793  13.352  18.227  0.00  0.00    +0.000 A 
ATOM     30  C   UNL     1      -7.257  14.325  19.072  0.00  0.00    +0.000 A 
ATOM     31  C   UNL     1      -6.030  14.101  19.689  0.00  0.00    +0.000 A 
ATOM     32  F   UNL     1      -5.550  15.073  20.485  0.00  0.00    +0.000 F 
ENDBRANCH  23  26
ENDBRANCH  19  25
ENDBRANCH   1  19
TORSDOF 5
ENDMDL
