MODEL 1
REMARK VINA RESULT:      -7.7      0.000      0.000
REMARK  Name = 
REMARK  7 active torsions:
REMARK  status: ('A' for Active; 'I' for Inactive)
REMARK    1  A    between atoms: C_1  and  N_2
REMARK    2  A    between atoms: N_2  and  C_3
REMARK    3  A    between atoms: N_2  and  C_4
REMARK    4  A    between atoms: C_14  and  O_15
REMARK    5  A    between atoms: O_15  and  C_16
REMARK    6  A    between atoms: C_16  and  C_17
REMARK    7  A    between atoms: C_17  and  N_18
REMARK                            x       y       z     vdW  Elec       q    Type
REMARK                         _______ _______ _______ _____ _____    ______ ____
ROOT
ATOM      1  C   UNL     1       3.427   5.454  19.476  0.00  0.00    +0.000 C 
ATOM      2  C   UNL     1       4.368   5.276  18.282  0.00  0.00    +0.000 A 
ATOM      3  C   UNL     1       5.216   4.210  18.007  0.00  0.00    +0.000 A 
ATOM      4  C   UNL     1       5.919   4.222  16.806  0.00  0.00    +0.000 A 
ATOM      5  C   UNL     1       5.779   5.293  15.902  0.00  0.00    +0.000 A 
ATOM      6  C   UNL     1       4.935   6.372  16.199  0.00  0.00    +0.000 A 
ATOM      7  C   UNL     1       4.236   6.360  17.380  0.00  0.00    +0.000 A 
ATOM      8  C   UNL     1       3.288   7.311  17.931  0.00  0.00    +0.000 A 
ATOM      9  C   UNL     1       2.817   8.517  17.438  0.00  0.00    +0.000 A 
ATOM     10  C   UNL     1       1.884   9.244  18.200  0.00  0.00    +0.000 A 
ATOM     11  C   UNL     1       1.471   8.788  19.459  0.00  0.00    +0.000 A 
ATOM     12  C   UNL     1       1.969   7.581  19.957  0.00  0.00    +0.000 A 
ATOM     13  C   UNL     1       2.835   6.829  19.170  0.00  0.00    +0.000 A 
ENDROOT
BRANCH   1  15
ATOM     14  C   UNL     1       1.743   4.334  20.878  0.00  0.00    +0.000 C 
ATOM     15  N   UNL     1       2.462   4.338  19.606  0.00  0.00    +0.000 NA
ATOM     16  C   UNL     1       1.504   4.246  18.499  0.00  0.00    +0.000 C 
ENDBRANCH   1  15
BRANCH  11  17
ATOM     17  O   UNL     1       0.562   9.586  20.126  0.00  0.00    +0.000 OA
BRANCH  17  18
ATOM     18  C   UNL     1       0.091  10.697  19.347  0.00  0.00    +0.000 C 
BRANCH  18  19
ATOM     19  C   UNL     1      -1.438  10.853  19.446  0.00  0.00    +0.000 C 
BRANCH  19  20
ATOM     20  N   UNL     1      -2.120  11.118  18.151  0.00  0.00    +0.000 NA
ATOM     21  C   UNL     1      -1.880  10.084  17.126  0.00  0.00    +0.000 C 
ATOM     22  C   UNL     1      -2.569  10.423  15.797  0.00  0.00    +0.000 C 
ATOM     23  C   UNL     1      -4.065  10.617  15.997  0.00  0.00    +0.000 C 
ATOM     24  C   UNL     1      -4.314  11.647  17.090  0.00  0.00    +0.000 C 
ATOM     25  C   UNL     1      -3.566  11.291  18.379  0.00  0.00    +0.000 C 
ENDBRANCH  19  20
ENDBRANCH  18  19
ENDBRANCH  17  18
ENDBRANCH  11  17
TORSDOF 5
ENDMDL
MODEL 2
REMARK VINA RESULT:      -7.7      0.474      1.097
REMARK  Name = 
REMARK  7 active torsions:
REMARK  status: ('A' for Active; 'I' for Inactive)
REMARK    1  A    between atoms: C_1  and  N_2
REMARK    2  A    between atoms: N_2  and  C_3
REMARK    3  A    between atoms: N_2  and  C_4
REMARK    4  A    between atoms: C_14  and  O_15
REMARK    5  A    between atoms: O_15  and  C_16
REMARK    6  A    between atoms: C_16  and  C_17
REMARK    7  A    between atoms: C_17  and  N_18
REMARK                            x       y       z     vdW  Elec       q    Type
REMARK                         _______ _______ _______ _____ _____    ______ ____
ROOT
ATOM      1  C   UNL     1       3.540   5.480  19.589  0.00  0.00    +0.000 C 
ATOM      2  C   UNL     1       4.467   5.335  18.381  0.00  0.00    +0.000 A 
ATOM      3  C   UNL     1       5.381   4.321  18.115  0.00  0.00    +0.000 A 
ATOM      4  C   UNL     1       6.057   4.348  16.899  0.00  0.00    +0.000 A 
ATOM      5  C   UNL     1       5.828   5.383  15.971  0.00  0.00    +0.000 A 
ATOM      6  C   UNL     1       4.919   6.410  16.260  0.00  0.00    +0.000 A 
ATOM      7  C   UNL     1       4.245   6.383  17.455  0.00  0.00    +0.000 A 
ATOM      8  C   UNL     1       3.245   7.283  18.002  0.00  0.00    +0.000 A 
ATOM      9  C   UNL     1       2.685   8.441  17.489  0.00  0.00    +0.000 A 
ATOM     10  C   UNL     1       1.720   9.123  18.251  0.00  0.00    +0.000 A 
ATOM     11  C   UNL     1       1.363   8.674  19.530  0.00  0.00    +0.000 A 
ATOM     12  C   UNL     1       1.951   7.517  20.047  0.00  0.00    +0.000 A 
ATOM     13  C   UNL     1       2.850   6.804  19.262  0.00  0.00    +0.000 A 
ENDROOT
BRANCH   1  15
ATOM     14  C   UNL     1       2.044   4.233  21.093  0.00  0.00    +0.000 C 
ATOM     15  N   UNL     1       2.655   4.306  19.768  0.00  0.00    +0.000 NA
ATOM     16  C   UNL     1       1.618   4.180  18.739  0.00  0.00    +0.000 C 
ENDBRANCH   1  15
BRANCH  11  17
ATOM     17  O   UNL     1       0.415   9.426  20.196  0.00  0.00    +0.000 OA
BRANCH  17  18
ATOM     18  C   UNL     1       0.399  10.808  19.805  0.00  0.00    +0.000 C 
BRANCH  18  19
ATOM     19  C   UNL     1      -1.012  11.414  19.915  0.00  0.00    +0.000 C 
BRANCH  19  20
ATOM     20  N   UNL     1      -2.002  10.862  18.951  0.00  0.00    +0.000 NA
ATOM     21  C   UNL     1      -3.225  11.677  18.817  0.00  0.00    +0.000 C 
ATOM     22  C   UNL     1      -4.231  11.046  17.845  0.00  0.00    +0.000 C 
ATOM     23  C   UNL     1      -3.600  10.830  16.477  0.00  0.00    +0.000 C 
ATOM     24  C   UNL     1      -2.311  10.032  16.620  0.00  0.00    +0.000 C 
ATOM     25  C   UNL     1      -1.362  10.674  17.637  0.00  0.00    +0.000 C 
ENDBRANCH  19  20
ENDBRANCH  18  19
ENDBRANCH  17  18
ENDBRANCH  11  17
TORSDOF 5
ENDMDL
MODEL 3
REMARK VINA RESULT:      -7.7      4.833      8.106
REMARK  Name = 
REMARK  7 active torsions:
REMARK  status: ('A' for Active; 'I' for Inactive)
REMARK    1  A    between atoms: C_1  and  N_2
REMARK    2  A    between atoms: N_2  and  C_3
REMARK    3  A    between atoms: N_2  and  C_4
REMARK    4  A    between atoms: C_14  and  O_15
REMARK    5  A    between atoms: O_15  and  C_16
REMARK    6  A    between atoms: C_16  and  C_17
REMARK    7  A    between atoms: C_17  and  N_18
REMARK                            x       y       z     vdW  Elec       q    Type
REMARK                         _______ _______ _______ _____ _____    ______ ____
ROOT
ATOM      1  C   UNL     1       3.393   6.004  19.093  0.00  0.00    +0.000 C 
ATOM      2  C   UNL     1       2.813   4.611  18.841  0.00  0.00    +0.000 A 
ATOM      3  C   UNL     1       1.670   4.042  19.390  0.00  0.00    +0.000 A 
ATOM      4  C   UNL     1       1.282   2.783  18.941  0.00  0.00    +0.000 A 
ATOM      5  C   UNL     1       2.036   2.103  17.966  0.00  0.00    +0.000 A 
ATOM      6  C   UNL     1       3.198   2.678  17.434  0.00  0.00    +0.000 A 
ATOM      7  C   UNL     1       3.580   3.923  17.869  0.00  0.00    +0.000 A 
ATOM      8  C   UNL     1       4.703   4.759  17.484  0.00  0.00    +0.000 A 
ATOM      9  C   UNL     1       5.727   4.548  16.577  0.00  0.00    +0.000 A 
ATOM     10  C   UNL     1       6.699   5.550  16.403  0.00  0.00    +0.000 A 
ATOM     11  C   UNL     1       6.666   6.724  17.168  0.00  0.00    +0.000 A 
ATOM     12  C   UNL     1       5.641   6.918  18.097  0.00  0.00    +0.000 A 
ATOM     13  C   UNL     1       4.641   5.958  18.214  0.00  0.00    +0.000 A 
ENDROOT
BRANCH   1  15
ATOM     14  C   UNL     1       1.988   7.818  19.984  0.00  0.00    +0.000 C 
ATOM     15  N   UNL     1       2.421   7.083  18.798  0.00  0.00    +0.000 NA
ATOM     16  C   UNL     1       2.874   8.027  17.771  0.00  0.00    +0.000 C 
ENDBRANCH   1  15
BRANCH  11  17
ATOM     17  O   UNL     1       7.676   7.635  16.926  0.00  0.00    +0.000 OA
BRANCH  17  18
ATOM     18  C   UNL     1       8.187   8.257  18.115  0.00  0.00    +0.000 C 
BRANCH  18  19
ATOM     19  C   UNL     1       8.353   9.777  17.935  0.00  0.00    +0.000 C 
BRANCH  19  20
ATOM     20  N   UNL     1       9.542  10.357  18.614  0.00  0.00    +0.000 NA
ATOM     21  C   UNL     1      10.283  11.334  17.791  0.00  0.00    +0.000 C 
ATOM     22  C   UNL     1      11.524  11.872  18.518  0.00  0.00    +0.000 C 
ATOM     23  C   UNL     1      11.141  12.501  19.849  0.00  0.00    +0.000 C 
ATOM     24  C   UNL     1      10.334  11.511  20.678  0.00  0.00    +0.000 C 
ATOM     25  C   UNL     1       9.136  10.965  19.894  0.00  0.00    +0.000 C 
ENDBRANCH  19  20
ENDBRANCH  18  19
ENDBRANCH  17  18
ENDBRANCH  11  17
TORSDOF 5
ENDMDL
MODEL 4
REMARK VINA RESULT:      -7.7      2.721      3.188
REMARK  Name = 
REMARK  7 active torsions:
REMARK  status: ('A' for Active; 'I' for Inactive)
REMARK    1  A    between atoms: C_1  and  N_2
REMARK    2  A    between atoms: N_2  and  C_3
REMARK    3  A    between atoms: N_2  and  C_4
REMARK    4  A    between atoms: C_14  and  O_15
REMARK    5  A    between atoms: O_15  and  C_16
REMARK    6  A    between atoms: C_16  and  C_17
REMARK    7  A    between atoms: C_17  and  N_18
REMARK                            x       y       z     vdW  Elec       q    Type
REMARK                         _______ _______ _______ _____ _____    ______ ____
ROOT
ATOM      1  C   UNL     1       4.584   4.315  18.581  0.00  0.00    +0.000 C 
ATOM      2  C   UNL     1       5.229   4.661  17.237  0.00  0.00    +0.000 A 
ATOM      3  C   UNL     1       6.127   3.905  16.494  0.00  0.00    +0.000 A 
ATOM      4  C   UNL     1       6.514   4.383  15.246  0.00  0.00    +0.000 A 
ATOM      5  C   UNL     1       6.015   5.607  14.758  0.00  0.00    +0.000 A 
ATOM      6  C   UNL     1       5.124   6.370  15.525  0.00  0.00    +0.000 A 
ATOM      7  C   UNL     1       4.735   5.898  16.754  0.00  0.00    +0.000 A 
ATOM      8  C   UNL     1       3.822   6.451  17.737  0.00  0.00    +0.000 A 
ATOM      9  C   UNL     1       3.084   7.623  17.737  0.00  0.00    +0.000 A 
ATOM     10  C   UNL     1       2.267   7.912  18.845  0.00  0.00    +0.000 A 
ATOM     11  C   UNL     1       2.235   7.059  19.957  0.00  0.00    +0.000 A 
ATOM     12  C   UNL     1       3.001   5.891  19.957  0.00  0.00    +0.000 A 
ATOM     13  C   UNL     1       3.750   5.571  18.830  0.00  0.00    +0.000 A 
ENDROOT
BRANCH   1  15
ATOM     14  C   UNL     1       3.571   2.474  19.861  0.00  0.00    +0.000 C 
ATOM     15  N   UNL     1       3.843   3.033  18.539  0.00  0.00    +0.000 NA
ATOM     16  C   UNL     1       2.601   3.088  17.762  0.00  0.00    +0.000 C 
ENDBRANCH   1  15
BRANCH  11  17
ATOM     17  O   UNL     1       1.409   7.445  20.994  0.00  0.00    +0.000 OA
BRANCH  17  18
ATOM     18  C   UNL     1       0.893   8.778  20.854  0.00  0.00    +0.000 C 
BRANCH  18  19
ATOM     19  C   UNL     1       0.742   9.475  22.218  0.00  0.00    +0.000 C 
BRANCH  19  20
ATOM     20  N   UNL     1       0.102  10.817  22.163  0.00  0.00    +0.000 NA
ATOM     21  C   UNL     1      -0.230  11.265  20.797  0.00  0.00    +0.000 C 
ATOM     22  C   UNL     1      -0.850  12.670  20.789  0.00  0.00    +0.000 C 
ATOM     23  C   UNL     1      -2.092  12.719  21.666  0.00  0.00    +0.000 C 
ATOM     24  C   UNL     1      -1.762  12.209  23.063  0.00  0.00    +0.000 C 
ATOM     25  C   UNL     1      -1.101  10.827  23.015  0.00  0.00    +0.000 C 
ENDBRANCH  19  20
ENDBRANCH  18  19
ENDBRANCH  17  18
ENDBRANCH  11  17
TORSDOF 5
ENDMDL
MODEL 5
REMARK VINA RESULT:      -7.6      2.056      7.899
REMARK  Name = 
REMARK  7 active torsions:
REMARK  status: ('A' for Active; 'I' for Inactive)
REMARK    1  A    between atoms: C_1  and  N_2
REMARK    2  A    between atoms: N_2  and  C_3
REMARK    3  A    between atoms: N_2  and  C_4
REMARK    4  A    between atoms: C_14  and  O_15
REMARK    5  A    between atoms: O_15  and  C_16
REMARK    6  A    between atoms: C_16  and  C_17
REMARK    7  A    between atoms: C_17  and  N_18
REMARK                            x       y       z     vdW  Elec       q    Type
REMARK                         _______ _______ _______ _____ _____    ______ ____
ROOT
ATOM      1  C   UNL     1       0.336  11.021  19.180  0.00  0.00    +0.000 C 
ATOM      2  C   UNL     1      -0.166  10.977  20.625  0.00  0.00    +0.000 A 
ATOM      3  C   UNL     1      -0.963  11.904  21.287  0.00  0.00    +0.000 A 
ATOM      4  C   UNL     1      -1.374  11.609  22.584  0.00  0.00    +0.000 A 
ATOM      5  C   UNL     1      -0.982  10.410  23.208  0.00  0.00    +0.000 A 
ATOM      6  C   UNL     1      -0.162   9.492  22.537  0.00  0.00    +0.000 A 
ATOM      7  C   UNL     1       0.240   9.776  21.256  0.00  0.00    +0.000 A 
ATOM      8  C   UNL     1       1.055   9.014  20.326  0.00  0.00    +0.000 A 
ATOM      9  C   UNL     1       1.679   7.785  20.458  0.00  0.00    +0.000 A 
ATOM     10  C   UNL     1       2.418   7.279  19.373  0.00  0.00    +0.000 A 
ATOM     11  C   UNL     1       2.568   8.023  18.195  0.00  0.00    +0.000 A 
ATOM     12  C   UNL     1       1.953   9.272  18.081  0.00  0.00    +0.000 A 
ATOM     13  C   UNL     1       1.162   9.737  19.126  0.00  0.00    +0.000 A 
ENDROOT
BRANCH   1  15
ATOM     14  C   UNL     1      -1.824  10.140  18.396  0.00  0.00    +0.000 C 
ATOM     15  N   UNL     1      -0.770  11.132  18.201  0.00  0.00    +0.000 NA
ATOM     16  C   UNL     1      -1.362  12.471  18.121  0.00  0.00    +0.000 C 
ENDBRANCH   1  15
BRANCH  11  17
ATOM     17  O   UNL     1       3.325   7.437  17.199  0.00  0.00    +0.000 OA
BRANCH  17  18
ATOM     18  C   UNL     1       4.320   6.527  17.693  0.00  0.00    +0.000 C 
BRANCH  18  19
ATOM     19  C   UNL     1       4.139   5.114  17.107  0.00  0.00    +0.000 C 
BRANCH  19  20
ATOM     20  N   UNL     1       3.382   4.174  17.977  0.00  0.00    +0.000 NA
ATOM     21  C   UNL     1       1.919   4.239  17.797  0.00  0.00    +0.000 C 
ATOM     22  C   UNL     1       1.181   3.282  18.744  0.00  0.00    +0.000 C 
ATOM     23  C   UNL     1       1.663   1.852  18.553  0.00  0.00    +0.000 C 
ATOM     24  C   UNL     1       3.179   1.792  18.689  0.00  0.00    +0.000 C 
ATOM     25  C   UNL     1       3.867   2.799  17.761  0.00  0.00    +0.000 C 
ENDBRANCH  19  20
ENDBRANCH  18  19
ENDBRANCH  17  18
ENDBRANCH  11  17
TORSDOF 5
ENDMDL
MODEL 6
REMARK VINA RESULT:      -7.6      0.722      1.039
REMARK  Name = 
REMARK  7 active torsions:
REMARK  status: ('A' for Active; 'I' for Inactive)
REMARK    1  A    between atoms: C_1  and  N_2
REMARK    2  A    between atoms: N_2  and  C_3
REMARK    3  A    between atoms: N_2  and  C_4
REMARK    4  A    between atoms: C_14  and  O_15
REMARK    5  A    between atoms: O_15  and  C_16
REMARK    6  A    between atoms: C_16  and  C_17
REMARK    7  A    between atoms: C_17  and  N_18
REMARK                            x       y       z     vdW  Elec       q    Type
REMARK                         _______ _______ _______ _____ _____    ______ ____
ROOT
ATOM      1  C   UNL     1       2.780   5.743  20.202  0.00  0.00    +0.000 C 
ATOM      2  C   UNL     1       3.737   5.366  19.068  0.00  0.00    +0.000 A 
ATOM      3  C   UNL     1       4.538   4.236  18.959  0.00  0.00    +0.000 A 
ATOM      4  C   UNL     1       5.266   4.057  17.786  0.00  0.00    +0.000 A 
ATOM      5  C   UNL     1       5.198   5.004  16.746  0.00  0.00    +0.000 A 
ATOM      6  C   UNL     1       4.402   6.150  16.876  0.00  0.00    +0.000 A 
ATOM      7  C   UNL     1       3.677   6.326  18.029  0.00  0.00    +0.000 A 
ATOM      8  C   UNL     1       2.765   7.384  18.424  0.00  0.00    +0.000 A 
ATOM      9  C   UNL     1       2.364   8.534  17.765  0.00  0.00    +0.000 A 
ATOM     10  C   UNL     1       1.451   9.397  18.398  0.00  0.00    +0.000 A 
ATOM     11  C   UNL     1       0.990   9.130  19.694  0.00  0.00    +0.000 A 
ATOM     12  C   UNL     1       1.418   7.979  20.360  0.00  0.00    +0.000 A 
ATOM     13  C   UNL     1       2.263   7.091  19.703  0.00  0.00    +0.000 A 
ENDROOT
BRANCH   1  15
ATOM     14  C   UNL     1       1.367   3.968  19.248  0.00  0.00    +0.000 C 
ATOM     15  N   UNL     1       1.759   4.698  20.451  0.00  0.00    +0.000 NA
ATOM     16  C   UNL     1       2.125   3.749  21.506  0.00  0.00    +0.000 C 
ENDBRANCH   1  15
BRANCH  11  17
ATOM     17  O   UNL     1       0.107  10.050  20.226  0.00  0.00    +0.000 OA
BRANCH  17  18
ATOM     18  C   UNL     1      -0.208  11.129  19.332  0.00  0.00    +0.000 C 
BRANCH  18  19
ATOM     19  C   UNL     1      -1.680  11.563  19.461  0.00  0.00    +0.000 C 
BRANCH  19  20
ATOM     20  N   UNL     1      -2.408  11.682  18.169  0.00  0.00    +0.000 NA
ATOM     21  C   UNL     1      -1.898  10.789  17.111  0.00  0.00    +0.000 C 
ATOM     22  C   UNL     1      -2.653  10.978  15.787  0.00  0.00    +0.000 C 
ATOM     23  C   UNL     1      -4.146  10.757  15.978  0.00  0.00    +0.000 C 
ATOM     24  C   UNL     1      -4.663  11.642  17.104  0.00  0.00    +0.000 C 
ATOM     25  C   UNL     1      -3.847  11.453  18.388  0.00  0.00    +0.000 C 
ENDBRANCH  19  20
ENDBRANCH  18  19
ENDBRANCH  17  18
ENDBRANCH  11  17
TORSDOF 5
ENDMDL
MODEL 7
REMARK VINA RESULT:      -7.6      0.985      1.629
REMARK  Name = 
REMARK  7 active torsions:
REMARK  status: ('A' for Active; 'I' for Inactive)
REMARK    1  A    between atoms: C_1  and  N_2
REMARK    2  A    between atoms: N_2  and  C_3
REMARK    3  A    between atoms: N_2  and  C_4
REMARK    4  A    between atoms: C_14  and  O_15
REMARK    5  A    between atoms: O_15  and  C_16
REMARK    6  A    between atoms: C_16  and  C_17
REMARK    7  A    between atoms: C_17  and  N_18
REMARK                            x       y       z     vdW  Elec       q    Type
REMARK                         _______ _______ _______ _____ _____    ______ ____
ROOT
ATOM      1  C   UNL     1       2.627   5.030  20.336  0.00  0.00    +0.000 C 
ATOM      2  C   UNL     1       3.473   4.560  19.151  0.00  0.00    +0.000 A 
ATOM      3  C   UNL     1       4.096   3.330  18.973  0.00  0.00    +0.000 A 
ATOM      4  C   UNL     1       4.743   3.090  17.765  0.00  0.00    +0.000 A 
ATOM      5  C   UNL     1       4.774   4.073  16.757  0.00  0.00    +0.000 A 
ATOM      6  C   UNL     1       4.159   5.317  16.956  0.00  0.00    +0.000 A 
ATOM      7  C   UNL     1       3.513   5.555  18.144  0.00  0.00    +0.000 A 
ATOM      8  C   UNL     1       2.781   6.719  18.609  0.00  0.00    +0.000 A 
ATOM      9  C   UNL     1       2.527   7.937  18.002  0.00  0.00    +0.000 A 
ATOM     10  C   UNL     1       1.775   8.900  18.701  0.00  0.00    +0.000 A 
ATOM     11  C   UNL     1       1.330   8.657  20.007  0.00  0.00    +0.000 A 
ATOM     12  C   UNL     1       1.612   7.433  20.619  0.00  0.00    +0.000 A 
ATOM     13  C   UNL     1       2.292   6.456  19.900  0.00  0.00    +0.000 A 
ENDROOT
BRANCH   1  15
ATOM     14  C   UNL     1       0.918   3.532  19.390  0.00  0.00    +0.000 C 
ATOM     15  N   UNL     1       1.475   4.136  20.599  0.00  0.00    +0.000 NA
ATOM     16  C   UNL     1       1.747   3.092  21.591  0.00  0.00    +0.000 C 
ENDBRANCH   1  15
BRANCH  11  17
ATOM     17  O   UNL     1       0.612   9.675  20.604  0.00  0.00    +0.000 OA
BRANCH  17  18
ATOM     18  C   UNL     1       0.296  10.755  19.712  0.00  0.00    +0.000 C 
BRANCH  18  19
ATOM     19  C   UNL     1      -1.146  11.255  19.914  0.00  0.00    +0.000 C 
BRANCH  19  20
ATOM     20  N   UNL     1      -2.113  10.799  18.880  0.00  0.00    +0.000 NA
ATOM     21  C   UNL     1      -3.181  11.775  18.588  0.00  0.00    +0.000 C 
ATOM     22  C   UNL     1      -4.176  11.242  17.546  0.00  0.00    +0.000 C 
ATOM     23  C   UNL     1      -3.460  10.857  16.261  0.00  0.00    +0.000 C 
ATOM     24  C   UNL     1      -2.325   9.889  16.567  0.00  0.00    +0.000 C 
ATOM     25  C   UNL     1      -1.389  10.443  17.647  0.00  0.00    +0.000 C 
ENDBRANCH  19  20
ENDBRANCH  18  19
ENDBRANCH  17  18
ENDBRANCH  11  17
TORSDOF 5
ENDMDL
MODEL 8
REMARK VINA RESULT:      -7.4      1.332      3.074
REMARK  Name = 
REMARK  7 active torsions:
REMARK  status: ('A' for Active; 'I' for Inactive)
REMARK    1  A    between atoms: C_1  and  N_2
REMARK    2  A    between atoms: N_2  and  C_3
REMARK    3  A    between atoms: N_2  and  C_4
REMARK    4  A    between atoms: C_14  and  O_15
REMARK    5  A    between atoms: O_15  and  C_16
REMARK    6  A    between atoms: C_16  and  C_17
REMARK    7  A    between atoms: C_17  and  N_18
REMARK                            x       y       z     vdW  Elec       q    Type
REMARK                         _______ _______ _______ _____ _____    ______ ____
ROOT
ATOM      1  C   UNL     1       3.136   5.905  18.135  0.00  0.00    +0.000 C 
ATOM      2  C   UNL     1       2.988   4.667  19.023  0.00  0.00    +0.000 A 
ATOM      3  C   UNL     1       3.446   3.377  18.783  0.00  0.00    +0.000 A 
ATOM      4  C   UNL     1       3.276   2.423  19.782  0.00  0.00    +0.000 A 
ATOM      5  C   UNL     1       2.646   2.757  20.996  0.00  0.00    +0.000 A 
ATOM      6  C   UNL     1       2.171   4.057  21.219  0.00  0.00    +0.000 A 
ATOM      7  C   UNL     1       2.343   5.003  20.238  0.00  0.00    +0.000 A 
ATOM      8  C   UNL     1       1.983   6.408  20.202  0.00  0.00    +0.000 A 
ATOM      9  C   UNL     1       1.347   7.210  21.135  0.00  0.00    +0.000 A 
ATOM     10  C   UNL     1       1.122   8.564  20.827  0.00  0.00    +0.000 A 
ATOM     11  C   UNL     1       1.486   9.088  19.579  0.00  0.00    +0.000 A 
ATOM     12  C   UNL     1       2.106   8.265  18.636  0.00  0.00    +0.000 A 
ATOM     13  C   UNL     1       2.393   6.946  18.971  0.00  0.00    +0.000 A 
ENDROOT
BRANCH   1  15
ATOM     14  C   UNL     1       5.493   5.711  18.815  0.00  0.00    +0.000 C 
ATOM     15  N   UNL     1       4.550   6.206  17.815  0.00  0.00    +0.000 NA
ATOM     16  C   UNL     1       4.967   5.760  16.482  0.00  0.00    +0.000 C 
ENDBRANCH   1  15
BRANCH  11  17
ATOM     17  O   UNL     1       1.207  10.425  19.377  0.00  0.00    +0.000 OA
BRANCH  17  18
ATOM     18  C   UNL     1       0.142  10.657  18.441  0.00  0.00    +0.000 C 
BRANCH  18  19
ATOM     19  C   UNL     1      -1.238  10.567  19.118  0.00  0.00    +0.000 C 
BRANCH  19  20
ATOM     20  N   UNL     1      -2.378  10.385  18.181  0.00  0.00    +0.000 NA
ATOM     21  C   UNL     1      -3.268  11.559  18.085  0.00  0.00    +0.000 C 
ATOM     22  C   UNL     1      -4.451  11.307  17.139  0.00  0.00    +0.000 C 
ATOM     23  C   UNL     1      -3.962  10.913  15.754  0.00  0.00    +0.000 C 
ATOM     24  C   UNL     1      -3.005   9.733  15.856  0.00  0.00    +0.000 C 
ATOM     25  C   UNL     1      -1.871  10.013  16.848  0.00  0.00    +0.000 C 
ENDBRANCH  19  20
ENDBRANCH  18  19
ENDBRANCH  17  18
ENDBRANCH  11  17
TORSDOF 5
ENDMDL
MODEL 9
REMARK VINA RESULT:      -7.4      1.884      2.565
REMARK  Name = 
REMARK  7 active torsions:
REMARK  status: ('A' for Active; 'I' for Inactive)
REMARK    1  A    between atoms: C_1  and  N_2
REMARK    2  A    between atoms: N_2  and  C_3
REMARK    3  A    between atoms: N_2  and  C_4
REMARK    4  A    between atoms: C_14  and  O_15
REMARK    5  A    between atoms: O_15  and  C_16
REMARK    6  A    between atoms: C_16  and  C_17
REMARK    7  A    between atoms: C_17  and  N_18
REMARK                            x       y       z     vdW  Elec       q    Type
REMARK                         _______ _______ _______ _____ _____    ______ ____
ROOT
ATOM      1  C   UNL     1       3.817   4.452  18.798  0.00  0.00    +0.000 C 
ATOM      2  C   UNL     1       4.608   4.758  17.524  0.00  0.00    +0.000 A 
ATOM      3  C   UNL     1       5.451   3.914  16.811  0.00  0.00    +0.000 A 
ATOM      4  C   UNL     1       5.997   4.383  15.620  0.00  0.00    +0.000 A 
ATOM      5  C   UNL     1       5.710   5.682  15.159  0.00  0.00    +0.000 A 
ATOM      6  C   UNL     1       4.874   6.532  15.897  0.00  0.00    +0.000 A 
ATOM      7  C   UNL     1       4.328   6.070  17.069  0.00  0.00    +0.000 A 
ATOM      8  C   UNL     1       3.424   6.706  18.010  0.00  0.00    +0.000 A 
ATOM      9  C   UNL     1       2.855   7.968  18.015  0.00  0.00    +0.000 A 
ATOM     10  C   UNL     1       2.000   8.324  19.074  0.00  0.00    +0.000 A 
ATOM     11  C   UNL     1       1.763   7.440  20.136  0.00  0.00    +0.000 A 
ATOM     12  C   UNL     1       2.360   6.177  20.132  0.00  0.00    +0.000 A 
ATOM     13  C   UNL     1       3.146   5.801  19.048  0.00  0.00    +0.000 A 
ENDROOT
BRANCH   1  15
ATOM     14  C   UNL     1       2.645   2.583  19.888  0.00  0.00    +0.000 C 
ATOM     15  N   UNL     1       2.914   3.288  18.638  0.00  0.00    +0.000 NA
ATOM     16  C   UNL     1       1.649   3.605  17.968  0.00  0.00    +0.000 C 
ENDBRANCH   1  15
BRANCH  11  17
ATOM     17  O   UNL     1       0.918   7.896  21.129  0.00  0.00    +0.000 OA
BRANCH  17  18
ATOM     18  C   UNL     1       1.212   9.232  21.567  0.00  0.00    +0.000 C 
BRANCH  18  19
ATOM     19  C   UNL     1      -0.072  10.039  21.831  0.00  0.00    +0.000 C 
BRANCH  19  20
ATOM     20  N   UNL     1      -0.262  11.215  20.940  0.00  0.00    +0.000 NA
ATOM     21  C   UNL     1       0.970  11.994  20.709  0.00  0.00    +0.000 C 
ATOM     22  C   UNL     1       0.715  13.219  19.819  0.00  0.00    +0.000 C 
ATOM     23  C   UNL     1       0.108  12.804  18.487  0.00  0.00    +0.000 C 
ATOM     24  C   UNL     1      -1.135  11.957  18.724  0.00  0.00    +0.000 C 
ATOM     25  C   UNL     1      -0.842  10.777  19.657  0.00  0.00    +0.000 C 
ENDBRANCH  19  20
ENDBRANCH  18  19
ENDBRANCH  17  18
ENDBRANCH  11  17
TORSDOF 5
ENDMDL
