MODEL 1
REMARK VINA RESULT:      -8.3      0.000      0.000
REMARK  Name = 
REMARK  6 active torsions:
REMARK  status: ('A' for Active; 'I' for Inactive)
REMARK    1  A    between atoms: C_2  and  C_11
REMARK    2  A    between atoms: N_3  and  C_4
REMARK    3  A    between atoms: C_4  and  C_5
REMARK    4  A    between atoms: C_5  and  N_6
REMARK    5  A    between atoms: C_15  and  C_16
REMARK    6  A    between atoms: C_22  and  C_23
REMARK                            x       y       z     vdW  Elec       q    Type
REMARK                         _______ _______ _______ _____ _____    ______ ____
ROOT
ATOM      1  C   UNL     1       2.343   7.542  18.941  0.00  0.00    +0.000 A 
ATOM      2  C   UNL     1       2.427   8.349  17.804  0.00  0.00    +0.000 A 
ATOM      3  C   UNL     1       1.801   9.592  17.791  0.00  0.00    +0.000 A 
ATOM      4  C   UNL     1       1.093  10.029  18.915  0.00  0.00    +0.000 A 
ATOM      5  C   UNL     1       1.006   9.236  20.071  0.00  0.00    +0.000 A 
ATOM      6  C   UNL     1       1.655   7.995  20.072  0.00  0.00    +0.000 A 
ENDROOT
BRANCH   5   7
ATOM      7  C   UNL     1       0.293   9.726  21.257  0.00  0.00    +0.000 A 
ATOM      8  C   UNL     1      -0.087   9.049  22.405  0.00  0.00    +0.000 A 
ATOM      9  N   UNL     1      -0.765   9.851  23.283  0.00  0.00    +0.000 NA
ATOM     10  C   UNL     1      -0.810  11.025  22.696  0.00  0.00    +0.000 A 
ATOM     11  C   UNL     1      -1.404  12.232  23.116  0.00  0.00    +0.000 A 
ATOM     12  C   UNL     1      -1.299  13.317  22.345  0.00  0.00    +0.000 A 
ATOM     13  C   UNL     1      -0.542  13.199  21.057  0.00  0.00    +0.000 A 
ATOM     14  N   UNL     1      -0.006  12.094  20.625  0.00  0.00    +0.000 NA
ATOM     15  N   UNL     1      -0.168  11.020  21.467  0.00  0.00    +0.000 N 
BRANCH  13  16
ATOM     16  C   UNL     1      -0.423  14.412  20.257  0.00  0.00    +0.000 A 
ATOM     17  C   UNL     1      -1.188  15.566  20.313  0.00  0.00    +0.000 A 
ATOM     18  C   UNL     1      -0.809  16.527  19.331  0.00  0.00    +0.000 A 
ATOM     19  C   UNL     1       0.240  16.086  18.560  0.00  0.00    +0.000 A 
ATOM     20  S   UNL     1       0.781  14.536  19.038  0.00  0.00    +0.000 S 
ENDBRANCH  13  16
ENDBRANCH   5   7
BRANCH   1  22
ATOM     21  O   UNL     1       3.850   5.948  19.784  0.00  0.00    +0.000 OA
ATOM     22  C   UNL     1       3.010   6.216  18.931  0.00  0.00    +0.000 C 
ATOM     23  N   UNL     1       2.654   5.369  17.905  0.00  0.00    +0.000 N 
ATOM     24  H   UNL     1       2.052   5.704  17.162  0.00  0.00    +0.000 HD
BRANCH  23  25
ATOM     25  C   UNL     1       3.323   4.099  17.710  0.00  0.00    +0.000 C 
BRANCH  25  26
ATOM     26  C   UNL     1       2.351   2.908  17.628  0.00  0.00    +0.000 C 
BRANCH  26  27
ATOM     27  N   UNL     1       2.058   2.352  18.957  0.00  0.00    +0.000 NA
ATOM     28  C   UNL     1       0.832   2.869  19.568  0.00  0.00    +0.000 C 
ATOM     29  C   UNL     1       1.243   3.514  20.876  0.00  0.00    +0.000 C 
ATOM     30  C   UNL     1       2.514   2.787  21.247  0.00  0.00    +0.000 C 
ATOM     31  C   UNL     1       3.168   2.520  19.902  0.00  0.00    +0.000 C 
ENDBRANCH  26  27
ENDBRANCH  25  26
ENDBRANCH  23  25
ENDBRANCH   1  22
TORSDOF 6
ENDMDL
MODEL 2
REMARK VINA RESULT:      -8.2      1.004      1.066
REMARK  Name = 
REMARK  6 active torsions:
REMARK  status: ('A' for Active; 'I' for Inactive)
REMARK    1  A    between atoms: C_2  and  C_11
REMARK    2  A    between atoms: N_3  and  C_4
REMARK    3  A    between atoms: C_4  and  C_5
REMARK    4  A    between atoms: C_5  and  N_6
REMARK    5  A    between atoms: C_15  and  C_16
REMARK    6  A    between atoms: C_22  and  C_23
REMARK                            x       y       z     vdW  Elec       q    Type
REMARK                         _______ _______ _______ _____ _____    ______ ____
ROOT
ATOM      1  C   UNL     1       2.730   7.085  18.847  0.00  0.00    +0.000 A 
ATOM      2  C   UNL     1       2.855   7.857  17.690  0.00  0.00    +0.000 A 
ATOM      3  C   UNL     1       2.207   9.087  17.606  0.00  0.00    +0.000 A 
ATOM      4  C   UNL     1       1.437   9.545  18.680  0.00  0.00    +0.000 A 
ATOM      5  C   UNL     1       1.308   8.787  19.855  0.00  0.00    +0.000 A 
ATOM      6  C   UNL     1       1.979   7.560  19.928  0.00  0.00    +0.000 A 
ENDROOT
BRANCH   5   7
ATOM      7  C   UNL     1       0.530   9.300  20.989  0.00  0.00    +0.000 A 
ATOM      8  C   UNL     1      -0.112   8.613  22.007  0.00  0.00    +0.000 A 
ATOM      9  N   UNL     1      -0.763   9.450  22.872  0.00  0.00    +0.000 NA
ATOM     10  C   UNL     1      -0.532  10.656  22.407  0.00  0.00    +0.000 A 
ATOM     11  C   UNL     1      -0.970  11.912  22.872  0.00  0.00    +0.000 A 
ATOM     12  C   UNL     1      -0.582  13.019  22.234  0.00  0.00    +0.000 A 
ATOM     13  C   UNL     1       0.316  12.871  21.044  0.00  0.00    +0.000 A 
ATOM     14  N   UNL     1       0.716  11.727  20.570  0.00  0.00    +0.000 NA
ATOM     15  N   UNL     1       0.265  10.635  21.271  0.00  0.00    +0.000 N 
BRANCH  13  16
ATOM     16  C   UNL     1       0.743  14.104  20.392  0.00  0.00    +0.000 A 
ATOM     17  C   UNL     1       0.908  14.357  19.040  0.00  0.00    +0.000 A 
ATOM     18  C   UNL     1       1.395  15.671  18.780  0.00  0.00    +0.000 A 
ATOM     19  C   UNL     1       1.579  16.388  19.939  0.00  0.00    +0.000 A 
ATOM     20  S   UNL     1       1.138  15.490  21.326  0.00  0.00    +0.000 S 
ENDBRANCH  13  16
ENDBRANCH   5   7
BRANCH   1  22
ATOM     21  O   UNL     1       4.355   5.613  19.693  0.00  0.00    +0.000 OA
ATOM     22  C   UNL     1       3.421   5.774  18.913  0.00  0.00    +0.000 C 
ATOM     23  N   UNL     1       2.976   4.812  18.033  0.00  0.00    +0.000 N 
ATOM     24  H   UNL     1       2.290   5.054  17.329  0.00  0.00    +0.000 HD
BRANCH  23  25
ATOM     25  C   UNL     1       3.647   3.534  17.910  0.00  0.00    +0.000 C 
BRANCH  25  26
ATOM     26  C   UNL     1       2.680   2.336  17.922  0.00  0.00    +0.000 C 
BRANCH  26  27
ATOM     27  N   UNL     1       2.179   2.056  19.274  0.00  0.00    +0.000 NA
ATOM     28  C   UNL     1       0.885   2.671  19.576  0.00  0.00    +0.000 C 
ATOM     29  C   UNL     1       1.106   3.570  20.775  0.00  0.00    +0.000 C 
ATOM     30  C   UNL     1       2.292   2.945  21.474  0.00  0.00    +0.000 C 
ATOM     31  C   UNL     1       3.136   2.421  20.325  0.00  0.00    +0.000 C 
ENDBRANCH  26  27
ENDBRANCH  25  26
ENDBRANCH  23  25
ENDBRANCH   1  22
TORSDOF 6
ENDMDL
MODEL 3
REMARK VINA RESULT:      -8.1      1.153      1.416
REMARK  Name = 
REMARK  6 active torsions:
REMARK  status: ('A' for Active; 'I' for Inactive)
REMARK    1  A    between atoms: C_2  and  C_11
REMARK    2  A    between atoms: N_3  and  C_4
REMARK    3  A    between atoms: C_4  and  C_5
REMARK    4  A    between atoms: C_5  and  N_6
REMARK    5  A    between atoms: C_15  and  C_16
REMARK    6  A    between atoms: C_22  and  C_23
REMARK                            x       y       z     vdW  Elec       q    Type
REMARK                         _______ _______ _______ _____ _____    ______ ____
ROOT
ATOM      1  C   UNL     1       2.172   7.457  19.482  0.00  0.00    +0.000 A 
ATOM      2  C   UNL     1       2.227   8.033  18.212  0.00  0.00    +0.000 A 
ATOM      3  C   UNL     1       1.598   9.253  17.977  0.00  0.00    +0.000 A 
ATOM      4  C   UNL     1       0.915   9.897  19.015  0.00  0.00    +0.000 A 
ATOM      5  C   UNL     1       0.857   9.337  20.302  0.00  0.00    +0.000 A 
ATOM      6  C   UNL     1       1.508   8.118  20.523  0.00  0.00    +0.000 A 
ENDROOT
BRANCH   5   7
ATOM      7  C   UNL     1       0.171  10.045  21.389  0.00  0.00    +0.000 A 
ATOM      8  C   UNL     1      -0.481   9.539  22.503  0.00  0.00    +0.000 A 
ATOM      9  N   UNL     1      -1.025  10.525  23.281  0.00  0.00    +0.000 NA
ATOM     10  C   UNL     1      -0.718  11.644  22.666  0.00  0.00    +0.000 A 
ATOM     11  C   UNL     1      -1.033  12.978  22.989  0.00  0.00    +0.000 A 
ATOM     12  C   UNL     1      -0.584  13.965  22.210  0.00  0.00    +0.000 A 
ATOM     13  C   UNL     1       0.247  13.602  21.018  0.00  0.00    +0.000 A 
ATOM     14  N   UNL     1       0.534  12.380  20.674  0.00  0.00    +0.000 NA
ATOM     15  N   UNL     1       0.026  11.421  21.516  0.00  0.00    +0.000 N 
BRANCH  13  16
ATOM     16  C   UNL     1       0.745  14.708  20.208  0.00  0.00    +0.000 A 
ATOM     17  C   UNL     1       0.336  16.032  20.204  0.00  0.00    +0.000 A 
ATOM     18  C   UNL     1       1.020  16.818  19.231  0.00  0.00    +0.000 A 
ATOM     19  C   UNL     1       1.939  16.076  18.527  0.00  0.00    +0.000 A 
ATOM     20  S   UNL     1       1.994  14.451  19.058  0.00  0.00    +0.000 S 
ENDBRANCH  13  16
ENDBRANCH   5   7
BRANCH   1  22
ATOM     21  O   UNL     1       2.429   5.397  20.583  0.00  0.00    +0.000 OA
ATOM     22  C   UNL     1       2.841   6.153  19.709  0.00  0.00    +0.000 C 
ATOM     23  N   UNL     1       3.943   5.895  18.923  0.00  0.00    +0.000 N 
ATOM     24  H   UNL     1       4.305   6.618  18.313  0.00  0.00    +0.000 HD
BRANCH  23  25
ATOM     25  C   UNL     1       4.759   4.716  19.131  0.00  0.00    +0.000 C 
BRANCH  25  26
ATOM     26  C   UNL     1       4.828   3.799  17.896  0.00  0.00    +0.000 C 
BRANCH  26  27
ATOM     27  N   UNL     1       3.786   2.763  17.930  0.00  0.00    +0.000 NA
ATOM     28  C   UNL     1       2.542   3.139  17.256  0.00  0.00    +0.000 C 
ATOM     29  C   UNL     1       1.447   3.059  18.300  0.00  0.00    +0.000 C 
ATOM     30  C   UNL     1       1.977   2.051  19.293  0.00  0.00    +0.000 C 
ATOM     31  C   UNL     1       3.473   2.313  19.291  0.00  0.00    +0.000 C 
ENDBRANCH  26  27
ENDBRANCH  25  26
ENDBRANCH  23  25
ENDBRANCH   1  22
TORSDOF 6
ENDMDL
MODEL 4
REMARK VINA RESULT:      -8.0      1.445      2.221
REMARK  Name = 
REMARK  6 active torsions:
REMARK  status: ('A' for Active; 'I' for Inactive)
REMARK    1  A    between atoms: C_2  and  C_11
REMARK    2  A    between atoms: N_3  and  C_4
REMARK    3  A    between atoms: C_4  and  C_5
REMARK    4  A    between atoms: C_5  and  N_6
REMARK    5  A    between atoms: C_15  and  C_16
REMARK    6  A    between atoms: C_22  and  C_23
REMARK                            x       y       z     vdW  Elec       q    Type
REMARK                         _______ _______ _______ _____ _____    ______ ____
ROOT
ATOM      1  C   UNL     1       2.200   7.372  19.582  0.00  0.00    +0.000 A 
ATOM      2  C   UNL     1       2.311   7.712  18.232  0.00  0.00    +0.000 A 
ATOM      3  C   UNL     1       1.784   8.917  17.777  0.00  0.00    +0.000 A 
ATOM      4  C   UNL     1       1.148   9.784  18.672  0.00  0.00    +0.000 A 
ATOM      5  C   UNL     1       1.036   9.464  20.035  0.00  0.00    +0.000 A 
ATOM      6  C   UNL     1       1.585   8.255  20.478  0.00  0.00    +0.000 A 
ENDROOT
BRANCH   5   7
ATOM      7  C   UNL     1       0.402  10.403  20.969  0.00  0.00    +0.000 A 
ATOM      8  C   UNL     1      -0.405  10.150  22.067  0.00  0.00    +0.000 A 
ATOM      9  N   UNL     1      -0.829  11.300  22.677  0.00  0.00    +0.000 NA
ATOM     10  C   UNL     1      -0.293  12.269  21.972  0.00  0.00    +0.000 A 
ATOM     11  C   UNL     1      -0.401  13.667  22.114  0.00  0.00    +0.000 A 
ATOM     12  C   UNL     1       0.264  14.465  21.275  0.00  0.00    +0.000 A 
ATOM     13  C   UNL     1       1.107  13.828  20.213  0.00  0.00    +0.000 A 
ATOM     14  N   UNL     1       1.206  12.542  20.035  0.00  0.00    +0.000 NA
ATOM     15  N   UNL     1       0.484  11.789  20.928  0.00  0.00    +0.000 N 
BRANCH  13  16
ATOM     16  C   UNL     1       1.842  14.730  19.335  0.00  0.00    +0.000 A 
ATOM     17  C   UNL     1       1.502  16.009  18.926  0.00  0.00    +0.000 A 
ATOM     18  C   UNL     1       2.447  16.567  18.016  0.00  0.00    +0.000 A 
ATOM     19  C   UNL     1       3.486  15.703  17.763  0.00  0.00    +0.000 A 
ATOM     20  S   UNL     1       3.336  14.244  18.641  0.00  0.00    +0.000 S 
ENDBRANCH  13  16
ENDBRANCH   5   7
BRANCH   1  22
ATOM     21  O   UNL     1       3.839   5.688  19.612  0.00  0.00    +0.000 OA
ATOM     22  C   UNL     1       2.760   6.079  20.046  0.00  0.00    +0.000 C 
ATOM     23  N   UNL     1       1.980   5.366  20.930  0.00  0.00    +0.000 N 
ATOM     24  H   UNL     1       1.044   5.686  21.145  0.00  0.00    +0.000 HD
BRANCH  23  25
ATOM     25  C   UNL     1       2.354   4.034  21.360  0.00  0.00    +0.000 C 
BRANCH  25  26
ATOM     26  C   UNL     1       1.371   2.946  20.890  0.00  0.00    +0.000 C 
BRANCH  26  27
ATOM     27  N   UNL     1       1.849   2.268  19.677  0.00  0.00    +0.000 NA
ATOM     28  C   UNL     1       3.306   2.171  19.577  0.00  0.00    +0.000 C 
ATOM     29  C   UNL     1       3.698   2.881  18.297  0.00  0.00    +0.000 C 
ATOM     30  C   UNL     1       2.460   2.770  17.437  0.00  0.00    +0.000 C 
ATOM     31  C   UNL     1       1.327   2.869  18.445  0.00  0.00    +0.000 C 
ENDBRANCH  26  27
ENDBRANCH  25  26
ENDBRANCH  23  25
ENDBRANCH   1  22
TORSDOF 6
ENDMDL
MODEL 5
REMARK VINA RESULT:      -8.0      4.830      8.508
REMARK  Name = 
REMARK  6 active torsions:
REMARK  status: ('A' for Active; 'I' for Inactive)
REMARK    1  A    between atoms: C_2  and  C_11
REMARK    2  A    between atoms: N_3  and  C_4
REMARK    3  A    between atoms: C_4  and  C_5
REMARK    4  A    between atoms: C_5  and  N_6
REMARK    5  A    between atoms: C_15  and  C_16
REMARK    6  A    between atoms: C_22  and  C_23
REMARK                            x       y       z     vdW  Elec       q    Type
REMARK                         _______ _______ _______ _____ _____    ______ ____
ROOT
ATOM      1  C   UNL     1       6.958   6.156  17.475  0.00  0.00    +0.000 A 
ATOM      2  C   UNL     1       7.069   6.038  16.089  0.00  0.00    +0.000 A 
ATOM      3  C   UNL     1       6.217   5.181  15.397  0.00  0.00    +0.000 A 
ATOM      4  C   UNL     1       5.252   4.444  16.093  0.00  0.00    +0.000 A 
ATOM      5  C   UNL     1       5.120   4.558  17.487  0.00  0.00    +0.000 A 
ATOM      6  C   UNL     1       5.975   5.436  18.164  0.00  0.00    +0.000 A 
ENDROOT
BRANCH   5   7
ATOM      7  C   UNL     1       4.076   3.808  18.197  0.00  0.00    +0.000 A 
ATOM      8  C   UNL     1       3.858   2.442  18.265  0.00  0.00    +0.000 A 
ATOM      9  N   UNL     1       2.756   2.126  19.012  0.00  0.00    +0.000 NA
ATOM     10  C   UNL     1       2.283   3.282  19.415  0.00  0.00    +0.000 A 
ATOM     11  C   UNL     1       1.147   3.582  20.193  0.00  0.00    +0.000 A 
ATOM     12  C   UNL     1       0.877   4.855  20.496  0.00  0.00    +0.000 A 
ATOM     13  C   UNL     1       1.808   5.914  19.991  0.00  0.00    +0.000 A 
ATOM     14  N   UNL     1       2.849   5.676  19.246  0.00  0.00    +0.000 NA
ATOM     15  N   UNL     1       3.053   4.346  18.968  0.00  0.00    +0.000 N 
BRANCH  13  16
ATOM     16  C   UNL     1       1.497   7.288  20.367  0.00  0.00    +0.000 A 
ATOM     17  C   UNL     1       1.049   7.774  21.584  0.00  0.00    +0.000 A 
ATOM     18  C   UNL     1       0.800   9.177  21.561  0.00  0.00    +0.000 A 
ATOM     19  C   UNL     1       1.073   9.726  20.330  0.00  0.00    +0.000 A 
ATOM     20  S   UNL     1       1.654   8.560  19.222  0.00  0.00    +0.000 S 
ENDBRANCH  13  16
ENDBRANCH   5   7
BRANCH   1  22
ATOM     21  O   UNL     1       8.519   6.658  19.159  0.00  0.00    +0.000 OA
ATOM     22  C   UNL     1       7.881   7.068  18.195  0.00  0.00    +0.000 C 
ATOM     23  N   UNL     1       7.925   8.367  17.737  0.00  0.00    +0.000 N 
ATOM     24  H   UNL     1       7.276   8.669  17.020  0.00  0.00    +0.000 HD
BRANCH  23  25
ATOM     25  C   UNL     1       8.689   9.385  18.428  0.00  0.00    +0.000 C 
BRANCH  25  26
ATOM     26  C   UNL     1       8.426  10.806  17.898  0.00  0.00    +0.000 C 
BRANCH  26  27
ATOM     27  N   UNL     1       9.544  11.712  18.194  0.00  0.00    +0.000 NA
ATOM     28  C   UNL     1      10.566  11.140  19.073  0.00  0.00    +0.000 C 
ATOM     29  C   UNL     1      10.640  12.039  20.289  0.00  0.00    +0.000 C 
ATOM     30  C   UNL     1      10.164  13.377  19.771  0.00  0.00    +0.000 C 
ATOM     31  C   UNL     1       9.105  12.997  18.750  0.00  0.00    +0.000 C 
ENDBRANCH  26  27
ENDBRANCH  25  26
ENDBRANCH  23  25
ENDBRANCH   1  22
TORSDOF 6
ENDMDL
MODEL 6
REMARK VINA RESULT:      -7.9      3.996      9.580
REMARK  Name = 
REMARK  6 active torsions:
REMARK  status: ('A' for Active; 'I' for Inactive)
REMARK    1  A    between atoms: C_2  and  C_11
REMARK    2  A    between atoms: N_3  and  C_4
REMARK    3  A    between atoms: C_4  and  C_5
REMARK    4  A    between atoms: C_5  and  N_6
REMARK    5  A    between atoms: C_15  and  C_16
REMARK    6  A    between atoms: C_22  and  C_23
REMARK                            x       y       z     vdW  Elec       q    Type
REMARK                         _______ _______ _______ _____ _____    ______ ____
ROOT
ATOM      1  C   UNL     1      -1.229  11.058  22.167  0.00  0.00    +0.000 A 
ATOM      2  C   UNL     1      -0.882  10.347  23.317  0.00  0.00    +0.000 A 
ATOM      3  C   UNL     1       0.135   9.397  23.263  0.00  0.00    +0.000 A 
ATOM      4  C   UNL     1       0.806   9.162  22.058  0.00  0.00    +0.000 A 
ATOM      5  C   UNL     1       0.477   9.875  20.894  0.00  0.00    +0.000 A 
ATOM      6  C   UNL     1      -0.537  10.836  20.971  0.00  0.00    +0.000 A 
ENDROOT
BRANCH   5   7
ATOM      7  C   UNL     1       1.219   9.644  19.648  0.00  0.00    +0.000 A 
ATOM      8  C   UNL     1       1.494  10.516  18.607  0.00  0.00    +0.000 A 
ATOM      9  N   UNL     1       2.196   9.917  17.596  0.00  0.00    +0.000 NA
ATOM     10  C   UNL     1       2.365   8.678  17.996  0.00  0.00    +0.000 A 
ATOM     11  C   UNL     1       2.993   7.591  17.357  0.00  0.00    +0.000 A 
ATOM     12  C   UNL     1       3.060   6.413  17.981  0.00  0.00    +0.000 A 
ATOM     13  C   UNL     1       2.461   6.303  19.349  0.00  0.00    +0.000 A 
ATOM     14  N   UNL     1       1.848   7.277  19.957  0.00  0.00    +0.000 NA
ATOM     15  N   UNL     1       1.809   8.452  19.247  0.00  0.00    +0.000 N 
BRANCH  13  16
ATOM     16  C   UNL     1       2.579   5.009  20.012  0.00  0.00    +0.000 A 
ATOM     17  C   UNL     1       1.874   4.525  21.101  0.00  0.00    +0.000 A 
ATOM     18  C   UNL     1       2.305   3.228  21.505  0.00  0.00    +0.000 A 
ATOM     19  C   UNL     1       3.320   2.753  20.708  0.00  0.00    +0.000 A 
ATOM     20  S   UNL     1       3.727   3.853  19.464  0.00  0.00    +0.000 S 
ENDBRANCH  13  16
ENDBRANCH   5   7
BRANCH   1  22
ATOM     21  O   UNL     1      -2.810  12.350  23.331  0.00  0.00    +0.000 OA
ATOM     22  C   UNL     1      -2.322  12.059  22.244  0.00  0.00    +0.000 C 
ATOM     23  N   UNL     1      -2.753  12.575  21.041  0.00  0.00    +0.000 N 
ATOM     24  H   UNL     1      -2.396  12.194  20.173  0.00  0.00    +0.000 HD
BRANCH  23  25
ATOM     25  C   UNL     1      -3.895  13.463  20.968  0.00  0.00    +0.000 C 
BRANCH  25  26
ATOM     26  C   UNL     1      -5.216  12.731  20.668  0.00  0.00    +0.000 C 
BRANCH  26  27
ATOM     27  N   UNL     1      -6.313  13.219  21.514  0.00  0.00    +0.000 NA
ATOM     28  C   UNL     1      -5.877  13.821  22.776  0.00  0.00    +0.000 C 
ATOM     29  C   UNL     1      -6.528  13.016  23.883  0.00  0.00    +0.000 C 
ATOM     30  C   UNL     1      -7.766  12.448  23.228  0.00  0.00    +0.000 C 
ATOM     31  C   UNL     1      -7.315  12.186  21.801  0.00  0.00    +0.000 C 
ENDBRANCH  26  27
ENDBRANCH  25  26
ENDBRANCH  23  25
ENDBRANCH   1  22
TORSDOF 6
ENDMDL
MODEL 7
REMARK VINA RESULT:      -7.8      3.251      9.420
REMARK  Name = 
REMARK  6 active torsions:
REMARK  status: ('A' for Active; 'I' for Inactive)
REMARK    1  A    between atoms: C_2  and  C_11
REMARK    2  A    between atoms: N_3  and  C_4
REMARK    3  A    between atoms: C_4  and  C_5
REMARK    4  A    between atoms: C_5  and  N_6
REMARK    5  A    between atoms: C_15  and  C_16
REMARK    6  A    between atoms: C_22  and  C_23
REMARK                            x       y       z     vdW  Elec       q    Type
REMARK                         _______ _______ _______ _____ _____    ______ ____
ROOT
ATOM      1  C   UNL     1       1.141   9.874  19.867  0.00  0.00    +0.000 A 
ATOM      2  C   UNL     1       1.413  10.219  18.541  0.00  0.00    +0.000 A 
ATOM      3  C   UNL     1       1.950   9.268  17.676  0.00  0.00    +0.000 A 
ATOM      4  C   UNL     1       2.212   7.974  18.137  0.00  0.00    +0.000 A 
ATOM      5  C   UNL     1       1.935   7.606  19.464  0.00  0.00    +0.000 A 
ATOM      6  C   UNL     1       1.381   8.570  20.315  0.00  0.00    +0.000 A 
ENDROOT
BRANCH   5   7
ATOM      7  C   UNL     1       2.178   6.233  19.920  0.00  0.00    +0.000 A 
ATOM      8  C   UNL     1       1.631   5.546  20.993  0.00  0.00    +0.000 A 
ATOM      9  N   UNL     1       2.133   4.278  21.111  0.00  0.00    +0.000 NA
ATOM     10  C   UNL     1       2.986   4.163  20.120  0.00  0.00    +0.000 A 
ATOM     11  C   UNL     1       3.821   3.088  19.755  0.00  0.00    +0.000 A 
ATOM     12  C   UNL     1       4.600   3.200  18.676  0.00  0.00    +0.000 A 
ATOM     13  C   UNL     1       4.546   4.477  17.894  0.00  0.00    +0.000 A 
ATOM     14  N   UNL     1       3.810   5.500  18.219  0.00  0.00    +0.000 NA
ATOM     15  N   UNL     1       3.047   5.313  19.346  0.00  0.00    +0.000 N 
BRANCH  13  16
ATOM     16  C   UNL     1       5.389   4.550  16.707  0.00  0.00    +0.000 A 
ATOM     17  C   UNL     1       5.109   4.128  15.418  0.00  0.00    +0.000 A 
ATOM     18  C   UNL     1       6.204   4.315  14.525  0.00  0.00    +0.000 A 
ATOM     19  C   UNL     1       7.286   4.884  15.154  0.00  0.00    +0.000 A 
ATOM     20  S   UNL     1       6.970   5.216  16.801  0.00  0.00    +0.000 S 
ENDBRANCH  13  16
ENDBRANCH   5   7
BRANCH   1  22
ATOM     21  O   UNL     1       1.325  11.694  21.342  0.00  0.00    +0.000 OA
ATOM     22  C   UNL     1       0.578  10.904  20.775  0.00  0.00    +0.000 C 
ATOM     23  N   UNL     1      -0.788  10.868  20.954  0.00  0.00    +0.000 N 
ATOM     24  H   UNL     1      -1.327  10.108  20.557  0.00  0.00    +0.000 HD
BRANCH  23  25
ATOM     25  C   UNL     1      -1.445  11.735  21.910  0.00  0.00    +0.000 C 
BRANCH  25  26
ATOM     26  C   UNL     1      -2.481  12.674  21.265  0.00  0.00    +0.000 C 
BRANCH  26  27
ATOM     27  N   UNL     1      -3.304  13.353  22.276  0.00  0.00    +0.000 NA
ATOM     28  C   UNL     1      -2.864  13.132  23.656  0.00  0.00    +0.000 C 
ATOM     29  C   UNL     1      -4.031  12.492  24.381  0.00  0.00    +0.000 C 
ATOM     30  C   UNL     1      -5.236  12.966  23.602  0.00  0.00    +0.000 C 
ATOM     31  C   UNL     1      -4.728  13.017  22.171  0.00  0.00    +0.000 C 
ENDBRANCH  26  27
ENDBRANCH  25  26
ENDBRANCH  23  25
ENDBRANCH   1  22
TORSDOF 6
ENDMDL
MODEL 8
REMARK VINA RESULT:      -7.8      2.027      2.990
REMARK  Name = 
REMARK  6 active torsions:
REMARK  status: ('A' for Active; 'I' for Inactive)
REMARK    1  A    between atoms: C_2  and  C_11
REMARK    2  A    between atoms: N_3  and  C_4
REMARK    3  A    between atoms: C_4  and  C_5
REMARK    4  A    between atoms: C_5  and  N_6
REMARK    5  A    between atoms: C_15  and  C_16
REMARK    6  A    between atoms: C_22  and  C_23
REMARK                            x       y       z     vdW  Elec       q    Type
REMARK                         _______ _______ _______ _____ _____    ______ ____
ROOT
ATOM      1  C   UNL     1       2.212   7.433  19.367  0.00  0.00    +0.000 A 
ATOM      2  C   UNL     1       2.243   8.060  18.119  0.00  0.00    +0.000 A 
ATOM      3  C   UNL     1       1.590   9.277  17.942  0.00  0.00    +0.000 A 
ATOM      4  C   UNL     1       0.910   9.868  19.012  0.00  0.00    +0.000 A 
ATOM      5  C   UNL     1       0.878   9.256  20.276  0.00  0.00    +0.000 A 
ATOM      6  C   UNL     1       1.552   8.040  20.441  0.00  0.00    +0.000 A 
ENDROOT
BRANCH   5   7
ATOM      7  C   UNL     1       0.194   9.909  21.399  0.00  0.00    +0.000 A 
ATOM      8  C   UNL     1      -0.351   9.355  22.547  0.00  0.00    +0.000 A 
ATOM      9  N   UNL     1      -0.933  10.295  23.354  0.00  0.00    +0.000 NA
ATOM     10  C   UNL     1      -0.756  11.433  22.723  0.00  0.00    +0.000 A 
ATOM     11  C   UNL     1      -1.165  12.737  23.063  0.00  0.00    +0.000 A 
ATOM     12  C   UNL     1      -0.844  13.755  22.260  0.00  0.00    +0.000 A 
ATOM     13  C   UNL     1      -0.050  13.458  21.025  0.00  0.00    +0.000 A 
ATOM     14  N   UNL     1       0.319  12.263  20.665  0.00  0.00    +0.000 NA
ATOM     15  N   UNL     1      -0.059  11.269  21.534  0.00  0.00    +0.000 N 
BRANCH  13  16
ATOM     16  C   UNL     1       0.307  14.599  20.189  0.00  0.00    +0.000 A 
ATOM     17  C   UNL     1      -0.412  15.173  19.154  0.00  0.00    +0.000 A 
ATOM     18  C   UNL     1       0.286  16.247  18.527  0.00  0.00    +0.000 A 
ATOM     19  C   UNL     1       1.513  16.469  19.108  0.00  0.00    +0.000 A 
ATOM     20  S   UNL     1       1.805  15.409  20.416  0.00  0.00    +0.000 S 
ENDBRANCH  13  16
ENDBRANCH   5   7
BRANCH   1  22
ATOM     21  O   UNL     1       2.582   5.378  20.445  0.00  0.00    +0.000 OA
ATOM     22  C   UNL     1       2.906   6.131  19.533  0.00  0.00    +0.000 C 
ATOM     23  N   UNL     1       3.928   5.874  18.646  0.00  0.00    +0.000 N 
ATOM     24  H   UNL     1       4.228   6.596  18.001  0.00  0.00    +0.000 HD
BRANCH  23  25
ATOM     25  C   UNL     1       4.765   4.700  18.779  0.00  0.00    +0.000 C 
BRANCH  25  26
ATOM     26  C   UNL     1       5.432   4.276  17.458  0.00  0.00    +0.000 C 
BRANCH  26  27
ATOM     27  N   UNL     1       6.650   5.052  17.190  0.00  0.00    +0.000 NA
ATOM     28  C   UNL     1       7.654   4.981  18.254  0.00  0.00    +0.000 C 
ATOM     29  C   UNL     1       7.884   6.403  18.723  0.00  0.00    +0.000 C 
ATOM     30  C   UNL     1       7.519   7.239  17.517  0.00  0.00    +0.000 C 
ATOM     31  C   UNL     1       6.374   6.462  16.890  0.00  0.00    +0.000 C 
ENDBRANCH  26  27
ENDBRANCH  25  26
ENDBRANCH  23  25
ENDBRANCH   1  22
TORSDOF 6
ENDMDL
MODEL 9
REMARK VINA RESULT:      -7.8      3.902      4.834
REMARK  Name = 
REMARK  6 active torsions:
REMARK  status: ('A' for Active; 'I' for Inactive)
REMARK    1  A    between atoms: C_2  and  C_11
REMARK    2  A    between atoms: N_3  and  C_4
REMARK    3  A    between atoms: C_4  and  C_5
REMARK    4  A    between atoms: C_5  and  N_6
REMARK    5  A    between atoms: C_15  and  C_16
REMARK    6  A    between atoms: C_22  and  C_23
REMARK                            x       y       z     vdW  Elec       q    Type
REMARK                         _______ _______ _______ _____ _____    ______ ____
ROOT
ATOM      1  C   UNL     1       0.819   9.625  18.807  0.00  0.00    +0.000 A 
ATOM      2  C   UNL     1       0.945  10.241  20.054  0.00  0.00    +0.000 A 
ATOM      3  C   UNL     1      -0.037  11.126  20.490  0.00  0.00    +0.000 A 
ATOM      4  C   UNL     1      -1.147  11.392  19.680  0.00  0.00    +0.000 A 
ATOM      5  C   UNL     1      -1.295  10.775  18.427  0.00  0.00    +0.000 A 
ATOM      6  C   UNL     1      -0.305   9.876  18.011  0.00  0.00    +0.000 A 
ENDROOT
BRANCH   5   7
ATOM      7  C   UNL     1      -2.484  11.035  17.608  0.00  0.00    +0.000 A 
ATOM      8  C   UNL     1      -2.686  10.835  16.251  0.00  0.00    +0.000 A 
ATOM      9  N   UNL     1      -3.933  11.229  15.846  0.00  0.00    +0.000 NA
ATOM     10  C   UNL     1      -4.514  11.671  16.937  0.00  0.00    +0.000 A 
ATOM     11  C   UNL     1      -5.796  12.225  17.126  0.00  0.00    +0.000 A 
ATOM     12  C   UNL     1      -6.178  12.588  18.353  0.00  0.00    +0.000 A 
ATOM     13  C   UNL     1      -5.216  12.382  19.483  0.00  0.00    +0.000 A 
ATOM     14  N   UNL     1      -4.016  11.901  19.340  0.00  0.00    +0.000 NA
ATOM     15  N   UNL     1      -3.692  11.563  18.049  0.00  0.00    +0.000 N 
BRANCH  13  16
ATOM     16  C   UNL     1      -5.680  12.763  20.812  0.00  0.00    +0.000 A 
ATOM     17  C   UNL     1      -6.970  13.043  21.233  0.00  0.00    +0.000 A 
ATOM     18  C   UNL     1      -7.031  13.436  22.602  0.00  0.00    +0.000 A 
ATOM     19  C   UNL     1      -5.789  13.435  23.191  0.00  0.00    +0.000 A 
ATOM     20  S   UNL     1      -4.565  12.935  22.107  0.00  0.00    +0.000 S 
ENDBRANCH  13  16
ENDBRANCH   5   7
BRANCH   1  22
ATOM     21  O   UNL     1       2.391   8.834  17.250  0.00  0.00    +0.000 OA
ATOM     22  C   UNL     1       1.881   8.692  18.356  0.00  0.00    +0.000 C 
ATOM     23  N   UNL     1       2.198   7.673  19.227  0.00  0.00    +0.000 N 
ATOM     24  H   UNL     1       1.647   7.539  20.066  0.00  0.00    +0.000 HD
BRANCH  23  25
ATOM     25  C   UNL     1       3.126   6.624  18.855  0.00  0.00    +0.000 C 
BRANCH  25  26
ATOM     26  C   UNL     1       2.439   5.407  18.209  0.00  0.00    +0.000 C 
BRANCH  26  27
ATOM     27  N   UNL     1       2.550   4.209  19.052  0.00  0.00    +0.000 NA
ATOM     28  C   UNL     1       1.527   3.194  18.792  0.00  0.00    +0.000 C 
ATOM     29  C   UNL     1       0.781   2.992  20.095  0.00  0.00    +0.000 C 
ATOM     30  C   UNL     1       1.791   3.387  21.147  0.00  0.00    +0.000 C 
ATOM     31  C   UNL     1       2.557   4.520  20.486  0.00  0.00    +0.000 C 
ENDBRANCH  26  27
ENDBRANCH  25  26
ENDBRANCH  23  25
ENDBRANCH   1  22
TORSDOF 6
ENDMDL
