MODEL 1
REMARK VINA RESULT:      -8.8      0.000      0.000
REMARK  Name = 
REMARK  6 active torsions:
REMARK  status: ('A' for Active; 'I' for Inactive)
REMARK    1  A    between atoms: C_1  and  C_2
REMARK    2  A    between atoms: C_2  and  C_3
REMARK    3  A    between atoms: C_6  and  C_7
REMARK    4  A    between atoms: C_7  and  N_8
REMARK    5  A    between atoms: N_8  and  C_9
REMARK    6  A    between atoms: C_11  and  C_12
REMARK                            x       y       z     vdW  Elec       q    Type
REMARK                         _______ _______ _______ _____ _____    ______ ____
ROOT
ATOM      1  C   UNL     1       4.403   5.286  18.202  0.00  0.00    +0.000 A 
ATOM      2  N   UNL     1       3.952   6.538  18.406  0.00  0.00    +0.000 NA
ATOM      3  C   UNL     1       2.619   6.716  18.437  0.00  0.00    +0.000 A 
ATOM      4  N   UNL     1       1.721   5.743  18.222  0.00  0.00    +0.000 NA
ATOM      5  C   UNL     1       2.192   4.503  17.996  0.00  0.00    +0.000 A 
ATOM      6  C   UNL     1       3.545   4.208  18.015  0.00  0.00    +0.000 A 
ATOM      7  C   UNL     1       4.023   2.791  17.822  0.00  0.00    +0.000 C 
ATOM      8  C   UNL     1       3.545   1.854  18.942  0.00  0.00    +0.000 C 
ATOM      9  N   UNL     1       2.167   1.372  18.796  0.00  0.00    +0.000 NA
ATOM     10  C   UNL     1       1.151   2.424  18.922  0.00  0.00    +0.000 C 
ATOM     11  C   UNL     1       1.160   3.433  17.774  0.00  0.00    +0.000 C 
ATOM     12  H   UNL     1       1.993   0.674  19.523  0.00  0.00    +0.000 HD
ENDROOT
BRANCH   3  13
ATOM     13  C   UNL     1       2.089   8.039  18.795  0.00  0.00    +0.000 A 
ATOM     14  C   UNL     1       2.074   9.111  17.885  0.00  0.00    +0.000 A 
ATOM     15  C   UNL     1       1.554  10.354  18.246  0.00  0.00    +0.000 A 
ATOM     16  C   UNL     1       1.050  10.502  19.524  0.00  0.00    +0.000 A 
ATOM     17  N   UNL     1       1.029   9.509  20.436  0.00  0.00    +0.000 NA
ATOM     18  C   UNL     1       1.545   8.311  20.048  0.00  0.00    +0.000 A 
ENDBRANCH   3  13
BRANCH   1  19
ATOM     19  N   UNL     1       5.779   5.045  18.244  0.00  0.00    +0.000 N 
ATOM     20  H   UNL     1       6.095   5.072  19.213  0.00  0.00    +0.000 HD
BRANCH  19  21
ATOM     21  C   UNL     1       6.630   5.882  17.400  0.00  0.00    +0.000 C 
BRANCH  21  25
ATOM     22  C   UNL     1       6.475   4.488  14.126  0.00  0.00    +0.000 A 
ATOM     23  N   UNL     1       7.578   5.232  13.968  0.00  0.00    +0.000 NA
ATOM     24  O   UNL     1       7.743   5.827  15.224  0.00  0.00    +0.000 OA
ATOM     25  C   UNL     1       6.721   5.365  16.003  0.00  0.00    +0.000 A 
ATOM     26  N   UNL     1       5.905   4.549  15.370  0.00  0.00    +0.000 NA
BRANCH  22  28
ATOM     27  C   UNL     1       6.868   3.558  11.862  0.00  0.00    +0.000 C 
ATOM     28  C   UNL     1       5.934   3.613  13.060  0.00  0.00    +0.000 C 
ENDBRANCH  22  28
ENDBRANCH  21  25
ENDBRANCH  19  21
ENDBRANCH   1  19
TORSDOF 5
ENDMDL
MODEL 2
REMARK VINA RESULT:      -8.6      2.465      7.251
REMARK  Name = 
REMARK  6 active torsions:
REMARK  status: ('A' for Active; 'I' for Inactive)
REMARK    1  A    between atoms: C_1  and  C_2
REMARK    2  A    between atoms: C_2  and  C_3
REMARK    3  A    between atoms: C_6  and  C_7
REMARK    4  A    between atoms: C_7  and  N_8
REMARK    5  A    between atoms: N_8  and  C_9
REMARK    6  A    between atoms: C_11  and  C_12
REMARK                            x       y       z     vdW  Elec       q    Type
REMARK                         _______ _______ _______ _____ _____    ______ ____
ROOT
ATOM      1  C   UNL     1       3.715   5.810  19.078  0.00  0.00    +0.000 A 
ATOM      2  N   UNL     1       4.566   5.848  18.035  0.00  0.00    +0.000 NA
ATOM      3  C   UNL     1       4.858   4.679  17.436  0.00  0.00    +0.000 A 
ATOM      4  N   UNL     1       4.405   3.484  17.846  0.00  0.00    +0.000 NA
ATOM      5  C   UNL     1       3.575   3.467  18.905  0.00  0.00    +0.000 A 
ATOM      6  C   UNL     1       3.161   4.623  19.543  0.00  0.00    +0.000 A 
ATOM      7  C   UNL     1       2.177   4.558  20.685  0.00  0.00    +0.000 C 
ATOM      8  C   UNL     1       0.810   4.006  20.250  0.00  0.00    +0.000 C 
ATOM      9  N   UNL     1       0.739   2.544  20.151  0.00  0.00    +0.000 NA
ATOM     10  C   UNL     1       1.571   1.977  19.083  0.00  0.00    +0.000 C 
ATOM     11  C   UNL     1       3.073   2.114  19.330  0.00  0.00    +0.000 C 
ATOM     12  H   UNL     1      -0.232   2.282  19.971  0.00  0.00    +0.000 HD
ENDROOT
BRANCH   3  13
ATOM     13  C   UNL     1       5.670   4.694  16.211  0.00  0.00    +0.000 A 
ATOM     14  C   UNL     1       5.294   3.986  15.055  0.00  0.00    +0.000 A 
ATOM     15  C   UNL     1       6.077   4.026  13.902  0.00  0.00    +0.000 A 
ATOM     16  C   UNL     1       7.231   4.785  13.925  0.00  0.00    +0.000 A 
ATOM     17  N   UNL     1       7.637   5.492  14.999  0.00  0.00    +0.000 NA
ATOM     18  C   UNL     1       6.849   5.428  16.106  0.00  0.00    +0.000 A 
ENDBRANCH   3  13
BRANCH   1  19
ATOM     19  N   UNL     1       3.321   7.011  19.677  0.00  0.00    +0.000 N 
ATOM     20  H   UNL     1       3.111   6.842  20.660  0.00  0.00    +0.000 HD
BRANCH  19  21
ATOM     21  C   UNL     1       2.237   7.752  19.036  0.00  0.00    +0.000 C 
BRANCH  21  25
ATOM     22  C   UNL     1       0.449   9.368  21.659  0.00  0.00    +0.000 A 
ATOM     23  N   UNL     1       0.330  10.323  20.727  0.00  0.00    +0.000 NA
ATOM     24  O   UNL     1       0.999   9.777  19.626  0.00  0.00    +0.000 OA
ATOM     25  C   UNL     1       1.440   8.546  20.018  0.00  0.00    +0.000 A 
ATOM     26  N   UNL     1       1.139   8.253  21.265  0.00  0.00    +0.000 NA
BRANCH  22  28
ATOM     27  C   UNL     1      -1.072  10.691  23.103  0.00  0.00    +0.000 C 
ATOM     28  C   UNL     1      -0.167   9.473  23.002  0.00  0.00    +0.000 C 
ENDBRANCH  22  28
ENDBRANCH  21  25
ENDBRANCH  19  21
ENDBRANCH   1  19
TORSDOF 5
ENDMDL
MODEL 3
REMARK VINA RESULT:      -8.5      2.518      6.830
REMARK  Name = 
REMARK  6 active torsions:
REMARK  status: ('A' for Active; 'I' for Inactive)
REMARK    1  A    between atoms: C_1  and  C_2
REMARK    2  A    between atoms: C_2  and  C_3
REMARK    3  A    between atoms: C_6  and  C_7
REMARK    4  A    between atoms: C_7  and  N_8
REMARK    5  A    between atoms: N_8  and  C_9
REMARK    6  A    between atoms: C_11  and  C_12
REMARK                            x       y       z     vdW  Elec       q    Type
REMARK                         _______ _______ _______ _____ _____    ______ ____
ROOT
ATOM      1  C   UNL     1       3.322   6.192  18.905  0.00  0.00    +0.000 A 
ATOM      2  N   UNL     1       4.196   6.180  17.882  0.00  0.00    +0.000 NA
ATOM      3  C   UNL     1       4.728   4.992  17.540  0.00  0.00    +0.000 A 
ATOM      4  N   UNL     1       4.488   3.841  18.188  0.00  0.00    +0.000 NA
ATOM      5  C   UNL     1       3.629   3.881  19.224  0.00  0.00    +0.000 A 
ATOM      6  C   UNL     1       2.978   5.041  19.605  0.00  0.00    +0.000 A 
ATOM      7  C   UNL     1       1.974   5.022  20.730  0.00  0.00    +0.000 C 
ATOM      8  C   UNL     1       0.755   4.143  20.412  0.00  0.00    +0.000 C 
ATOM      9  N   UNL     1       0.962   2.705  20.620  0.00  0.00    +0.000 NA
ATOM     10  C   UNL     1       1.932   2.102  19.697  0.00  0.00    +0.000 C 
ATOM     11  C   UNL     1       3.370   2.572  19.918  0.00  0.00    +0.000 C 
ATOM     12  H   UNL     1       0.066   2.231  20.493  0.00  0.00    +0.000 HD
ENDROOT
BRANCH   3  13
ATOM     13  C   UNL     1       5.577   4.912  16.343  0.00  0.00    +0.000 A 
ATOM     14  C   UNL     1       5.223   4.136  15.225  0.00  0.00    +0.000 A 
ATOM     15  C   UNL     1       6.041   4.087  14.096  0.00  0.00    +0.000 A 
ATOM     16  C   UNL     1       7.208   4.826  14.106  0.00  0.00    +0.000 A 
ATOM     17  N   UNL     1       7.594   5.595  15.144  0.00  0.00    +0.000 NA
ATOM     18  C   UNL     1       6.772   5.618  16.228  0.00  0.00    +0.000 A 
ENDBRANCH   3  13
BRANCH   1  19
ATOM     19  N   UNL     1       2.685   7.392  19.239  0.00  0.00    +0.000 N 
ATOM     20  H   UNL     1       1.845   7.186  19.778  0.00  0.00    +0.000 HD
BRANCH  19  21
ATOM     21  C   UNL     1       2.384   8.315  18.145  0.00  0.00    +0.000 C 
BRANCH  21  25
ATOM     22  C   UNL     1      -0.517  10.343  18.539  0.00  0.00    +0.000 A 
ATOM     23  N   UNL     1      -0.047  10.434  19.789  0.00  0.00    +0.000 NA
ATOM     24  O   UNL     1       1.124   9.669  19.745  0.00  0.00    +0.000 OA
ATOM     25  C   UNL     1       1.231   9.208  18.464  0.00  0.00    +0.000 A 
ATOM     26  N   UNL     1       0.238   9.583  17.686  0.00  0.00    +0.000 NA
BRANCH  22  28
ATOM     27  C   UNL     1      -2.322  10.403  16.840  0.00  0.00    +0.000 C 
ATOM     28  C   UNL     1      -1.734  11.054  18.082  0.00  0.00    +0.000 C 
ENDBRANCH  22  28
ENDBRANCH  21  25
ENDBRANCH  19  21
ENDBRANCH   1  19
TORSDOF 5
ENDMDL
MODEL 4
REMARK VINA RESULT:      -8.5      1.446      1.697
REMARK  Name = 
REMARK  6 active torsions:
REMARK  status: ('A' for Active; 'I' for Inactive)
REMARK    1  A    between atoms: C_1  and  C_2
REMARK    2  A    between atoms: C_2  and  C_3
REMARK    3  A    between atoms: C_6  and  C_7
REMARK    4  A    between atoms: C_7  and  N_8
REMARK    5  A    between atoms: N_8  and  C_9
REMARK    6  A    between atoms: C_11  and  C_12
REMARK                            x       y       z     vdW  Elec       q    Type
REMARK                         _______ _______ _______ _____ _____    ______ ____
ROOT
ATOM      1  C   UNL     1       3.690   4.988  18.037  0.00  0.00    +0.000 A 
ATOM      2  N   UNL     1       3.306   6.274  17.930  0.00  0.00    +0.000 NA
ATOM      3  C   UNL     1       2.340   6.700  18.763  0.00  0.00    +0.000 A 
ATOM      4  N   UNL     1       1.701   5.916  19.645  0.00  0.00    +0.000 NA
ATOM      5  C   UNL     1       2.084   4.628  19.720  0.00  0.00    +0.000 A 
ATOM      6  C   UNL     1       3.116   4.114  18.953  0.00  0.00    +0.000 A 
ATOM      7  C   UNL     1       3.553   2.680  19.119  0.00  0.00    +0.000 C 
ATOM      8  C   UNL     1       4.115   2.398  20.521  0.00  0.00    +0.000 C 
ATOM      9  N   UNL     1       3.100   2.171  21.557  0.00  0.00    +0.000 NA
ATOM     10  C   UNL     1       2.289   3.355  21.865  0.00  0.00    +0.000 C 
ATOM     11  C   UNL     1       1.359   3.780  20.728  0.00  0.00    +0.000 C 
ATOM     12  H   UNL     1       3.577   1.882  22.413  0.00  0.00    +0.000 HD
ENDROOT
BRANCH   3  13
ATOM     13  C   UNL     1       1.992   8.128  18.774  0.00  0.00    +0.000 A 
ATOM     14  C   UNL     1       1.297   8.722  19.843  0.00  0.00    +0.000 A 
ATOM     15  C   UNL     1       0.988  10.081  19.834  0.00  0.00    +0.000 A 
ATOM     16  C   UNL     1       1.388  10.831  18.744  0.00  0.00    +0.000 A 
ATOM     17  N   UNL     1       2.065  10.321  17.696  0.00  0.00    +0.000 NA
ATOM     18  C   UNL     1       2.347   8.990  17.740  0.00  0.00    +0.000 A 
ENDBRANCH   3  13
BRANCH   1  19
ATOM     19  N   UNL     1       4.747   4.527  17.246  0.00  0.00    +0.000 N 
ATOM     20  H   UNL     1       5.209   3.753  17.723  0.00  0.00    +0.000 HD
BRANCH  19  21
ATOM     21  C   UNL     1       5.725   5.516  16.796  0.00  0.00    +0.000 C 
BRANCH  21  25
ATOM     22  C   UNL     1       6.774   4.488  13.551  0.00  0.00    +0.000 A 
ATOM     23  N   UNL     1       7.799   5.300  13.837  0.00  0.00    +0.000 NA
ATOM     24  O   UNL     1       7.492   5.759  15.123  0.00  0.00    +0.000 OA
ATOM     25  C   UNL     1       6.314   5.162  15.470  0.00  0.00    +0.000 A 
ATOM     26  N   UNL     1       5.824   4.380  14.532  0.00  0.00    +0.000 NA
BRANCH  22  28
ATOM     27  C   UNL     1       5.267   3.244  12.025  0.00  0.00    +0.000 C 
ATOM     28  C   UNL     1       6.690   3.710  12.293  0.00  0.00    +0.000 C 
ENDBRANCH  22  28
ENDBRANCH  21  25
ENDBRANCH  19  21
ENDBRANCH   1  19
TORSDOF 5
ENDMDL
MODEL 5
REMARK VINA RESULT:      -8.5      0.896      1.225
REMARK  Name = 
REMARK  6 active torsions:
REMARK  status: ('A' for Active; 'I' for Inactive)
REMARK    1  A    between atoms: C_1  and  C_2
REMARK    2  A    between atoms: C_2  and  C_3
REMARK    3  A    between atoms: C_6  and  C_7
REMARK    4  A    between atoms: C_7  and  N_8
REMARK    5  A    between atoms: N_8  and  C_9
REMARK    6  A    between atoms: C_11  and  C_12
REMARK                            x       y       z     vdW  Elec       q    Type
REMARK                         _______ _______ _______ _____ _____    ______ ____
ROOT
ATOM      1  C   UNL     1       4.282   5.271  17.591  0.00  0.00    +0.000 A 
ATOM      2  N   UNL     1       3.844   6.516  17.855  0.00  0.00    +0.000 NA
ATOM      3  C   UNL     1       2.560   6.650  18.234  0.00  0.00    +0.000 A 
ATOM      4  N   UNL     1       1.683   5.636  18.308  0.00  0.00    +0.000 NA
ATOM      5  C   UNL     1       2.136   4.403  18.018  0.00  0.00    +0.000 A 
ATOM      6  C   UNL     1       3.457   4.156  17.686  0.00  0.00    +0.000 A 
ATOM      7  C   UNL     1       3.933   2.747  17.433  0.00  0.00    +0.000 C 
ATOM      8  C   UNL     1       3.816   1.856  18.679  0.00  0.00    +0.000 C 
ATOM      9  N   UNL     1       2.472   1.320  18.928  0.00  0.00    +0.000 NA
ATOM     10  C   UNL     1       1.477   2.342  19.276  0.00  0.00    +0.000 C 
ATOM     11  C   UNL     1       1.133   3.287  18.126  0.00  0.00    +0.000 C 
ATOM     12  H   UNL     1       2.531   0.657  19.703  0.00  0.00    +0.000 HD
ENDROOT
BRANCH   3  13
ATOM     13  C   UNL     1       2.081   7.971  18.664  0.00  0.00    +0.000 A 
ATOM     14  C   UNL     1       1.538   8.191  19.943  0.00  0.00    +0.000 A 
ATOM     15  C   UNL     1       1.102   9.457  20.331  0.00  0.00    +0.000 A 
ATOM     16  C   UNL     1       1.221  10.492  19.424  0.00  0.00    +0.000 A 
ATOM     17  N   UNL     1       1.742  10.344  18.189  0.00  0.00    +0.000 NA
ATOM     18  C   UNL     1       2.157   9.095  17.845  0.00  0.00    +0.000 A 
ENDBRANCH   3  13
BRANCH   1  19
ATOM     19  N   UNL     1       5.630   5.079  17.273  0.00  0.00    +0.000 N 
ATOM     20  H   UNL     1       6.186   5.125  18.127  0.00  0.00    +0.000 HD
BRANCH  19  21
ATOM     21  C   UNL     1       6.202   5.940  16.239  0.00  0.00    +0.000 C 
BRANCH  21  25
ATOM     22  C   UNL     1       6.387   4.059  13.220  0.00  0.00    +0.000 A 
ATOM     23  N   UNL     1       7.561   4.695  13.124  0.00  0.00    +0.000 NA
ATOM     24  O   UNL     1       7.600   5.469  14.289  0.00  0.00    +0.000 OA
ATOM     25  C   UNL     1       6.442   5.204  14.963  0.00  0.00    +0.000 A 
ATOM     26  N   UNL     1       5.655   4.352  14.340  0.00  0.00    +0.000 NA
BRANCH  22  28
ATOM     27  C   UNL     1       4.521   3.379  11.735  0.00  0.00    +0.000 C 
ATOM     28  C   UNL     1       5.926   3.063  12.224  0.00  0.00    +0.000 C 
ENDBRANCH  22  28
ENDBRANCH  21  25
ENDBRANCH  19  21
ENDBRANCH   1  19
TORSDOF 5
ENDMDL
MODEL 6
REMARK VINA RESULT:      -8.5      1.187      1.272
REMARK  Name = 
REMARK  6 active torsions:
REMARK  status: ('A' for Active; 'I' for Inactive)
REMARK    1  A    between atoms: C_1  and  C_2
REMARK    2  A    between atoms: C_2  and  C_3
REMARK    3  A    between atoms: C_6  and  C_7
REMARK    4  A    between atoms: C_7  and  N_8
REMARK    5  A    between atoms: N_8  and  C_9
REMARK    6  A    between atoms: C_11  and  C_12
REMARK                            x       y       z     vdW  Elec       q    Type
REMARK                         _______ _______ _______ _____ _____    ______ ____
ROOT
ATOM      1  C   UNL     1       4.262   5.068  18.829  0.00  0.00    +0.000 A 
ATOM      2  N   UNL     1       3.830   6.329  18.641  0.00  0.00    +0.000 NA
ATOM      3  C   UNL     1       2.577   6.616  19.036  0.00  0.00    +0.000 A 
ATOM      4  N   UNL     1       1.720   5.719  19.547  0.00  0.00    +0.000 NA
ATOM      5  C   UNL     1       2.164   4.458  19.705  0.00  0.00    +0.000 A 
ATOM      6  C   UNL     1       3.459   4.083  19.394  0.00  0.00    +0.000 A 
ATOM      7  C   UNL     1       3.932   2.673  19.650  0.00  0.00    +0.000 C 
ATOM      8  C   UNL     1       3.917   2.313  21.144  0.00  0.00    +0.000 C 
ATOM      9  N   UNL     1       2.603   1.932  21.672  0.00  0.00    +0.000 NA
ATOM     10  C   UNL     1       1.625   3.027  21.687  0.00  0.00    +0.000 C 
ATOM     11  C   UNL     1       1.185   3.481  20.295  0.00  0.00    +0.000 C 
ATOM     12  H   UNL     1       2.727   1.605  22.632  0.00  0.00    +0.000 HD
ENDROOT
BRANCH   3  13
ATOM     13  C   UNL     1       2.117   8.011  18.976  0.00  0.00    +0.000 A 
ATOM     14  C   UNL     1       2.324   8.820  17.844  0.00  0.00    +0.000 A 
ATOM     15  C   UNL     1       1.867  10.137  17.809  0.00  0.00    +0.000 A 
ATOM     16  C   UNL     1       1.201  10.624  18.917  0.00  0.00    +0.000 A 
ATOM     17  N   UNL     1       0.964   9.894  20.025  0.00  0.00    +0.000 NA
ATOM     18  C   UNL     1       1.425   8.614  20.024  0.00  0.00    +0.000 A 
ENDBRANCH   3  13
BRANCH   1  19
ATOM     19  N   UNL     1       5.585   4.748  18.507  0.00  0.00    +0.000 N 
ATOM     20  H   UNL     1       6.085   4.497  19.359  0.00  0.00    +0.000 HD
BRANCH  19  21
ATOM     21  C   UNL     1       6.341   5.733  17.736  0.00  0.00    +0.000 C 
BRANCH  21  25
ATOM     22  C   UNL     1       6.453   4.531  14.385  0.00  0.00    +0.000 A 
ATOM     23  N   UNL     1       7.520   5.341  14.336  0.00  0.00    +0.000 NA
ATOM     24  O   UNL     1       7.579   5.867  15.631  0.00  0.00    +0.000 OA
ATOM     25  C   UNL     1       6.542   5.306  16.320  0.00  0.00    +0.000 A 
ATOM     26  N   UNL     1       5.810   4.487  15.594  0.00  0.00    +0.000 NA
BRANCH  22  28
ATOM     27  C   UNL     1       6.960   3.859  12.053  0.00  0.00    +0.000 C 
ATOM     28  C   UNL     1       6.024   3.694  13.240  0.00  0.00    +0.000 C 
ENDBRANCH  22  28
ENDBRANCH  21  25
ENDBRANCH  19  21
ENDBRANCH   1  19
TORSDOF 5
ENDMDL
MODEL 7
REMARK VINA RESULT:      -8.4      2.476      6.828
REMARK  Name = 
REMARK  6 active torsions:
REMARK  status: ('A' for Active; 'I' for Inactive)
REMARK    1  A    between atoms: C_1  and  C_2
REMARK    2  A    between atoms: C_2  and  C_3
REMARK    3  A    between atoms: C_6  and  C_7
REMARK    4  A    between atoms: C_7  and  N_8
REMARK    5  A    between atoms: N_8  and  C_9
REMARK    6  A    between atoms: C_11  and  C_12
REMARK                            x       y       z     vdW  Elec       q    Type
REMARK                         _______ _______ _______ _____ _____    ______ ____
ROOT
ATOM      1  C   UNL     1       3.292   6.254  18.812  0.00  0.00    +0.000 A 
ATOM      2  N   UNL     1       4.164   6.222  17.786  0.00  0.00    +0.000 NA
ATOM      3  C   UNL     1       4.724   5.035  17.491  0.00  0.00    +0.000 A 
ATOM      4  N   UNL     1       4.515   3.905  18.185  0.00  0.00    +0.000 NA
ATOM      5  C   UNL     1       3.658   3.965  19.221  0.00  0.00    +0.000 A 
ATOM      6  C   UNL     1       2.980   5.123  19.558  0.00  0.00    +0.000 A 
ATOM      7  C   UNL     1       1.979   5.124  20.687  0.00  0.00    +0.000 C 
ATOM      8  C   UNL     1       0.782   4.202  20.409  0.00  0.00    +0.000 C 
ATOM      9  N   UNL     1       1.026   2.779  20.673  0.00  0.00    +0.000 NA
ATOM     10  C   UNL     1       2.008   2.165  19.771  0.00  0.00    +0.000 C 
ATOM     11  C   UNL     1       3.434   2.679  19.968  0.00  0.00    +0.000 C 
ATOM     12  H   UNL     1       0.142   2.278  20.568  0.00  0.00    +0.000 HD
ENDROOT
BRANCH   3  13
ATOM     13  C   UNL     1       5.572   4.929  16.295  0.00  0.00    +0.000 A 
ATOM     14  C   UNL     1       5.183   4.186  15.165  0.00  0.00    +0.000 A 
ATOM     15  C   UNL     1       6.001   4.112  14.038  0.00  0.00    +0.000 A 
ATOM     16  C   UNL     1       7.204   4.792  14.060  0.00  0.00    +0.000 A 
ATOM     17  N   UNL     1       7.624   5.527  15.110  0.00  0.00    +0.000 NA
ATOM     18  C   UNL     1       6.801   5.576  16.191  0.00  0.00    +0.000 A 
ENDBRANCH   3  13
BRANCH   1  19
ATOM     19  N   UNL     1       2.626   7.449  19.100  0.00  0.00    +0.000 N 
ATOM     20  H   UNL     1       1.855   7.257  19.739  0.00  0.00    +0.000 HD
BRANCH  19  21
ATOM     21  C   UNL     1       2.169   8.249  17.964  0.00  0.00    +0.000 C 
BRANCH  21  25
ATOM     22  C   UNL     1       1.253  11.616  18.676  0.00  0.00    +0.000 A 
ATOM     23  N   UNL     1       0.337  11.002  19.436  0.00  0.00    +0.000 NA
ATOM     24  O   UNL     1       0.618   9.646  19.239  0.00  0.00    +0.000 OA
ATOM     25  C   UNL     1       1.682   9.596  18.385  0.00  0.00    +0.000 A 
ATOM     26  N   UNL     1       2.102  10.782  17.998  0.00  0.00    +0.000 NA
BRANCH  22  28
ATOM     27  C   UNL     1       2.832  13.504  18.378  0.00  0.00    +0.000 C 
ATOM     28  C   UNL     1       1.387  13.090  18.610  0.00  0.00    +0.000 C 
ENDBRANCH  22  28
ENDBRANCH  21  25
ENDBRANCH  19  21
ENDBRANCH   1  19
TORSDOF 5
ENDMDL
MODEL 8
REMARK VINA RESULT:      -8.4      2.358      7.074
REMARK  Name = 
REMARK  6 active torsions:
REMARK  status: ('A' for Active; 'I' for Inactive)
REMARK    1  A    between atoms: C_1  and  C_2
REMARK    2  A    between atoms: C_2  and  C_3
REMARK    3  A    between atoms: C_6  and  C_7
REMARK    4  A    between atoms: C_7  and  N_8
REMARK    5  A    between atoms: N_8  and  C_9
REMARK    6  A    between atoms: C_11  and  C_12
REMARK                            x       y       z     vdW  Elec       q    Type
REMARK                         _______ _______ _______ _____ _____    ______ ____
ROOT
ATOM      1  C   UNL     1       3.377   6.170  18.928  0.00  0.00    +0.000 A 
ATOM      2  N   UNL     1       4.241   6.159  17.896  0.00  0.00    +0.000 NA
ATOM      3  C   UNL     1       4.741   4.966  17.524  0.00  0.00    +0.000 A 
ATOM      4  N   UNL     1       4.479   3.808  18.149  0.00  0.00    +0.000 NA
ATOM      5  C   UNL     1       3.631   3.845  19.193  0.00  0.00    +0.000 A 
ATOM      6  C   UNL     1       3.012   5.012  19.606  0.00  0.00    +0.000 A 
ATOM      7  C   UNL     1       2.018   4.993  20.740  0.00  0.00    +0.000 C 
ATOM      8  C   UNL     1       0.776   4.150  20.416  0.00  0.00    +0.000 C 
ATOM      9  N   UNL     1       0.950   2.703  20.590  0.00  0.00    +0.000 NA
ATOM     10  C   UNL     1       1.896   2.098  19.645  0.00  0.00    +0.000 C 
ATOM     11  C   UNL     1       3.347   2.528  19.861  0.00  0.00    +0.000 C 
ATOM     12  H   UNL     1       0.041   2.254  20.462  0.00  0.00    +0.000 HD
ENDROOT
BRANCH   3  13
ATOM     13  C   UNL     1       5.576   4.893  16.317  0.00  0.00    +0.000 A 
ATOM     14  C   UNL     1       5.182   4.170  15.176  0.00  0.00    +0.000 A 
ATOM     15  C   UNL     1       5.989   4.126  14.039  0.00  0.00    +0.000 A 
ATOM     16  C   UNL     1       7.185   4.816  14.063  0.00  0.00    +0.000 A 
ATOM     17  N   UNL     1       7.610   5.534  15.123  0.00  0.00    +0.000 NA
ATOM     18  C   UNL     1       6.798   5.553  16.214  0.00  0.00    +0.000 A 
ENDBRANCH   3  13
BRANCH   1  19
ATOM     19  N   UNL     1       2.772   7.377  19.294  0.00  0.00    +0.000 N 
ATOM     20  H   UNL     1       2.077   7.197  20.017  0.00  0.00    +0.000 HD
BRANCH  19  21
ATOM     21  C   UNL     1       2.203   8.191  18.221  0.00  0.00    +0.000 C 
BRANCH  21  25
ATOM     22  C   UNL     1       0.020  10.533  19.781  0.00  0.00    +0.000 A 
ATOM     23  N   UNL     1      -0.486  10.592  18.542  0.00  0.00    +0.000 NA
ATOM     24  O   UNL     1       0.304   9.681  17.832  0.00  0.00    +0.000 OA
ATOM     25  C   UNL     1       1.196   9.169  18.730  0.00  0.00    +0.000 A 
ATOM     26  N   UNL     1       1.072   9.671  19.940  0.00  0.00    +0.000 NA
BRANCH  22  28
ATOM     27  C   UNL     1      -0.535  10.471  22.196  0.00  0.00    +0.000 C 
ATOM     28  C   UNL     1      -0.544  11.296  20.919  0.00  0.00    +0.000 C 
ENDBRANCH  22  28
ENDBRANCH  21  25
ENDBRANCH  19  21
ENDBRANCH   1  19
TORSDOF 5
ENDMDL
MODEL 9
REMARK VINA RESULT:      -8.2      1.610      1.839
REMARK  Name = 
REMARK  6 active torsions:
REMARK  status: ('A' for Active; 'I' for Inactive)
REMARK    1  A    between atoms: C_1  and  C_2
REMARK    2  A    between atoms: C_2  and  C_3
REMARK    3  A    between atoms: C_6  and  C_7
REMARK    4  A    between atoms: C_7  and  N_8
REMARK    5  A    between atoms: N_8  and  C_9
REMARK    6  A    between atoms: C_11  and  C_12
REMARK                            x       y       z     vdW  Elec       q    Type
REMARK                         _______ _______ _______ _____ _____    ______ ____
ROOT
ATOM      1  C   UNL     1       3.573   6.021  18.875  0.00  0.00    +0.000 A 
ATOM      2  N   UNL     1       3.029   7.214  19.179  0.00  0.00    +0.000 NA
ATOM      3  C   UNL     1       1.964   7.214  20.001  0.00  0.00    +0.000 A 
ATOM      4  N   UNL     1       1.381   6.105  20.483  0.00  0.00    +0.000 NA
ATOM      5  C   UNL     1       1.927   4.922  20.148  0.00  0.00    +0.000 A 
ATOM      6  C   UNL     1       3.064   4.824  19.366  0.00  0.00    +0.000 A 
ATOM      7  C   UNL     1       3.678   3.478  19.071  0.00  0.00    +0.000 C 
ATOM      8  C   UNL     1       4.183   2.774  20.340  0.00  0.00    +0.000 C 
ATOM      9  N   UNL     1       3.144   2.090  21.119  0.00  0.00    +0.000 NA
ATOM     10  C   UNL     1       2.163   2.996  21.730  0.00  0.00    +0.000 C 
ATOM     11  C   UNL     1       1.259   3.701  20.718  0.00  0.00    +0.000 C 
ATOM     12  H   UNL     1       3.600   1.565  21.868  0.00  0.00    +0.000 HD
ENDROOT
BRANCH   3  13
ATOM     13  C   UNL     1       1.428   8.500  20.467  0.00  0.00    +0.000 A 
ATOM     14  C   UNL     1       1.006   9.503  19.575  0.00  0.00    +0.000 A 
ATOM     15  C   UNL     1       0.490  10.711  20.044  0.00  0.00    +0.000 A 
ATOM     16  C   UNL     1       0.401  10.894  21.411  0.00  0.00    +0.000 A 
ATOM     17  N   UNL     1       0.780   9.966  22.313  0.00  0.00    +0.000 NA
ATOM     18  C   UNL     1       1.279   8.800  21.819  0.00  0.00    +0.000 A 
ENDBRANCH   3  13
BRANCH   1  19
ATOM     19  N   UNL     1       4.730   5.983  18.091  0.00  0.00    +0.000 N 
ATOM     20  H   UNL     1       5.495   6.425  18.600  0.00  0.00    +0.000 HD
BRANCH  19  21
ATOM     21  C   UNL     1       4.636   6.519  16.734  0.00  0.00    +0.000 C 
BRANCH  21  25
ATOM     22  C   UNL     1       6.406   4.671  14.257  0.00  0.00    +0.000 A 
ATOM     23  N   UNL     1       7.454   5.270  14.837  0.00  0.00    +0.000 NA
ATOM     24  O   UNL     1       6.864   6.027  15.854  0.00  0.00    +0.000 OA
ATOM     25  C   UNL     1       5.521   5.791  15.777  0.00  0.00    +0.000 A 
ATOM     26  N   UNL     1       5.186   4.974  14.802  0.00  0.00    +0.000 NA
BRANCH  22  28
ATOM     27  C   UNL     1       5.239   3.545  12.381  0.00  0.00    +0.000 C 
ATOM     28  C   UNL     1       6.546   3.703  13.144  0.00  0.00    +0.000 C 
ENDBRANCH  22  28
ENDBRANCH  21  25
ENDBRANCH  19  21
ENDBRANCH   1  19
TORSDOF 5
ENDMDL
