MODEL 1
REMARK VINA RESULT:      -6.8      0.000      0.000
REMARK  Name = 
REMARK  7 active torsions:
REMARK  status: ('A' for Active; 'I' for Inactive)
REMARK    1  A    between atoms: C_1  and  C_2
REMARK    2  A    between atoms: C_6  and  C_7
REMARK    3  A    between atoms: C_8  and  C_9
REMARK    4  A    between atoms: C_17  and  C_18
REMARK    5  A    between atoms: C_18  and  C_19
REMARK    6  A    between atoms: C_19  and  O_20
REMARK    7  A    between atoms: C_24  and  C_25
REMARK                            x       y       z     vdW  Elec       q    Type
REMARK                         _______ _______ _______ _____ _____    ______ ____
ROOT
ATOM      1  C   UNL     1       3.004  14.990  19.959  0.00  0.00    +0.000 C 
ATOM      2  C   UNL     1       1.810  14.092  20.021  0.00  0.00    +0.000 A 
ATOM      3  S   UNL     1       0.530  14.465  21.079  0.00  0.00    +0.000 S 
ATOM      4  C   UNL     1      -0.382  13.151  20.545  0.00  0.00    +0.000 A 
ATOM      5  C   UNL     1       0.283  12.338  19.640  0.00  0.00    +0.000 A 
ATOM      6  C   UNL     1       1.578  12.926  19.302  0.00  0.00    +0.000 A 
ATOM      7  C   UNL     1       2.571  12.388  18.314  0.00  0.00    +0.000 C 
ATOM      8  C   UNL     1      -0.258  11.055  19.152  0.00  0.00    +0.000 C 
ATOM      9  N   UNL     1      -1.480  10.896  18.780  0.00  0.00    +0.000 NA
ATOM     10  C   UNL     1      -2.434  12.006  18.787  0.00  0.00    +0.000 C 
ATOM     11  C   UNL     1      -2.704  12.438  20.191  0.00  0.00    +0.000 A 
ATOM     12  N   UNL     1      -3.853  12.468  20.832  0.00  0.00    +0.000 NA
ATOM     13  N   UNL     1      -3.642  13.072  22.039  0.00  0.00    +0.000 NA
ATOM     14  C   UNL     1      -2.370  13.407  22.124  0.00  0.00    +0.000 A 
ATOM     15  C   UNL     1      -1.745  13.998  23.331  0.00  0.00    +0.000 C 
ATOM     16  N   UNL     1      -1.710  13.013  20.966  0.00  0.00    +0.000 N 
ENDROOT
BRANCH   8  17
ATOM     17  C   UNL     1       0.640   9.860  19.118  0.00  0.00    +0.000 A 
ATOM     18  C   UNL     1       1.195   9.395  17.918  0.00  0.00    +0.000 A 
ATOM     19  C   UNL     1       1.995   8.249  17.913  0.00  0.00    +0.000 A 
ATOM     20  C   UNL     1       2.261   7.583  19.108  0.00  0.00    +0.000 A 
ATOM     21 CL   UNL     1       3.237   6.167  19.094  0.00  0.00    +0.000 Cl
ATOM     22  C   UNL     1       1.743   8.056  20.312  0.00  0.00    +0.000 A 
ATOM     23  C   UNL     1       0.936   9.197  20.319  0.00  0.00    +0.000 A 
ENDBRANCH   8  17
BRANCH  10  24
ATOM     24  C   UNL     1      -3.705  11.538  18.069  0.00  0.00    +0.000 C 
BRANCH  24  25
ATOM     25  C   UNL     1      -3.383  10.935  16.706  0.00  0.00    +0.000 C 
BRANCH  25  26
ATOM     26  O   UNL     1      -2.267  11.598  16.123  0.00  0.00    +0.000 OA
ATOM     27  H   UNL     1      -2.317  12.532  16.391  0.00  0.00    +0.000 HD
ENDBRANCH  25  26
ENDBRANCH  24  25
ENDBRANCH  10  24
TORSDOF 4
ENDMDL
MODEL 2
REMARK VINA RESULT:      -6.8      0.325      1.004
REMARK  Name = 
REMARK  7 active torsions:
REMARK  status: ('A' for Active; 'I' for Inactive)
REMARK    1  A    between atoms: C_1  and  C_2
REMARK    2  A    between atoms: C_6  and  C_7
REMARK    3  A    between atoms: C_8  and  C_9
REMARK    4  A    between atoms: C_17  and  C_18
REMARK    5  A    between atoms: C_18  and  C_19
REMARK    6  A    between atoms: C_19  and  O_20
REMARK    7  A    between atoms: C_24  and  C_25
REMARK                            x       y       z     vdW  Elec       q    Type
REMARK                         _______ _______ _______ _____ _____    ______ ____
ROOT
ATOM      1  C   UNL     1       3.027  14.918  19.358  0.00  0.00    +0.000 C 
ATOM      2  C   UNL     1       1.824  14.047  19.531  0.00  0.00    +0.000 A 
ATOM      3  S   UNL     1       0.564  14.545  20.561  0.00  0.00    +0.000 S 
ATOM      4  C   UNL     1      -0.370  13.193  20.182  0.00  0.00    +0.000 A 
ATOM      5  C   UNL     1       0.273  12.280  19.361  0.00  0.00    +0.000 A 
ATOM      6  C   UNL     1       1.569  12.813  18.944  0.00  0.00    +0.000 A 
ATOM      7  C   UNL     1       2.541  12.160  18.006  0.00  0.00    +0.000 C 
ATOM      8  C   UNL     1      -0.289  10.959  19.020  0.00  0.00    +0.000 C 
ATOM      9  N   UNL     1      -1.517  10.777  18.683  0.00  0.00    +0.000 NA
ATOM     10  C   UNL     1      -2.460  11.893  18.585  0.00  0.00    +0.000 C 
ATOM     11  C   UNL     1      -2.704  12.475  19.938  0.00  0.00    +0.000 A 
ATOM     12  N   UNL     1      -3.843  12.587  20.587  0.00  0.00    +0.000 NA
ATOM     13  N   UNL     1      -3.609  13.314  21.719  0.00  0.00    +0.000 NA
ATOM     14  C   UNL     1      -2.332  13.640  21.752  0.00  0.00    +0.000 A 
ATOM     15  C   UNL     1      -1.683  14.349  22.880  0.00  0.00    +0.000 C 
ATOM     16  N   UNL     1      -1.693  13.117  20.633  0.00  0.00    +0.000 N 
ENDROOT
BRANCH   8  17
ATOM     17  C   UNL     1       0.596   9.757  19.101  0.00  0.00    +0.000 A 
ATOM     18  C   UNL     1       0.883   9.139  20.326  0.00  0.00    +0.000 A 
ATOM     19  C   UNL     1       1.750   8.044  20.373  0.00  0.00    +0.000 A 
ATOM     20  C   UNL     1       2.310   7.550  19.196  0.00  0.00    +0.000 A 
ATOM     21 CL   UNL     1       3.383   6.209  19.262  0.00  0.00    +0.000 Cl
ATOM     22  C   UNL     1       2.004   8.135  17.968  0.00  0.00    +0.000 A 
ATOM     23  C   UNL     1       1.144   9.235  17.919  0.00  0.00    +0.000 A 
ENDBRANCH   8  17
BRANCH  10  24
ATOM     24  C   UNL     1      -3.746  11.366  17.938  0.00  0.00    +0.000 C 
BRANCH  24  25
ATOM     25  C   UNL     1      -3.547  11.088  16.452  0.00  0.00    +0.000 C 
BRANCH  25  26
ATOM     26  O   UNL     1      -2.271  11.554  16.028  0.00  0.00    +0.000 OA
ATOM     27  H   UNL     1      -1.674  10.787  16.020  0.00  0.00    +0.000 HD
ENDBRANCH  25  26
ENDBRANCH  24  25
ENDBRANCH  10  24
TORSDOF 4
ENDMDL
MODEL 3
REMARK VINA RESULT:      -6.7      0.982      1.511
REMARK  Name = 
REMARK  7 active torsions:
REMARK  status: ('A' for Active; 'I' for Inactive)
REMARK    1  A    between atoms: C_1  and  C_2
REMARK    2  A    between atoms: C_6  and  C_7
REMARK    3  A    between atoms: C_8  and  C_9
REMARK    4  A    between atoms: C_17  and  C_18
REMARK    5  A    between atoms: C_18  and  C_19
REMARK    6  A    between atoms: C_19  and  O_20
REMARK    7  A    between atoms: C_24  and  C_25
REMARK                            x       y       z     vdW  Elec       q    Type
REMARK                         _______ _______ _______ _____ _____    ______ ____
ROOT
ATOM      1  C   UNL     1       2.439  14.908  19.716  0.00  0.00    +0.000 C 
ATOM      2  C   UNL     1       1.309  13.940  19.573  0.00  0.00    +0.000 A 
ATOM      3  S   UNL     1      -0.197  14.293  20.280  0.00  0.00    +0.000 S 
ATOM      4  C   UNL     1      -0.895  12.891  19.656  0.00  0.00    +0.000 A 
ATOM      5  C   UNL     1       0.001  12.067  18.991  0.00  0.00    +0.000 A 
ATOM      6  C   UNL     1       1.309  12.717  18.913  0.00  0.00    +0.000 A 
ATOM      7  C   UNL     1       2.529  12.184  18.221  0.00  0.00    +0.000 C 
ATOM      8  C   UNL     1      -0.347  10.723  18.494  0.00  0.00    +0.000 C 
ATOM      9  N   UNL     1      -1.440  10.460  17.867  0.00  0.00    +0.000 NA
ATOM     10  C   UNL     1      -2.424  11.503  17.571  0.00  0.00    +0.000 C 
ATOM     11  C   UNL     1      -3.033  12.005  18.839  0.00  0.00    +0.000 A 
ATOM     12  N   UNL     1      -4.299  11.999  19.196  0.00  0.00    +0.000 NA
ATOM     13  N   UNL     1      -4.405  12.692  20.369  0.00  0.00    +0.000 NA
ATOM     14  C   UNL     1      -3.205  13.114  20.716  0.00  0.00    +0.000 A 
ATOM     15  C   UNL     1      -2.907  13.822  21.984  0.00  0.00    +0.000 C 
ATOM     16  N   UNL     1      -2.275  12.692  19.772  0.00  0.00    +0.000 N 
ENDROOT
BRANCH   8  17
ATOM     17  C   UNL     1       0.593   9.591  18.757  0.00  0.00    +0.000 A 
ATOM     18  C   UNL     1       0.788   9.085  20.050  0.00  0.00    +0.000 A 
ATOM     19  C   UNL     1       1.707   8.056  20.269  0.00  0.00    +0.000 A 
ATOM     20  C   UNL     1       2.413   7.514  19.196  0.00  0.00    +0.000 A 
ATOM     21 CL   UNL     1       3.550   6.255  19.474  0.00  0.00    +0.000 Cl
ATOM     22  C   UNL     1       2.202   7.986  17.901  0.00  0.00    +0.000 A 
ATOM     23  C   UNL     1       1.290   9.021  17.680  0.00  0.00    +0.000 A 
ENDBRANCH   8  17
BRANCH  10  24
ATOM     24  C   UNL     1      -3.469  10.907  16.620  0.00  0.00    +0.000 C 
BRANCH  24  25
ATOM     25  C   UNL     1      -2.820  10.002  15.578  0.00  0.00    +0.000 C 
BRANCH  25  26
ATOM     26  O   UNL     1      -3.348  10.278  14.286  0.00  0.00    +0.000 OA
ATOM     27  H   UNL     1      -4.317  10.232  14.356  0.00  0.00    +0.000 HD
ENDBRANCH  25  26
ENDBRANCH  24  25
ENDBRANCH  10  24
TORSDOF 4
ENDMDL
MODEL 4
REMARK VINA RESULT:      -6.6      1.035      1.115
REMARK  Name = 
REMARK  7 active torsions:
REMARK  status: ('A' for Active; 'I' for Inactive)
REMARK    1  A    between atoms: C_1  and  C_2
REMARK    2  A    between atoms: C_6  and  C_7
REMARK    3  A    between atoms: C_8  and  C_9
REMARK    4  A    between atoms: C_17  and  C_18
REMARK    5  A    between atoms: C_18  and  C_19
REMARK    6  A    between atoms: C_19  and  O_20
REMARK    7  A    between atoms: C_24  and  C_25
REMARK                            x       y       z     vdW  Elec       q    Type
REMARK                         _______ _______ _______ _____ _____    ______ ____
ROOT
ATOM      1  C   UNL     1       1.758  15.065  21.651  0.00  0.00    +0.000 C 
ATOM      2  C   UNL     1       0.673  14.109  21.271  0.00  0.00    +0.000 A 
ATOM      3  S   UNL     1      -0.842  14.205  22.040  0.00  0.00    +0.000 S 
ATOM      4  C   UNL     1      -1.479  12.969  21.087  0.00  0.00    +0.000 A 
ATOM      5  C   UNL     1      -0.552  12.377  20.242  0.00  0.00    +0.000 A 
ATOM      6  C   UNL     1       0.723  13.088  20.330  0.00  0.00    +0.000 A 
ATOM      7  C   UNL     1       1.961  12.800  19.530  0.00  0.00    +0.000 C 
ATOM      8  C   UNL     1      -0.842  11.182  19.428  0.00  0.00    +0.000 C 
ATOM      9  N   UNL     1      -1.927  11.031  18.752  0.00  0.00    +0.000 NA
ATOM     10  C   UNL     1      -2.961  12.066  18.720  0.00  0.00    +0.000 C 
ATOM     11  C   UNL     1      -3.581  12.211  20.072  0.00  0.00    +0.000 A 
ATOM     12  N   UNL     1      -4.842  12.057  20.414  0.00  0.00    +0.000 NA
ATOM     13  N   UNL     1      -4.969  12.434  21.721  0.00  0.00    +0.000 NA
ATOM     14  C   UNL     1      -3.787  12.814  22.164  0.00  0.00    +0.000 A 
ATOM     15  C   UNL     1      -3.510  13.200  23.568  0.00  0.00    +0.000 C 
ATOM     16  N   UNL     1      -2.848  12.682  21.148  0.00  0.00    +0.000 N 
ENDROOT
BRANCH   8  17
ATOM     17  C   UNL     1       0.152  10.066  19.406  0.00  0.00    +0.000 A 
ATOM     18  C   UNL     1       0.822   9.703  18.229  0.00  0.00    +0.000 A 
ATOM     19  C   UNL     1       1.712   8.626  18.232  0.00  0.00    +0.000 A 
ATOM     20  C   UNL     1       1.953   7.927  19.414  0.00  0.00    +0.000 A 
ATOM     21 CL   UNL     1       3.041   6.597  19.409  0.00  0.00    +0.000 Cl
ATOM     22  C   UNL     1       1.319   8.300  20.598  0.00  0.00    +0.000 A 
ATOM     23  C   UNL     1       0.422   9.372  20.596  0.00  0.00    +0.000 A 
ENDBRANCH   8  17
BRANCH  10  24
ATOM     24  C   UNL     1      -3.986  11.674  17.650  0.00  0.00    +0.000 C 
BRANCH  24  25
ATOM     25  C   UNL     1      -3.372  10.745  16.607  0.00  0.00    +0.000 C 
BRANCH  25  26
ATOM     26  O   UNL     1      -2.395  11.439  15.841  0.00  0.00    +0.000 OA
ATOM     27  H   UNL     1      -2.389  11.040  14.954  0.00  0.00    +0.000 HD
ENDBRANCH  25  26
ENDBRANCH  24  25
ENDBRANCH  10  24
TORSDOF 4
ENDMDL
MODEL 5
REMARK VINA RESULT:      -6.5      1.568      2.219
REMARK  Name = 
REMARK  7 active torsions:
REMARK  status: ('A' for Active; 'I' for Inactive)
REMARK    1  A    between atoms: C_1  and  C_2
REMARK    2  A    between atoms: C_6  and  C_7
REMARK    3  A    between atoms: C_8  and  C_9
REMARK    4  A    between atoms: C_17  and  C_18
REMARK    5  A    between atoms: C_18  and  C_19
REMARK    6  A    between atoms: C_19  and  O_20
REMARK    7  A    between atoms: C_24  and  C_25
REMARK                            x       y       z     vdW  Elec       q    Type
REMARK                         _______ _______ _______ _____ _____    ______ ____
ROOT
ATOM      1  C   UNL     1       1.073  15.527  22.253  0.00  0.00    +0.000 C 
ATOM      2  C   UNL     1      -0.009  14.553  21.912  0.00  0.00    +0.000 A 
ATOM      3  S   UNL     1      -1.398  14.460  22.890  0.00  0.00    +0.000 S 
ATOM      4  C   UNL     1      -2.108  13.304  21.889  0.00  0.00    +0.000 A 
ATOM      5  C   UNL     1      -1.287  12.877  20.857  0.00  0.00    +0.000 A 
ATOM      6  C   UNL     1      -0.048  13.654  20.853  0.00  0.00    +0.000 A 
ATOM      7  C   UNL     1       1.071  13.542  19.860  0.00  0.00    +0.000 C 
ATOM      8  C   UNL     1      -1.636  11.768  19.949  0.00  0.00    +0.000 C 
ATOM      9  N   UNL     1      -2.799  11.625  19.418  0.00  0.00    +0.000 NA
ATOM     10  C   UNL     1      -3.875  12.587  19.659  0.00  0.00    +0.000 C 
ATOM     11  C   UNL     1      -4.297  12.534  21.091  0.00  0.00    +0.000 A 
ATOM     12  N   UNL     1      -5.486  12.259  21.584  0.00  0.00    +0.000 NA
ATOM     13  N   UNL     1      -5.438  12.472  22.932  0.00  0.00    +0.000 NA
ATOM     14  C   UNL     1      -4.223  12.875  23.250  0.00  0.00    +0.000 A 
ATOM     15  C   UNL     1      -3.763  13.113  24.639  0.00  0.00    +0.000 C 
ATOM     16  N   UNL     1      -3.438  12.923  22.104  0.00  0.00    +0.000 N 
ENDROOT
BRANCH   8  17
ATOM     17  C   UNL     1      -0.603  10.729  19.650  0.00  0.00    +0.000 A 
ATOM     18  C   UNL     1       0.016   9.994  20.671  0.00  0.00    +0.000 A 
ATOM     19  C   UNL     1       1.009   9.062  20.362  0.00  0.00    +0.000 A 
ATOM     20  C   UNL     1       1.368   8.845  19.033  0.00  0.00    +0.000 A 
ATOM     21 CL   UNL     1       2.599   7.703  18.660  0.00  0.00    +0.000 Cl
ATOM     22  C   UNL     1       0.737   9.544  18.006  0.00  0.00    +0.000 A 
ATOM     23  C   UNL     1      -0.252  10.483  18.313  0.00  0.00    +0.000 A 
ENDBRANCH   8  17
BRANCH  10  24
ATOM     24  C   UNL     1      -5.026  12.256  18.702  0.00  0.00    +0.000 C 
BRANCH  24  25
ATOM     25  C   UNL     1      -4.589  11.260  17.632  0.00  0.00    +0.000 C 
BRANCH  25  26
ATOM     26  O   UNL     1      -3.792  11.910  16.648  0.00  0.00    +0.000 OA
ATOM     27  H   UNL     1      -4.250  11.809  15.796  0.00  0.00    +0.000 HD
ENDBRANCH  25  26
ENDBRANCH  24  25
ENDBRANCH  10  24
TORSDOF 4
ENDMDL
MODEL 6
REMARK VINA RESULT:      -6.3      2.067      2.846
REMARK  Name = 
REMARK  7 active torsions:
REMARK  status: ('A' for Active; 'I' for Inactive)
REMARK    1  A    between atoms: C_1  and  C_2
REMARK    2  A    between atoms: C_6  and  C_7
REMARK    3  A    between atoms: C_8  and  C_9
REMARK    4  A    between atoms: C_17  and  C_18
REMARK    5  A    between atoms: C_18  and  C_19
REMARK    6  A    between atoms: C_19  and  O_20
REMARK    7  A    between atoms: C_24  and  C_25
REMARK                            x       y       z     vdW  Elec       q    Type
REMARK                         _______ _______ _______ _____ _____    ______ ____
ROOT
ATOM      1  C   UNL     1      -0.051  16.425  21.079  0.00  0.00    +0.000 C 
ATOM      2  C   UNL     1      -1.004  15.274  21.007  0.00  0.00    +0.000 A 
ATOM      3  S   UNL     1      -2.200  15.095  22.203  0.00  0.00    +0.000 S 
ATOM      4  C   UNL     1      -2.858  13.744  21.437  0.00  0.00    +0.000 A 
ATOM      5  C   UNL     1      -2.142  13.326  20.326  0.00  0.00    +0.000 A 
ATOM      6  C   UNL     1      -1.056  14.266  20.052  0.00  0.00    +0.000 A 
ATOM      7  C   UNL     1      -0.093  14.204  18.903  0.00  0.00    +0.000 C 
ATOM      8  C   UNL     1      -2.441  12.084  19.588  0.00  0.00    +0.000 C 
ATOM      9  N   UNL     1      -3.633  11.719  19.268  0.00  0.00    +0.000 NA
ATOM     10  C   UNL     1      -4.800  12.539  19.596  0.00  0.00    +0.000 C 
ATOM     11  C   UNL     1      -4.992  12.586  21.077  0.00  0.00    +0.000 A 
ATOM     12  N   UNL     1      -6.036  12.201  21.779  0.00  0.00    +0.000 NA
ATOM     13  N   UNL     1      -5.823  12.569  23.078  0.00  0.00    +0.000 NA
ATOM     14  C   UNL     1      -4.655  13.173  23.157  0.00  0.00    +0.000 A 
ATOM     15  C   UNL     1      -4.037  13.628  24.425  0.00  0.00    +0.000 C 
ATOM     16  N   UNL     1      -4.065  13.205  21.898  0.00  0.00    +0.000 N 
ENDROOT
BRANCH   8  17
ATOM     17  C   UNL     1      -1.313  11.176  19.217  0.00  0.00    +0.000 A 
ATOM     18  C   UNL     1      -0.288  10.871  20.124  0.00  0.00    +0.000 A 
ATOM     19  C   UNL     1       0.776  10.055  19.732  0.00  0.00    +0.000 A 
ATOM     20  C   UNL     1       0.805   9.522  18.444  0.00  0.00    +0.000 A 
ATOM     21 CL   UNL     1       2.122   8.527  17.965  0.00  0.00    +0.000 Cl
ATOM     22  C   UNL     1      -0.225   9.790  17.545  0.00  0.00    +0.000 A 
ATOM     23  C   UNL     1      -1.287  10.613  17.932  0.00  0.00    +0.000 A 
ENDBRANCH   8  17
BRANCH  10  24
ATOM     24  C   UNL     1      -6.013  11.942  18.872  0.00  0.00    +0.000 C 
BRANCH  24  25
ATOM     25  C   UNL     1      -6.001  12.293  17.388  0.00  0.00    +0.000 C 
BRANCH  25  26
ATOM     26  O   UNL     1      -5.188  11.374  16.669  0.00  0.00    +0.000 OA
ATOM     27  H   UNL     1      -5.181  10.541  17.173  0.00  0.00    +0.000 HD
ENDBRANCH  25  26
ENDBRANCH  24  25
ENDBRANCH  10  24
TORSDOF 4
ENDMDL
MODEL 7
REMARK VINA RESULT:      -6.1      3.469      5.732
REMARK  Name = 
REMARK  7 active torsions:
REMARK  status: ('A' for Active; 'I' for Inactive)
REMARK    1  A    between atoms: C_1  and  C_2
REMARK    2  A    between atoms: C_6  and  C_7
REMARK    3  A    between atoms: C_8  and  C_9
REMARK    4  A    between atoms: C_17  and  C_18
REMARK    5  A    between atoms: C_18  and  C_19
REMARK    6  A    between atoms: C_19  and  O_20
REMARK    7  A    between atoms: C_24  and  C_25
REMARK                            x       y       z     vdW  Elec       q    Type
REMARK                         _______ _______ _______ _____ _____    ______ ____
ROOT
ATOM      1  C   UNL     1       1.265   9.311  18.460  0.00  0.00    +0.000 C 
ATOM      2  C   UNL     1       0.114  10.256  18.598  0.00  0.00    +0.000 A 
ATOM      3  S   UNL     1      -1.248  10.077  17.594  0.00  0.00    +0.000 S 
ATOM      4  C   UNL     1      -2.058  11.345  18.355  0.00  0.00    +0.000 A 
ATOM      5  C   UNL     1      -1.297  12.005  19.307  0.00  0.00    +0.000 A 
ATOM      6  C   UNL     1      -0.013  11.326  19.475  0.00  0.00    +0.000 A 
ATOM      7  C   UNL     1       1.067  11.690  20.451  0.00  0.00    +0.000 C 
ATOM      8  C   UNL     1      -1.741  13.234  19.992  0.00  0.00    +0.000 C 
ATOM      9  N   UNL     1      -2.927  13.392  20.467  0.00  0.00    +0.000 NA
ATOM     10  C   UNL     1      -3.933  12.332  20.386  0.00  0.00    +0.000 C 
ATOM     11  C   UNL     1      -4.314  12.098  18.960  0.00  0.00    +0.000 A 
ATOM     12  N   UNL     1      -5.502  12.199  18.404  0.00  0.00    +0.000 NA
ATOM     13  N   UNL     1      -5.401  11.750  17.118  0.00  0.00    +0.000 NA
ATOM     14  C   UNL     1      -4.155  11.379  16.901  0.00  0.00    +0.000 A 
ATOM     15  C   UNL     1      -3.639  10.926  15.587  0.00  0.00    +0.000 C 
ATOM     16  N   UNL     1      -3.402  11.590  18.050  0.00  0.00    +0.000 N 
ENDROOT
BRANCH   8  17
ATOM     17  C   UNL     1      -0.785  14.377  20.116  0.00  0.00    +0.000 A 
ATOM     18  C   UNL     1      -0.180  14.952  18.990  0.00  0.00    +0.000 A 
ATOM     19  C   UNL     1       0.743  15.989  19.142  0.00  0.00    +0.000 A 
ATOM     20  C   UNL     1       1.044  16.469  20.416  0.00  0.00    +0.000 A 
ATOM     21 CL   UNL     1       2.189  17.739  20.598  0.00  0.00    +0.000 Cl
ATOM     22  C   UNL     1       0.424  15.928  21.541  0.00  0.00    +0.000 A 
ATOM     23  C   UNL     1      -0.494  14.885  21.391  0.00  0.00    +0.000 A 
ENDBRANCH   8  17
BRANCH  10  24
ATOM     24  C   UNL     1      -5.130  12.753  21.246  0.00  0.00    +0.000 C 
BRANCH  24  25
ATOM     25  C   UNL     1      -4.689  13.172  22.644  0.00  0.00    +0.000 C 
BRANCH  25  26
ATOM     26  O   UNL     1      -3.902  12.149  23.242  0.00  0.00    +0.000 OA
ATOM     27  H   UNL     1      -3.019  12.191  22.835  0.00  0.00    +0.000 HD
ENDBRANCH  25  26
ENDBRANCH  24  25
ENDBRANCH  10  24
TORSDOF 4
ENDMDL
MODEL 8
REMARK VINA RESULT:      -6.0      1.197      1.573
REMARK  Name = 
REMARK  7 active torsions:
REMARK  status: ('A' for Active; 'I' for Inactive)
REMARK    1  A    between atoms: C_1  and  C_2
REMARK    2  A    between atoms: C_6  and  C_7
REMARK    3  A    between atoms: C_8  and  C_9
REMARK    4  A    between atoms: C_17  and  C_18
REMARK    5  A    between atoms: C_18  and  C_19
REMARK    6  A    between atoms: C_19  and  O_20
REMARK    7  A    between atoms: C_24  and  C_25
REMARK                            x       y       z     vdW  Elec       q    Type
REMARK                         _______ _______ _______ _____ _____    ______ ____
ROOT
ATOM      1  C   UNL     1       2.008  15.142  19.927  0.00  0.00    +0.000 C 
ATOM      2  C   UNL     1       0.905  14.134  19.853  0.00  0.00    +0.000 A 
ATOM      3  S   UNL     1      -0.551  14.417  20.686  0.00  0.00    +0.000 S 
ATOM      4  C   UNL     1      -1.246  13.002  20.087  0.00  0.00    +0.000 A 
ATOM      5  C   UNL     1      -0.377  12.226  19.335  0.00  0.00    +0.000 A 
ATOM      6  C   UNL     1       0.895  12.926  19.168  0.00  0.00    +0.000 A 
ATOM      7  C   UNL     1       2.074  12.452  18.369  0.00  0.00    +0.000 C 
ATOM      8  C   UNL     1      -0.717  10.880  18.837  0.00  0.00    +0.000 C 
ATOM      9  N   UNL     1      -1.846  10.589  18.293  0.00  0.00    +0.000 NA
ATOM     10  C   UNL     1      -2.887  11.599  18.100  0.00  0.00    +0.000 C 
ATOM     11  C   UNL     1      -3.410  12.053  19.424  0.00  0.00    +0.000 A 
ATOM     12  N   UNL     1      -4.642  11.993  19.881  0.00  0.00    +0.000 NA
ATOM     13  N   UNL     1      -4.678  12.658  21.073  0.00  0.00    +0.000 NA
ATOM     14  C   UNL     1      -3.470  13.118  21.333  0.00  0.00    +0.000 A 
ATOM     15  C   UNL     1      -3.096  13.811  22.589  0.00  0.00    +0.000 C 
ATOM     16  N   UNL     1      -2.605  12.750  20.309  0.00  0.00    +0.000 N 
ENDROOT
BRANCH   8  17
ATOM     17  C   UNL     1       0.281   9.778  18.999  0.00  0.00    +0.000 A 
ATOM     18  C   UNL     1       0.582   9.240  20.257  0.00  0.00    +0.000 A 
ATOM     19  C   UNL     1       1.552   8.242  20.380  0.00  0.00    +0.000 A 
ATOM     20  C   UNL     1       2.204   7.764  19.245  0.00  0.00    +0.000 A 
ATOM     21 CL   UNL     1       3.405   6.544  19.404  0.00  0.00    +0.000 Cl
ATOM     22  C   UNL     1       1.890   8.268  17.984  0.00  0.00    +0.000 A 
ATOM     23  C   UNL     1       0.926   9.271  17.859  0.00  0.00    +0.000 A 
ENDBRANCH   8  17
BRANCH  10  24
ATOM     24  C   UNL     1      -3.984  10.983  17.223  0.00  0.00    +0.000 C 
BRANCH  24  25
ATOM     25  C   UNL     1      -4.985  12.038  16.763  0.00  0.00    +0.000 C 
BRANCH  25  26
ATOM     26  O   UNL     1      -6.295  11.702  17.204  0.00  0.00    +0.000 OA
ATOM     27  H   UNL     1      -6.323  11.861  18.164  0.00  0.00    +0.000 HD
ENDBRANCH  25  26
ENDBRANCH  24  25
ENDBRANCH  10  24
TORSDOF 4
ENDMDL
MODEL 9
REMARK VINA RESULT:      -6.0      2.179      3.023
REMARK  Name = 
REMARK  7 active torsions:
REMARK  status: ('A' for Active; 'I' for Inactive)
REMARK    1  A    between atoms: C_1  and  C_2
REMARK    2  A    between atoms: C_6  and  C_7
REMARK    3  A    between atoms: C_8  and  C_9
REMARK    4  A    between atoms: C_17  and  C_18
REMARK    5  A    between atoms: C_18  and  C_19
REMARK    6  A    between atoms: C_19  and  O_20
REMARK    7  A    between atoms: C_24  and  C_25
REMARK                            x       y       z     vdW  Elec       q    Type
REMARK                         _______ _______ _______ _____ _____    ______ ____
ROOT
ATOM      1  C   UNL     1       0.028  15.794  22.920  0.00  0.00    +0.000 C 
ATOM      2  C   UNL     1      -0.976  14.801  22.427  0.00  0.00    +0.000 A 
ATOM      3  S   UNL     1      -2.361  14.471  23.357  0.00  0.00    +0.000 S 
ATOM      4  C   UNL     1      -2.975  13.418  22.192  0.00  0.00    +0.000 A 
ATOM      5  C   UNL     1      -2.116  13.201  21.125  0.00  0.00    +0.000 A 
ATOM      6  C   UNL     1      -0.939  14.059  21.253  0.00  0.00    +0.000 A 
ATOM      7  C   UNL     1       0.194  14.169  20.274  0.00  0.00    +0.000 C 
ATOM      8  C   UNL     1      -2.374  12.208  20.065  0.00  0.00    +0.000 C 
ATOM      9  N   UNL     1      -3.519  12.057  19.498  0.00  0.00    +0.000 NA
ATOM     10  C   UNL     1      -4.666  12.895  19.851  0.00  0.00    +0.000 C 
ATOM     11  C   UNL     1      -5.094  12.610  21.254  0.00  0.00    +0.000 A 
ATOM     12  N   UNL     1      -6.263  12.183  21.682  0.00  0.00    +0.000 NA
ATOM     13  N   UNL     1      -6.241  12.208  23.047  0.00  0.00    +0.000 NA
ATOM     14  C   UNL     1      -5.063  12.649  23.440  0.00  0.00    +0.000 A 
ATOM     15  C   UNL     1      -4.633  12.723  24.857  0.00  0.00    +0.000 C 
ATOM     16  N   UNL     1      -4.274  12.915  22.327  0.00  0.00    +0.000 N 
ENDROOT
BRANCH   8  17
ATOM     17  C   UNL     1      -1.264  11.299  19.643  0.00  0.00    +0.000 A 
ATOM     18  C   UNL     1      -0.997  11.045  18.291  0.00  0.00    +0.000 A 
ATOM     19  C   UNL     1       0.018  10.156  17.931  0.00  0.00    +0.000 A 
ATOM     20  C   UNL     1       0.785   9.540  18.919  0.00  0.00    +0.000 A 
ATOM     21 CL   UNL     1       2.026   8.439  18.470  0.00  0.00    +0.000 Cl
ATOM     22  C   UNL     1       0.552   9.810  20.266  0.00  0.00    +0.000 A 
ATOM     23  C   UNL     1      -0.469  10.693  20.629  0.00  0.00    +0.000 A 
ENDBRANCH   8  17
BRANCH  10  24
ATOM     24  C   UNL     1      -5.781  12.618  18.836  0.00  0.00    +0.000 C 
BRANCH  24  25
ATOM     25  C   UNL     1      -5.484  11.369  18.013  0.00  0.00    +0.000 C 
BRANCH  25  26
ATOM     26  O   UNL     1      -5.975  10.211  18.677  0.00  0.00    +0.000 OA
ATOM     27  H   UNL     1      -6.251  10.486  19.568  0.00  0.00    +0.000 HD
ENDBRANCH  25  26
ENDBRANCH  24  25
ENDBRANCH  10  24
TORSDOF 4
ENDMDL
