MODEL 1
REMARK VINA RESULT:      -7.3      0.000      0.000
REMARK  Name = 
REMARK  8 active torsions:
REMARK  status: ('A' for Active; 'I' for Inactive)
REMARK    1  A    between atoms: C_1  and  N_2
REMARK    2  A    between atoms: C_3  and  C_5
REMARK    3  A    between atoms: C_6  and  O_7
REMARK    4  A    between atoms: C_9  and  C_10
REMARK    5  A    between atoms: C_13  and  O_14
REMARK    6  A    between atoms: O_14  and  C_15
REMARK    7  A    between atoms: C_16  and  O_17
REMARK    8  A    between atoms: O_17  and  C_18
REMARK                            x       y       z     vdW  Elec       q    Type
REMARK                         _______ _______ _______ _____ _____    ______ ____
ROOT
ATOM      1  C   UNL     1       2.700   5.643  19.208  0.00  0.00    +0.000 A 
ATOM      2  C   UNL     1       1.952   4.546  19.628  0.00  0.00    +0.000 A 
ATOM      3  N   UNL     1       2.234   3.277  19.300  0.00  0.00    +0.000 NA
ATOM      4  C   UNL     1       3.277   3.055  18.470  0.00  0.00    +0.000 A 
ATOM      5  C   UNL     1       3.481   1.612  18.097  0.00  0.00    +0.000 C 
ATOM      6  C   UNL     1       4.102   4.084  17.964  0.00  0.00    +0.000 A 
ATOM      7  C   UNL     1       5.189   3.834  17.086  0.00  0.00    +0.000 A 
ATOM      8  C   UNL     1       5.993   4.855  16.567  0.00  0.00    +0.000 A 
ATOM      9  C   UNL     1       5.727   6.168  16.961  0.00  0.00    +0.000 A 
ATOM     10  C   UNL     1       4.676   6.428  17.858  0.00  0.00    +0.000 A 
ATOM     11  C   UNL     1       3.816   5.414  18.353  0.00  0.00    +0.000 A 
ENDROOT
BRANCH   1  14
ATOM     12  C   UNL     1       1.415   8.482  21.366  0.00  0.00    +0.000 C 
ATOM     13  N   UNL     1       1.890   7.196  20.912  0.00  0.00    +0.000 N 
ATOM     14  C   UNL     1       2.253   7.013  19.587  0.00  0.00    +0.000 C 
ATOM     15  O   UNL     1       2.156   7.903  18.752  0.00  0.00    +0.000 OA
ATOM     16  H   UNL     1       2.231   6.541  21.611  0.00  0.00    +0.000 HD
ENDBRANCH   1  14
BRANCH   2  17
ATOM     17  O   UNL     1       0.825   4.645  20.396  0.00  0.00    +0.000 OA
ATOM     18  H   UNL     1       0.176   4.000  20.065  0.00  0.00    +0.000 HD
ENDBRANCH   2  17
BRANCH   8  19
ATOM     19  O   UNL     1       7.043   4.636  15.717  0.00  0.00    +0.000 OA
ATOM     20  C   UNL     1       6.790   4.611  14.319  0.00  0.00    +0.000 C 
ENDBRANCH   8  19
BRANCH   9  21
ATOM     21  O   UNL     1       6.441   7.290  16.618  0.00  0.00    +0.000 OA
ATOM     22  C   UNL     1       7.510   7.651  17.486  0.00  0.00    +0.000 C 
ENDBRANCH   9  21
TORSDOF 4
ENDMDL
MODEL 2
REMARK VINA RESULT:      -7.0      2.172      5.267
REMARK  Name = 
REMARK  8 active torsions:
REMARK  status: ('A' for Active; 'I' for Inactive)
REMARK    1  A    between atoms: C_1  and  N_2
REMARK    2  A    between atoms: C_3  and  C_5
REMARK    3  A    between atoms: C_6  and  O_7
REMARK    4  A    between atoms: C_9  and  C_10
REMARK    5  A    between atoms: C_13  and  O_14
REMARK    6  A    between atoms: O_14  and  C_15
REMARK    7  A    between atoms: C_16  and  O_17
REMARK    8  A    between atoms: O_17  and  C_18
REMARK                            x       y       z     vdW  Elec       q    Type
REMARK                         _______ _______ _______ _____ _____    ______ ____
ROOT
ATOM      1  C   UNL     1       3.926   3.874  18.580  0.00  0.00    +0.000 A 
ATOM      2  C   UNL     1       3.769   2.602  19.126  0.00  0.00    +0.000 A 
ATOM      3  N   UNL     1       2.907   2.310  20.110  0.00  0.00    +0.000 NA
ATOM      4  C   UNL     1       2.184   3.323  20.639  0.00  0.00    +0.000 A 
ATOM      5  C   UNL     1       1.295   2.922  21.785  0.00  0.00    +0.000 C 
ATOM      6  C   UNL     1       2.264   4.657  20.184  0.00  0.00    +0.000 A 
ATOM      7  C   UNL     1       1.505   5.710  20.756  0.00  0.00    +0.000 A 
ATOM      8  C   UNL     1       1.600   7.037  20.320  0.00  0.00    +0.000 A 
ATOM      9  C   UNL     1       2.457   7.320  19.255  0.00  0.00    +0.000 A 
ATOM     10  C   UNL     1       3.191   6.282  18.655  0.00  0.00    +0.000 A 
ATOM     11  C   UNL     1       3.149   4.941  19.116  0.00  0.00    +0.000 A 
ENDROOT
BRANCH   1  14
ATOM     12  C   UNL     1       7.333   4.478  17.034  0.00  0.00    +0.000 C 
ATOM     13  N   UNL     1       6.265   4.236  17.976  0.00  0.00    +0.000 N 
ATOM     14  C   UNL     1       4.961   4.089  17.531  0.00  0.00    +0.000 C 
ATOM     15  O   UNL     1       4.656   4.191  16.350  0.00  0.00    +0.000 OA
ATOM     16  H   UNL     1       6.515   3.883  18.897  0.00  0.00    +0.000 HD
ENDBRANCH   1  14
BRANCH   2  17
ATOM     17  O   UNL     1       4.502   1.515  18.739  0.00  0.00    +0.000 OA
ATOM     18  H   UNL     1       3.930   0.730  18.792  0.00  0.00    +0.000 HD
ENDBRANCH   2  17
BRANCH   8  19
ATOM     19  O   UNL     1       0.879   8.067  20.861  0.00  0.00    +0.000 OA
ATOM     20  C   UNL     1       1.443   8.796  21.942  0.00  0.00    +0.000 C 
ENDBRANCH   8  19
BRANCH   9  21
ATOM     21  O   UNL     1       2.635   8.537  18.644  0.00  0.00    +0.000 OA
ATOM     22  C   UNL     1       1.605   8.957  17.757  0.00  0.00    +0.000 C 
ENDBRANCH   9  21
TORSDOF 4
ENDMDL
MODEL 3
REMARK VINA RESULT:      -6.9      0.989      1.049
REMARK  Name = 
REMARK  8 active torsions:
REMARK  status: ('A' for Active; 'I' for Inactive)
REMARK    1  A    between atoms: C_1  and  N_2
REMARK    2  A    between atoms: C_3  and  C_5
REMARK    3  A    between atoms: C_6  and  O_7
REMARK    4  A    between atoms: C_9  and  C_10
REMARK    5  A    between atoms: C_13  and  O_14
REMARK    6  A    between atoms: O_14  and  C_15
REMARK    7  A    between atoms: C_16  and  O_17
REMARK    8  A    between atoms: O_17  and  C_18
REMARK                            x       y       z     vdW  Elec       q    Type
REMARK                         _______ _______ _______ _____ _____    ______ ____
ROOT
ATOM      1  C   UNL     1       2.745   5.779  18.945  0.00  0.00    +0.000 A 
ATOM      2  C   UNL     1       1.971   4.695  19.353  0.00  0.00    +0.000 A 
ATOM      3  N   UNL     1       2.270   3.417  19.082  0.00  0.00    +0.000 NA
ATOM      4  C   UNL     1       3.360   3.169  18.323  0.00  0.00    +0.000 A 
ATOM      5  C   UNL     1       3.583   1.715  18.007  0.00  0.00    +0.000 C 
ATOM      6  C   UNL     1       4.216   4.182  17.836  0.00  0.00    +0.000 A 
ATOM      7  C   UNL     1       5.353   3.905  17.032  0.00  0.00    +0.000 A 
ATOM      8  C   UNL     1       6.188   4.909  16.531  0.00  0.00    +0.000 A 
ATOM      9  C   UNL     1       5.902   6.234  16.868  0.00  0.00    +0.000 A 
ATOM     10  C   UNL     1       4.799   6.522  17.691  0.00  0.00    +0.000 A 
ATOM     11  C   UNL     1       3.909   5.524  18.166  0.00  0.00    +0.000 A 
ENDROOT
BRANCH   1  14
ATOM     12  C   UNL     1       1.633   9.356  18.368  0.00  0.00    +0.000 C 
ATOM     13  N   UNL     1       2.059   7.990  18.166  0.00  0.00    +0.000 N 
ATOM     14  C   UNL     1       2.278   7.159  19.254  0.00  0.00    +0.000 C 
ATOM     15  O   UNL     1       2.158   7.546  20.409  0.00  0.00    +0.000 OA
ATOM     16  H   UNL     1       1.904   7.575  17.251  0.00  0.00    +0.000 HD
ENDBRANCH   1  14
BRANCH   2  17
ATOM     17  O   UNL     1       0.800   4.818  20.049  0.00  0.00    +0.000 OA
ATOM     18  H   UNL     1       0.533   3.932  20.349  0.00  0.00    +0.000 HD
ENDBRANCH   2  17
BRANCH   8  19
ATOM     19  O   UNL     1       7.286   4.665  15.752  0.00  0.00    +0.000 OA
ATOM     20  C   UNL     1       7.142   4.720  14.339  0.00  0.00    +0.000 C 
ENDBRANCH   8  19
BRANCH   9  21
ATOM     21  O   UNL     1       6.636   7.345  16.534  0.00  0.00    +0.000 OA
ATOM     22  C   UNL     1       7.615   7.765  17.478  0.00  0.00    +0.000 C 
ENDBRANCH   9  21
TORSDOF 4
ENDMDL
MODEL 4
REMARK VINA RESULT:      -6.6      2.957      6.622
REMARK  Name = 
REMARK  8 active torsions:
REMARK  status: ('A' for Active; 'I' for Inactive)
REMARK    1  A    between atoms: C_1  and  N_2
REMARK    2  A    between atoms: C_3  and  C_5
REMARK    3  A    between atoms: C_6  and  O_7
REMARK    4  A    between atoms: C_9  and  C_10
REMARK    5  A    between atoms: C_13  and  O_14
REMARK    6  A    between atoms: O_14  and  C_15
REMARK    7  A    between atoms: C_16  and  O_17
REMARK    8  A    between atoms: O_17  and  C_18
REMARK                            x       y       z     vdW  Elec       q    Type
REMARK                         _______ _______ _______ _____ _____    ______ ____
ROOT
ATOM      1  C   UNL     1       6.095   4.616  14.994  0.00  0.00    +0.000 A 
ATOM      2  C   UNL     1       7.236   5.408  14.892  0.00  0.00    +0.000 A 
ATOM      3  N   UNL     1       7.743   6.126  15.904  0.00  0.00    +0.000 NA
ATOM      4  C   UNL     1       7.077   6.119  17.080  0.00  0.00    +0.000 A 
ATOM      5  C   UNL     1       7.674   7.005  18.140  0.00  0.00    +0.000 C 
ATOM      6  C   UNL     1       5.902   5.369  17.305  0.00  0.00    +0.000 A 
ATOM      7  C   UNL     1       5.209   5.380  18.544  0.00  0.00    +0.000 A 
ATOM      8  C   UNL     1       4.033   4.654  18.760  0.00  0.00    +0.000 A 
ATOM      9  C   UNL     1       3.545   3.864  17.717  0.00  0.00    +0.000 A 
ATOM     10  C   UNL     1       4.238   3.815  16.495  0.00  0.00    +0.000 A 
ATOM     11  C   UNL     1       5.402   4.584  16.238  0.00  0.00    +0.000 A 
ENDROOT
BRANCH   1  14
ATOM     12  C   UNL     1       6.122   2.434  11.894  0.00  0.00    +0.000 C 
ATOM     13  N   UNL     1       6.511   3.131  13.098  0.00  0.00    +0.000 N 
ATOM     14  C   UNL     1       5.591   3.911  13.782  0.00  0.00    +0.000 C 
ATOM     15  O   UNL     1       4.444   4.070  13.386  0.00  0.00    +0.000 OA
ATOM     16  H   UNL     1       7.344   2.810  13.585  0.00  0.00    +0.000 HD
ENDBRANCH   1  14
BRANCH   2  17
ATOM     17  O   UNL     1       7.947   5.568  13.735  0.00  0.00    +0.000 OA
ATOM     18  H   UNL     1       8.787   5.085  13.827  0.00  0.00    +0.000 HD
ENDBRANCH   2  17
BRANCH   8  19
ATOM     19  O   UNL     1       3.348   4.654  19.945  0.00  0.00    +0.000 OA
ATOM     20  C   UNL     1       2.238   5.531  20.088  0.00  0.00    +0.000 C 
ENDBRANCH   8  19
BRANCH   9  21
ATOM     21  O   UNL     1       2.452   3.033  17.757  0.00  0.00    +0.000 OA
ATOM     22  C   UNL     1       2.642   1.767  18.379  0.00  0.00    +0.000 C 
ENDBRANCH   9  21
TORSDOF 4
ENDMDL
MODEL 5
REMARK VINA RESULT:      -6.6      3.192      6.444
REMARK  Name = 
REMARK  8 active torsions:
REMARK  status: ('A' for Active; 'I' for Inactive)
REMARK    1  A    between atoms: C_1  and  N_2
REMARK    2  A    between atoms: C_3  and  C_5
REMARK    3  A    between atoms: C_6  and  O_7
REMARK    4  A    between atoms: C_9  and  C_10
REMARK    5  A    between atoms: C_13  and  O_14
REMARK    6  A    between atoms: O_14  and  C_15
REMARK    7  A    between atoms: C_16  and  O_17
REMARK    8  A    between atoms: O_17  and  C_18
REMARK                            x       y       z     vdW  Elec       q    Type
REMARK                         _______ _______ _______ _____ _____    ______ ____
ROOT
ATOM      1  C   UNL     1       6.053   4.426  15.656  0.00  0.00    +0.000 A 
ATOM      2  C   UNL     1       7.202   5.207  15.750  0.00  0.00    +0.000 A 
ATOM      3  N   UNL     1       7.727   5.632  16.907  0.00  0.00    +0.000 NA
ATOM      4  C   UNL     1       7.071   5.327  18.049  0.00  0.00    +0.000 A 
ATOM      5  C   UNL     1       7.688   5.902  19.295  0.00  0.00    +0.000 C 
ATOM      6  C   UNL     1       5.888   4.556  18.085  0.00  0.00    +0.000 A 
ATOM      7  C   UNL     1       5.207   4.252  19.292  0.00  0.00    +0.000 A 
ATOM      8  C   UNL     1       4.023   3.506  19.327  0.00  0.00    +0.000 A 
ATOM      9  C   UNL     1       3.516   3.018  18.120  0.00  0.00    +0.000 A 
ATOM     10  C   UNL     1       4.199   3.281  16.920  0.00  0.00    +0.000 A 
ATOM     11  C   UNL     1       5.370   4.079  16.857  0.00  0.00    +0.000 A 
ENDROOT
BRANCH   1  14
ATOM     12  C   UNL     1       5.979   2.977  12.154  0.00  0.00    +0.000 C 
ATOM     13  N   UNL     1       6.388   3.347  13.489  0.00  0.00    +0.000 N 
ATOM     14  C   UNL     1       5.530   4.065  14.308  0.00  0.00    +0.000 C 
ATOM     15  O   UNL     1       4.427   4.439  13.934  0.00  0.00    +0.000 OA
ATOM     16  H   UNL     1       7.156   2.832  13.911  0.00  0.00    +0.000 HD
ENDBRANCH   1  14
BRANCH   2  17
ATOM     17  O   UNL     1       7.906   5.654  14.666  0.00  0.00    +0.000 OA
ATOM     18  H   UNL     1       8.316   4.885  14.234  0.00  0.00    +0.000 HD
ENDBRANCH   2  17
BRANCH   8  19
ATOM     19  O   UNL     1       3.349   3.206  20.479  0.00  0.00    +0.000 OA
ATOM     20  C   UNL     1       2.529   4.207  21.067  0.00  0.00    +0.000 C 
ENDBRANCH   8  19
BRANCH   9  21
ATOM     21  O   UNL     1       2.414   2.216  17.956  0.00  0.00    +0.000 OA
ATOM     22  C   UNL     1       1.148   2.822  18.186  0.00  0.00    +0.000 C 
ENDBRANCH   9  21
TORSDOF 4
ENDMDL
MODEL 6
REMARK VINA RESULT:      -6.5      2.240      6.105
REMARK  Name = 
REMARK  8 active torsions:
REMARK  status: ('A' for Active; 'I' for Inactive)
REMARK    1  A    between atoms: C_1  and  N_2
REMARK    2  A    between atoms: C_3  and  C_5
REMARK    3  A    between atoms: C_6  and  O_7
REMARK    4  A    between atoms: C_9  and  C_10
REMARK    5  A    between atoms: C_13  and  O_14
REMARK    6  A    between atoms: O_14  and  C_15
REMARK    7  A    between atoms: C_16  and  O_17
REMARK    8  A    between atoms: O_17  and  C_18
REMARK                            x       y       z     vdW  Elec       q    Type
REMARK                         _______ _______ _______ _____ _____    ______ ____
ROOT
ATOM      1  C   UNL     1       4.810   5.321  16.655  0.00  0.00    +0.000 A 
ATOM      2  C   UNL     1       4.805   6.712  16.574  0.00  0.00    +0.000 A 
ATOM      3  N   UNL     1       3.997   7.501  17.295  0.00  0.00    +0.000 NA
ATOM      4  C   UNL     1       3.096   6.909  18.110  0.00  0.00    +0.000 A 
ATOM      5  C   UNL     1       2.181   7.864  18.827  0.00  0.00    +0.000 C 
ATOM      6  C   UNL     1       2.991   5.509  18.268  0.00  0.00    +0.000 A 
ATOM      7  C   UNL     1       2.033   4.903  19.122  0.00  0.00    +0.000 A 
ATOM      8  C   UNL     1       1.914   3.516  19.262  0.00  0.00    +0.000 A 
ATOM      9  C   UNL     1       2.800   2.703  18.551  0.00  0.00    +0.000 A 
ATOM     10  C   UNL     1       3.777   3.290  17.728  0.00  0.00    +0.000 A 
ATOM     11  C   UNL     1       3.880   4.691  17.531  0.00  0.00    +0.000 A 
ENDROOT
BRANCH   1  14
ATOM     12  C   UNL     1       6.141   3.727  13.484  0.00  0.00    +0.000 C 
ATOM     13  N   UNL     1       5.343   4.481  14.423  0.00  0.00    +0.000 N 
ATOM     14  C   UNL     1       5.712   4.546  15.758  0.00  0.00    +0.000 C 
ATOM     15  O   UNL     1       6.689   3.954  16.198  0.00  0.00    +0.000 OA
ATOM     16  H   UNL     1       4.709   5.184  14.052  0.00  0.00    +0.000 HD
ENDBRANCH   1  14
BRANCH   2  17
ATOM     17  O   UNL     1       5.605   7.425  15.725  0.00  0.00    +0.000 OA
ATOM     18  H   UNL     1       5.920   8.214  16.198  0.00  0.00    +0.000 HD
ENDBRANCH   2  17
BRANCH   8  19
ATOM     19  O   UNL     1       0.996   2.911  20.076  0.00  0.00    +0.000 OA
ATOM     20  C   UNL     1       1.307   2.759  21.455  0.00  0.00    +0.000 C 
ENDBRANCH   8  19
BRANCH   9  21
ATOM     21  O   UNL     1       2.887   1.334  18.609  0.00  0.00    +0.000 OA
ATOM     22  C   UNL     1       4.155   0.793  18.958  0.00  0.00    +0.000 C 
ENDBRANCH   9  21
TORSDOF 4
ENDMDL
MODEL 7
REMARK VINA RESULT:      -6.5      2.295      5.336
REMARK  Name = 
REMARK  8 active torsions:
REMARK  status: ('A' for Active; 'I' for Inactive)
REMARK    1  A    between atoms: C_1  and  N_2
REMARK    2  A    between atoms: C_3  and  C_5
REMARK    3  A    between atoms: C_6  and  O_7
REMARK    4  A    between atoms: C_9  and  C_10
REMARK    5  A    between atoms: C_13  and  O_14
REMARK    6  A    between atoms: O_14  and  C_15
REMARK    7  A    between atoms: C_16  and  O_17
REMARK    8  A    between atoms: O_17  and  C_18
REMARK                            x       y       z     vdW  Elec       q    Type
REMARK                         _______ _______ _______ _____ _____    ______ ____
ROOT
ATOM      1  C   UNL     1       4.274   3.822  19.162  0.00  0.00    +0.000 A 
ATOM      2  C   UNL     1       4.195   2.577  19.781  0.00  0.00    +0.000 A 
ATOM      3  N   UNL     1       3.284   2.258  20.710  0.00  0.00    +0.000 NA
ATOM      4  C   UNL     1       2.423   3.221  21.108  0.00  0.00    +0.000 A 
ATOM      5  C   UNL     1       1.481   2.801  22.203  0.00  0.00    +0.000 C 
ATOM      6  C   UNL     1       2.411   4.526  20.568  0.00  0.00    +0.000 A 
ATOM      7  C   UNL     1       1.505   5.528  21.003  0.00  0.00    +0.000 A 
ATOM      8  C   UNL     1       1.507   6.828  20.485  0.00  0.00    +0.000 A 
ATOM      9  C   UNL     1       2.422   7.133  19.475  0.00  0.00    +0.000 A 
ATOM     10  C   UNL     1       3.303   6.142  19.009  0.00  0.00    +0.000 A 
ATOM     11  C   UNL     1       3.353   4.834  19.558  0.00  0.00    +0.000 A 
ENDROOT
BRANCH   1  14
ATOM     12  C   UNL     1       6.136   3.896  15.861  0.00  0.00    +0.000 C 
ATOM     13  N   UNL     1       5.121   3.713  16.873  0.00  0.00    +0.000 N 
ATOM     14  C   UNL     1       5.371   4.079  18.186  0.00  0.00    +0.000 C 
ATOM     15  O   UNL     1       6.449   4.531  18.547  0.00  0.00    +0.000 OA
ATOM     16  H   UNL     1       4.158   3.604  16.565  0.00  0.00    +0.000 HD
ENDBRANCH   1  14
BRANCH   2  17
ATOM     17  O   UNL     1       5.063   1.550  19.530  0.00  0.00    +0.000 OA
ATOM     18  H   UNL     1       5.897   1.739  19.994  0.00  0.00    +0.000 HD
ENDBRANCH   2  17
BRANCH   8  19
ATOM     19  O   UNL     1       0.646   7.809  20.893  0.00  0.00    +0.000 OA
ATOM     20  C   UNL     1       1.091   8.743  21.868  0.00  0.00    +0.000 C 
ENDBRANCH   8  19
BRANCH   9  21
ATOM     21  O   UNL     1       2.533   8.322  18.797  0.00  0.00    +0.000 OA
ATOM     22  C   UNL     1       3.095   8.257  17.492  0.00  0.00    +0.000 C 
ENDBRANCH   9  21
TORSDOF 4
ENDMDL
MODEL 8
REMARK VINA RESULT:      -6.5      2.018      5.389
REMARK  Name = 
REMARK  8 active torsions:
REMARK  status: ('A' for Active; 'I' for Inactive)
REMARK    1  A    between atoms: C_1  and  N_2
REMARK    2  A    between atoms: C_3  and  C_5
REMARK    3  A    between atoms: C_6  and  O_7
REMARK    4  A    between atoms: C_9  and  C_10
REMARK    5  A    between atoms: C_13  and  O_14
REMARK    6  A    between atoms: O_14  and  C_15
REMARK    7  A    between atoms: C_16  and  O_17
REMARK    8  A    between atoms: O_17  and  C_18
REMARK                            x       y       z     vdW  Elec       q    Type
REMARK                         _______ _______ _______ _____ _____    ______ ____
ROOT
ATOM      1  C   UNL     1       3.777   4.505  18.264  0.00  0.00    +0.000 A 
ATOM      2  C   UNL     1       3.747   3.181  18.697  0.00  0.00    +0.000 A 
ATOM      3  N   UNL     1       2.994   2.743  19.715  0.00  0.00    +0.000 NA
ATOM      4  C   UNL     1       2.259   3.651  20.395  0.00  0.00    +0.000 A 
ATOM      5  C   UNL     1       1.499   3.087  21.565  0.00  0.00    +0.000 C 
ATOM      6  C   UNL     1       2.216   5.023  20.064  0.00  0.00    +0.000 A 
ATOM      7  C   UNL     1       1.446   5.965  20.794  0.00  0.00    +0.000 A 
ATOM      8  C   UNL     1       1.421   7.328  20.481  0.00  0.00    +0.000 A 
ATOM      9  C   UNL     1       2.163   7.766  19.382  0.00  0.00    +0.000 A 
ATOM     10  C   UNL     1       2.905   6.839  18.628  0.00  0.00    +0.000 A 
ATOM     11  C   UNL     1       2.986   5.463  18.960  0.00  0.00    +0.000 A 
ENDROOT
BRANCH   1  14
ATOM     12  C   UNL     1       5.483   4.416  14.880  0.00  0.00    +0.000 C 
ATOM     13  N   UNL     1       4.607   4.140  15.995  0.00  0.00    +0.000 N 
ATOM     14  C   UNL     1       4.702   4.885  17.160  0.00  0.00    +0.000 C 
ATOM     15  O   UNL     1       5.537   5.768  17.306  0.00  0.00    +0.000 OA
ATOM     16  H   UNL     1       3.752   3.621  15.810  0.00  0.00    +0.000 HD
ENDBRANCH   1  14
BRANCH   2  17
ATOM     17  O   UNL     1       4.510   2.187  18.150  0.00  0.00    +0.000 OA
ATOM     18  H   UNL     1       5.051   2.577  17.441  0.00  0.00    +0.000 HD
ENDBRANCH   2  17
BRANCH   8  19
ATOM     19  O   UNL     1       0.688   8.253  21.173  0.00  0.00    +0.000 OA
ATOM     20  C   UNL     1       1.335   9.013  22.185  0.00  0.00    +0.000 C 
ENDBRANCH   8  19
BRANCH   9  21
ATOM     21  O   UNL     1       2.212   9.042  18.878  0.00  0.00    +0.000 OA
ATOM     22  C   UNL     1       1.254   9.365  17.877  0.00  0.00    +0.000 C 
ENDBRANCH   9  21
TORSDOF 4
ENDMDL
MODEL 9
REMARK VINA RESULT:      -6.4      2.146      5.425
REMARK  Name = 
REMARK  8 active torsions:
REMARK  status: ('A' for Active; 'I' for Inactive)
REMARK    1  A    between atoms: C_1  and  N_2
REMARK    2  A    between atoms: C_3  and  C_5
REMARK    3  A    between atoms: C_6  and  O_7
REMARK    4  A    between atoms: C_9  and  C_10
REMARK    5  A    between atoms: C_13  and  O_14
REMARK    6  A    between atoms: O_14  and  C_15
REMARK    7  A    between atoms: C_16  and  O_17
REMARK    8  A    between atoms: O_17  and  C_18
REMARK                            x       y       z     vdW  Elec       q    Type
REMARK                         _______ _______ _______ _____ _____    ______ ____
ROOT
ATOM      1  C   UNL     1       4.139   5.304  18.665  0.00  0.00    +0.000 A 
ATOM      2  C   UNL     1       4.346   3.987  19.068  0.00  0.00    +0.000 A 
ATOM      3  N   UNL     1       3.614   3.365  20.003  0.00  0.00    +0.000 NA
ATOM      4  C   UNL     1       2.650   4.077  20.628  0.00  0.00    +0.000 A 
ATOM      5  C   UNL     1       1.924   3.326  21.711  0.00  0.00    +0.000 C 
ATOM      6  C   UNL     1       2.353   5.423  20.321  0.00  0.00    +0.000 A 
ATOM      7  C   UNL     1       1.343   6.159  20.993  0.00  0.00    +0.000 A 
ATOM      8  C   UNL     1       1.063   7.499  20.705  0.00  0.00    +0.000 A 
ATOM      9  C   UNL     1       1.792   8.120  19.688  0.00  0.00    +0.000 A 
ATOM     10  C   UNL     1       2.772   7.395  18.989  0.00  0.00    +0.000 A 
ATOM     11  C   UNL     1       3.108   6.052  19.302  0.00  0.00    +0.000 A 
ENDROOT
BRANCH   1  14
ATOM     12  C   UNL     1       7.295   6.805  17.199  0.00  0.00    +0.000 C 
ATOM     13  N   UNL     1       6.343   6.192  18.095  0.00  0.00    +0.000 N 
ATOM     14  C   UNL     1       5.058   5.907  17.659  0.00  0.00    +0.000 C 
ATOM     15  O   UNL     1       4.670   6.189  16.533  0.00  0.00    +0.000 OA
ATOM     16  H   UNL     1       6.703   5.711  18.915  0.00  0.00    +0.000 HD
ENDBRANCH   1  14
BRANCH   2  17
ATOM     17  O   UNL     1       5.344   3.191  18.576  0.00  0.00    +0.000 OA
ATOM     18  H   UNL     1       4.994   2.288  18.489  0.00  0.00    +0.000 HD
ENDBRANCH   2  17
BRANCH   8  19
ATOM     19  O   UNL     1       0.096   8.227  21.343  0.00  0.00    +0.000 OA
ATOM     20  C   UNL     1       0.490   9.119  22.378  0.00  0.00    +0.000 C 
ENDBRANCH   8  19
BRANCH   9  21
ATOM     21  O   UNL     1       1.618   9.398  19.215  0.00  0.00    +0.000 OA
ATOM     22  C   UNL     1       1.891   9.604  17.834  0.00  0.00    +0.000 C 
ENDBRANCH   9  21
TORSDOF 4
ENDMDL
