MODEL 1
REMARK VINA RESULT:      -7.6      0.000      0.000
REMARK  Name = 
REMARK  11 active torsions:
REMARK  status: ('A' for Active; 'I' for Inactive)
REMARK    1  A    between atoms: C_1  and  O_2
REMARK    2  A    between atoms: O_2  and  C_3
REMARK    3  A    between atoms: C_6  and  C_7
REMARK    4  A    between atoms: C_14  and  C_15
REMARK    5  A    between atoms: N_19  and  C_20
REMARK    6  A    between atoms: C_20  and  C_21
REMARK    7  A    between atoms: C_21  and  N_22
REMARK    8  A    between atoms: N_22  and  C_23
REMARK    9  A    between atoms: C_23  and  C_24
REMARK   10  A    between atoms: C_23  and  C_25
REMARK   11  A    between atoms: C_28  and  C_29
REMARK                            x       y       z     vdW  Elec       q    Type
REMARK                         _______ _______ _______ _____ _____    ______ ____
ROOT
ATOM      1  C   UNL     1       2.829   6.356  17.721  0.00  0.00    +0.000 C 
ATOM      2  C   UNL     1       2.288   5.049  18.467  0.00  0.00    +0.000 C 
ATOM      3  C   UNL     1       3.063   3.915  19.162  0.00  0.00    +0.000 A 
ATOM      4  C   UNL     1       4.342   3.496  18.715  0.00  0.00    +0.000 A 
ATOM      5  C   UNL     1       5.018   2.385  19.241  0.00  0.00    +0.000 A 
ATOM      6  C   UNL     1       4.449   1.648  20.258  0.00  0.00    +0.000 A 
ATOM      7  C   UNL     1       3.191   2.008  20.717  0.00  0.00    +0.000 A 
ATOM      8  C   UNL     1       2.468   3.109  20.177  0.00  0.00    +0.000 A 
ATOM      9  N   UNL     1       5.068   4.263  17.793  0.00  0.00    +0.000 N 
ATOM     10  C   UNL     1       5.138   5.598  18.149  0.00  0.00    +0.000 C 
ATOM     11  O   UNL     1       5.586   5.986  19.232  0.00  0.00    +0.000 OA
ATOM     12  C   UNL     1       4.318   6.495  17.283  0.00  0.00    +0.000 C 
ATOM     13  C   UNL     1       4.988   7.874  17.262  0.00  0.00    +0.000 C 
ENDROOT
BRANCH   1  17
ATOM     14  C   UNL     1       1.061   9.884  19.539  0.00  0.00    +0.000 A 
ATOM     15  C   UNL     1       1.353   9.871  18.174  0.00  0.00    +0.000 A 
ATOM     16  C   UNL     1       1.951   8.754  17.580  0.00  0.00    +0.000 A 
ATOM     17  C   UNL     1       2.274   7.633  18.352  0.00  0.00    +0.000 A 
ATOM     18  C   UNL     1       2.022   7.676  19.737  0.00  0.00    +0.000 A 
ATOM     19  C   UNL     1       1.427   8.794  20.325  0.00  0.00    +0.000 A 
BRANCH  14  21
ATOM     20  C   UNL     1       1.050  12.242  19.665  0.00  0.00    +0.000 C 
ATOM     21  O   UNL     1       0.427  11.005  20.001  0.00  0.00    +0.000 OA
ENDBRANCH  14  21
ENDBRANCH   1  17
BRANCH   8  22
ATOM     22  C   UNL     1       1.079   3.271  20.778  0.00  0.00    +0.000 C 
ATOM     23  F   UNL     1       0.843   2.641  21.954  0.00  0.00    +0.000 F 
ATOM     24  F   UNL     1       0.794   4.587  21.018  0.00  0.00    +0.000 F 
ATOM     25  F   UNL     1       0.103   2.843  19.924  0.00  0.00    +0.000 F 
ENDBRANCH   8  22
BRANCH   9  26
ATOM     26  C   UNL     1       5.083   3.762  16.405  0.00  0.00    +0.000 C 
BRANCH  26  27
ATOM     27  C   UNL     1       6.420   4.027  15.678  0.00  0.00    +0.000 C 
BRANCH  27  28
ATOM     28  N   UNL     1       6.232   4.736  14.411  0.00  0.00    +0.000 NA
ATOM     29  H   UNL     1       6.625   5.675  14.476  0.00  0.00    +0.000 HD
BRANCH  28  30
ATOM     30  C   UNL     1       6.796   4.031  13.255  0.00  0.00    +0.000 C 
ATOM     31  C   UNL     1       5.713   3.384  12.385  0.00  0.00    +0.000 C 
ATOM     32  C   UNL     1       7.588   5.034  12.415  0.00  0.00    +0.000 C 
ENDBRANCH  28  30
ENDBRANCH  27  28
ENDBRANCH  26  27
ENDBRANCH   9  26
TORSDOF 7
ENDMDL
MODEL 2
REMARK VINA RESULT:      -7.5      0.576      1.093
REMARK  Name = 
REMARK  11 active torsions:
REMARK  status: ('A' for Active; 'I' for Inactive)
REMARK    1  A    between atoms: C_1  and  O_2
REMARK    2  A    between atoms: O_2  and  C_3
REMARK    3  A    between atoms: C_6  and  C_7
REMARK    4  A    between atoms: C_14  and  C_15
REMARK    5  A    between atoms: N_19  and  C_20
REMARK    6  A    between atoms: C_20  and  C_21
REMARK    7  A    between atoms: C_21  and  N_22
REMARK    8  A    between atoms: N_22  and  C_23
REMARK    9  A    between atoms: C_23  and  C_24
REMARK   10  A    between atoms: C_23  and  C_25
REMARK   11  A    between atoms: C_28  and  C_29
REMARK                            x       y       z     vdW  Elec       q    Type
REMARK                         _______ _______ _______ _____ _____    ______ ____
ROOT
ATOM      1  C   UNL     1       2.699   6.595  17.672  0.00  0.00    +0.000 C 
ATOM      2  C   UNL     1       2.153   5.228  18.298  0.00  0.00    +0.000 C 
ATOM      3  C   UNL     1       2.924   4.027  18.876  0.00  0.00    +0.000 A 
ATOM      4  C   UNL     1       4.195   3.643  18.381  0.00  0.00    +0.000 A 
ATOM      5  C   UNL     1       4.865   2.482  18.794  0.00  0.00    +0.000 A 
ATOM      6  C   UNL     1       4.299   1.657  19.742  0.00  0.00    +0.000 A 
ATOM      7  C   UNL     1       3.048   1.983  20.245  0.00  0.00    +0.000 A 
ATOM      8  C   UNL     1       2.331   3.135  19.817  0.00  0.00    +0.000 A 
ATOM      9  N   UNL     1       4.920   4.487  17.527  0.00  0.00    +0.000 N 
ATOM     10  C   UNL     1       5.004   5.782  18.006  0.00  0.00    +0.000 C 
ATOM     11  O   UNL     1       5.465   6.063  19.116  0.00  0.00    +0.000 OA
ATOM     12  C   UNL     1       4.185   6.762  17.236  0.00  0.00    +0.000 C 
ATOM     13  C   UNL     1       4.867   8.132  17.337  0.00  0.00    +0.000 C 
ENDROOT
BRANCH   1  17
ATOM     14  C   UNL     1       0.981   9.946  19.840  0.00  0.00    +0.000 A 
ATOM     15  C   UNL     1       1.190  10.036  18.463  0.00  0.00    +0.000 A 
ATOM     16  C   UNL     1       1.770   8.976  17.756  0.00  0.00    +0.000 A 
ATOM     17  C   UNL     1       2.160   7.811  18.425  0.00  0.00    +0.000 A 
ATOM     18  C   UNL     1       1.993   7.751  19.822  0.00  0.00    +0.000 A 
ATOM     19  C   UNL     1       1.415   8.811  20.523  0.00  0.00    +0.000 A 
BRANCH  14  21
ATOM     20  C   UNL     1      -0.766  11.528  19.704  0.00  0.00    +0.000 C 
ATOM     21  O   UNL     1       0.357  11.017  20.418  0.00  0.00    +0.000 OA
ENDBRANCH  14  21
ENDBRANCH   1  17
BRANCH   8  22
ATOM     22  C   UNL     1       0.947   3.251  20.444  0.00  0.00    +0.000 C 
ATOM     23  F   UNL     1       0.492   4.501  20.695  0.00  0.00    +0.000 F 
ATOM     24  F   UNL     1      -0.006   2.679  19.647  0.00  0.00    +0.000 F 
ATOM     25  F   UNL     1       0.870   2.581  21.631  0.00  0.00    +0.000 F 
ENDBRANCH   8  22
BRANCH   9  26
ATOM     26  C   UNL     1       4.918   4.118  16.099  0.00  0.00    +0.000 C 
BRANCH  26  27
ATOM     27  C   UNL     1       6.320   4.184  15.453  0.00  0.00    +0.000 C 
BRANCH  27  28
ATOM     28  N   UNL     1       6.414   3.363  14.244  0.00  0.00    +0.000 NA
ATOM     29  H   UNL     1       5.808   2.547  14.329  0.00  0.00    +0.000 HD
BRANCH  28  30
ATOM     30  C   UNL     1       6.105   4.097  13.012  0.00  0.00    +0.000 C 
ATOM     31  C   UNL     1       7.367   4.501  12.245  0.00  0.00    +0.000 C 
ATOM     32  C   UNL     1       5.235   3.205  12.123  0.00  0.00    +0.000 C 
ENDBRANCH  28  30
ENDBRANCH  27  28
ENDBRANCH  26  27
ENDBRANCH   9  26
TORSDOF 7
ENDMDL
MODEL 3
REMARK VINA RESULT:      -7.2      0.400      1.166
REMARK  Name = 
REMARK  11 active torsions:
REMARK  status: ('A' for Active; 'I' for Inactive)
REMARK    1  A    between atoms: C_1  and  O_2
REMARK    2  A    between atoms: O_2  and  C_3
REMARK    3  A    between atoms: C_6  and  C_7
REMARK    4  A    between atoms: C_14  and  C_15
REMARK    5  A    between atoms: N_19  and  C_20
REMARK    6  A    between atoms: C_20  and  C_21
REMARK    7  A    between atoms: C_21  and  N_22
REMARK    8  A    between atoms: N_22  and  C_23
REMARK    9  A    between atoms: C_23  and  C_24
REMARK   10  A    between atoms: C_23  and  C_25
REMARK   11  A    between atoms: C_28  and  C_29
REMARK                            x       y       z     vdW  Elec       q    Type
REMARK                         _______ _______ _______ _____ _____    ______ ____
ROOT
ATOM      1  C   UNL     1       2.814   6.458  17.690  0.00  0.00    +0.000 C 
ATOM      2  C   UNL     1       2.275   5.107  18.355  0.00  0.00    +0.000 C 
ATOM      3  C   UNL     1       3.046   3.971  19.052  0.00  0.00    +0.000 A 
ATOM      4  C   UNL     1       4.361   3.610  18.666  0.00  0.00    +0.000 A 
ATOM      5  C   UNL     1       5.042   2.501  19.189  0.00  0.00    +0.000 A 
ATOM      6  C   UNL     1       4.442   1.709  20.143  0.00  0.00    +0.000 A 
ATOM      7  C   UNL     1       3.149   2.012  20.542  0.00  0.00    +0.000 A 
ATOM      8  C   UNL     1       2.422   3.110  20.000  0.00  0.00    +0.000 A 
ATOM      9  N   UNL     1       5.113   4.434  17.816  0.00  0.00    +0.000 N 
ATOM     10  C   UNL     1       5.118   5.756  18.224  0.00  0.00    +0.000 C 
ATOM     11  O   UNL     1       5.491   6.116  19.345  0.00  0.00    +0.000 OA
ATOM     12  C   UNL     1       4.320   6.660  17.345  0.00  0.00    +0.000 C 
ATOM     13  C   UNL     1       4.944   8.059  17.413  0.00  0.00    +0.000 C 
ENDROOT
BRANCH   1  17
ATOM     14  C   UNL     1       1.205  10.066  19.499  0.00  0.00    +0.000 A 
ATOM     15  C   UNL     1       1.452   8.939  20.285  0.00  0.00    +0.000 A 
ATOM     16  C   UNL     1       1.942   7.760  19.711  0.00  0.00    +0.000 A 
ATOM     17  C   UNL     1       2.181   7.692  18.334  0.00  0.00    +0.000 A 
ATOM     18  C   UNL     1       1.880   8.817  17.544  0.00  0.00    +0.000 A 
ATOM     19  C   UNL     1       1.391   9.990  18.120  0.00  0.00    +0.000 A 
BRANCH  14  21
ATOM     20  C   UNL     1      -0.602  11.490  20.030  0.00  0.00    +0.000 C 
ATOM     21  O   UNL     1       0.781  11.179  20.173  0.00  0.00    +0.000 OA
ENDBRANCH  14  21
ENDBRANCH   1  17
BRANCH   8  22
ATOM     22  C   UNL     1       0.995   3.205  20.526  0.00  0.00    +0.000 C 
ATOM     23  F   UNL     1       0.015   2.724  19.725  0.00  0.00    +0.000 F 
ATOM     24  F   UNL     1       0.856   2.526  21.705  0.00  0.00    +0.000 F 
ATOM     25  F   UNL     1       0.645   4.493  20.811  0.00  0.00    +0.000 F 
ENDBRANCH   8  22
BRANCH   9  26
ATOM     26  C   UNL     1       5.224   3.988  16.414  0.00  0.00    +0.000 C 
BRANCH  26  27
ATOM     27  C   UNL     1       6.584   4.337  15.770  0.00  0.00    +0.000 C 
BRANCH  27  28
ATOM     28  N   UNL     1       6.431   4.992  14.469  0.00  0.00    +0.000 NA
ATOM     29  H   UNL     1       7.026   5.818  14.422  0.00  0.00    +0.000 HD
BRANCH  28  30
ATOM     30  C   UNL     1       6.703   4.106  13.332  0.00  0.00    +0.000 C 
ATOM     31  C   UNL     1       5.419   3.592  12.675  0.00  0.00    +0.000 C 
ATOM     32  C   UNL     1       7.525   4.882  12.301  0.00  0.00    +0.000 C 
ENDBRANCH  28  30
ENDBRANCH  27  28
ENDBRANCH  26  27
ENDBRANCH   9  26
TORSDOF 7
ENDMDL
MODEL 4
REMARK VINA RESULT:      -6.6      9.290     12.850
REMARK  Name = 
REMARK  11 active torsions:
REMARK  status: ('A' for Active; 'I' for Inactive)
REMARK    1  A    between atoms: C_1  and  O_2
REMARK    2  A    between atoms: O_2  and  C_3
REMARK    3  A    between atoms: C_6  and  C_7
REMARK    4  A    between atoms: C_14  and  C_15
REMARK    5  A    between atoms: N_19  and  C_20
REMARK    6  A    between atoms: C_20  and  C_21
REMARK    7  A    between atoms: C_21  and  N_22
REMARK    8  A    between atoms: N_22  and  C_23
REMARK    9  A    between atoms: C_23  and  C_24
REMARK   10  A    between atoms: C_23  and  C_25
REMARK   11  A    between atoms: C_28  and  C_29
REMARK                            x       y       z     vdW  Elec       q    Type
REMARK                         _______ _______ _______ _____ _____    ______ ____
ROOT
ATOM      1  C   UNL     1      -5.004  12.871  19.321  0.00  0.00    +0.000 C 
ATOM      2  C   UNL     1      -4.048  13.004  20.597  0.00  0.00    +0.000 C 
ATOM      3  C   UNL     1      -4.340  12.733  22.084  0.00  0.00    +0.000 A 
ATOM      4  C   UNL     1      -5.623  12.945  22.648  0.00  0.00    +0.000 A 
ATOM      5  C   UNL     1      -5.891  12.832  24.020  0.00  0.00    +0.000 A 
ATOM      6  C   UNL     1      -4.885  12.481  24.895  0.00  0.00    +0.000 A 
ATOM      7  C   UNL     1      -3.608  12.280  24.393  0.00  0.00    +0.000 A 
ATOM      8  C   UNL     1      -3.301  12.423  23.010  0.00  0.00    +0.000 A 
ATOM      9  N   UNL     1      -6.742  13.159  21.830  0.00  0.00    +0.000 N 
ATOM     10  C   UNL     1      -6.851  12.218  20.822  0.00  0.00    +0.000 C 
ATOM     11  O   UNL     1      -6.901  11.003  21.033  0.00  0.00    +0.000 OA
ATOM     12  C   UNL     1      -6.551  12.756  19.463  0.00  0.00    +0.000 C 
ATOM     13  C   UNL     1      -7.358  11.945  18.443  0.00  0.00    +0.000 C 
ENDROOT
BRANCH   1  17
ATOM     14  C   UNL     1      -3.187  10.234  16.384  0.00  0.00    +0.000 A 
ATOM     15  C   UNL     1      -4.232  11.082  16.013  0.00  0.00    +0.000 A 
ATOM     16  C   UNL     1      -4.848  11.915  16.954  0.00  0.00    +0.000 A 
ATOM     17  C   UNL     1      -4.428  11.901  18.289  0.00  0.00    +0.000 A 
ATOM     18  C   UNL     1      -3.409  11.005  18.663  0.00  0.00    +0.000 A 
ATOM     19  C   UNL     1      -2.799  10.176  17.720  0.00  0.00    +0.000 A 
BRANCH  14  21
ATOM     20  C   UNL     1      -3.006   9.894  14.054  0.00  0.00    +0.000 C 
ATOM     21  O   UNL     1      -2.624   9.507  15.371  0.00  0.00    +0.000 OA
ENDBRANCH  14  21
ENDBRANCH   1  17
BRANCH   8  22
ATOM     22  C   UNL     1      -1.823  12.231  22.699  0.00  0.00    +0.000 C 
ATOM     23  F   UNL     1      -1.494  12.002  21.405  0.00  0.00    +0.000 F 
ATOM     24  F   UNL     1      -1.095  13.332  23.059  0.00  0.00    +0.000 F 
ATOM     25  F   UNL     1      -1.284  11.197  23.409  0.00  0.00    +0.000 F 
ENDBRANCH   8  22
BRANCH   9  26
ATOM     26  C   UNL     1      -7.215  14.553  21.734  0.00  0.00    +0.000 C 
BRANCH  26  27
ATOM     27  C   UNL     1      -6.064  15.581  21.657  0.00  0.00    +0.000 C 
BRANCH  27  28
ATOM     28  N   UNL     1      -6.074  16.510  22.789  0.00  0.00    +0.000 NA
ATOM     29  H   UNL     1      -6.646  16.133  23.544  0.00  0.00    +0.000 HD
BRANCH  28  30
ATOM     30  C   UNL     1      -4.734  16.843  23.285  0.00  0.00    +0.000 C 
ATOM     31  C   UNL     1      -4.436  16.186  24.637  0.00  0.00    +0.000 C 
ATOM     32  C   UNL     1      -3.706  16.372  22.255  0.00  0.00    +0.000 C 
ENDBRANCH  28  30
ENDBRANCH  27  28
ENDBRANCH  26  27
ENDBRANCH   9  26
TORSDOF 7
ENDMDL
MODEL 5
REMARK VINA RESULT:      -6.6      1.291      1.624
REMARK  Name = 
REMARK  11 active torsions:
REMARK  status: ('A' for Active; 'I' for Inactive)
REMARK    1  A    between atoms: C_1  and  O_2
REMARK    2  A    between atoms: O_2  and  C_3
REMARK    3  A    between atoms: C_6  and  C_7
REMARK    4  A    between atoms: C_14  and  C_15
REMARK    5  A    between atoms: N_19  and  C_20
REMARK    6  A    between atoms: C_20  and  C_21
REMARK    7  A    between atoms: C_21  and  N_22
REMARK    8  A    between atoms: N_22  and  C_23
REMARK    9  A    between atoms: C_23  and  C_24
REMARK   10  A    between atoms: C_23  and  C_25
REMARK   11  A    between atoms: C_28  and  C_29
REMARK                            x       y       z     vdW  Elec       q    Type
REMARK                         _______ _______ _______ _____ _____    ______ ____
ROOT
ATOM      1  C   UNL     1       2.734   6.684  17.523  0.00  0.00    +0.000 C 
ATOM      2  C   UNL     1       2.111   5.223  17.713  0.00  0.00    +0.000 C 
ATOM      3  C   UNL     1       2.812   3.874  17.959  0.00  0.00    +0.000 A 
ATOM      4  C   UNL     1       4.094   3.586  17.429  0.00  0.00    +0.000 A 
ATOM      5  C   UNL     1       4.705   2.327  17.524  0.00  0.00    +0.000 A 
ATOM      6  C   UNL     1       4.063   1.296  18.175  0.00  0.00    +0.000 A 
ATOM      7  C   UNL     1       2.798   1.523  18.697  0.00  0.00    +0.000 A 
ATOM      8  C   UNL     1       2.141   2.781  18.582  0.00  0.00    +0.000 A 
ATOM      9  N   UNL     1       4.891   4.602  16.881  0.00  0.00    +0.000 N 
ATOM     10  C   UNL     1       4.991   5.705  17.711  0.00  0.00    +0.000 C 
ATOM     11  O   UNL     1       5.400   5.641  18.873  0.00  0.00    +0.000 OA
ATOM     12  C   UNL     1       4.245   6.899  17.216  0.00  0.00    +0.000 C 
ATOM     13  C   UNL     1       4.964   8.153  17.730  0.00  0.00    +0.000 C 
ENDROOT
BRANCH   1  17
ATOM     14  C   UNL     1       1.020   9.347  20.499  0.00  0.00    +0.000 A 
ATOM     15  C   UNL     1       1.152   9.768  19.175  0.00  0.00    +0.000 A 
ATOM     16  C   UNL     1       1.730   8.933  18.212  0.00  0.00    +0.000 A 
ATOM     17  C   UNL     1       2.194   7.662  18.567  0.00  0.00    +0.000 A 
ATOM     18  C   UNL     1       2.103   7.267  19.915  0.00  0.00    +0.000 A 
ATOM     19  C   UNL     1       1.527   8.104  20.872  0.00  0.00    +0.000 A 
BRANCH  14  21
ATOM     20  C   UNL     1       0.125   9.725  22.651  0.00  0.00    +0.000 C 
ATOM     21  O   UNL     1       0.391  10.222  21.342  0.00  0.00    +0.000 OA
ENDBRANCH  14  21
ENDBRANCH   1  17
BRANCH   8  22
ATOM     22  C   UNL     1       0.731   2.779  19.157  0.00  0.00    +0.000 C 
ATOM     23  F   UNL     1       0.560   3.376  20.361  0.00  0.00    +0.000 F 
ATOM     24  F   UNL     1      -0.146   3.411  18.319  0.00  0.00    +0.000 F 
ATOM     25  F   UNL     1       0.242   1.511  19.297  0.00  0.00    +0.000 F 
ENDBRANCH   8  22
BRANCH   9  26
ATOM     26  C   UNL     1       4.954   4.651  15.408  0.00  0.00    +0.000 C 
BRANCH  26  27
ATOM     27  C   UNL     1       6.331   4.234  14.845  0.00  0.00    +0.000 C 
BRANCH  27  28
ATOM     28  N   UNL     1       6.223   3.163  13.852  0.00  0.00    +0.000 NA
ATOM     29  H   UNL     1       5.418   2.573  14.061  0.00  0.00    +0.000 HD
BRANCH  28  30
ATOM     30  C   UNL     1       6.148   3.650  12.470  0.00  0.00    +0.000 C 
ATOM     31  C   UNL     1       7.212   3.013  11.571  0.00  0.00    +0.000 C 
ATOM     32  C   UNL     1       4.758   3.326  11.918  0.00  0.00    +0.000 C 
ENDBRANCH  28  30
ENDBRANCH  27  28
ENDBRANCH  26  27
ENDBRANCH   9  26
TORSDOF 7
ENDMDL
MODEL 6
REMARK VINA RESULT:      -6.5      6.685     10.534
REMARK  Name = 
REMARK  11 active torsions:
REMARK  status: ('A' for Active; 'I' for Inactive)
REMARK    1  A    between atoms: C_1  and  O_2
REMARK    2  A    between atoms: O_2  and  C_3
REMARK    3  A    between atoms: C_6  and  C_7
REMARK    4  A    between atoms: C_14  and  C_15
REMARK    5  A    between atoms: N_19  and  C_20
REMARK    6  A    between atoms: C_20  and  C_21
REMARK    7  A    between atoms: C_21  and  N_22
REMARK    8  A    between atoms: N_22  and  C_23
REMARK    9  A    between atoms: C_23  and  C_24
REMARK   10  A    between atoms: C_23  and  C_25
REMARK   11  A    between atoms: C_28  and  C_29
REMARK                            x       y       z     vdW  Elec       q    Type
REMARK                         _______ _______ _______ _____ _____    ______ ____
ROOT
ATOM      1  C   UNL     1       1.360  13.332  20.854  0.00  0.00    +0.000 C 
ATOM      2  C   UNL     1       1.070  11.893  20.217  0.00  0.00    +0.000 C 
ATOM      3  C   UNL     1      -0.085  11.426  19.313  0.00  0.00    +0.000 A 
ATOM      4  C   UNL     1      -1.388  11.976  19.415  0.00  0.00    +0.000 A 
ATOM      5  C   UNL     1      -2.490  11.487  18.699  0.00  0.00    +0.000 A 
ATOM      6  C   UNL     1      -2.335  10.430  17.828  0.00  0.00    +0.000 A 
ATOM      7  C   UNL     1      -1.083   9.847  17.707  0.00  0.00    +0.000 A 
ATOM      8  C   UNL     1       0.045  10.301  18.448  0.00  0.00    +0.000 A 
ATOM      9  N   UNL     1      -1.620  13.144  20.156  0.00  0.00    +0.000 N 
ATOM     10  C   UNL     1      -0.733  14.158  19.842  0.00  0.00    +0.000 C 
ATOM     11  O   UNL     1      -0.583  14.593  18.697  0.00  0.00    +0.000 OA
ATOM     12  C   UNL     1       0.265  14.439  20.915  0.00  0.00    +0.000 C 
ATOM     13  C   UNL     1       0.660  15.917  20.820  0.00  0.00    +0.000 C 
ENDROOT
BRANCH   1  17
ATOM     14  C   UNL     1       5.177  15.056  19.697  0.00  0.00    +0.000 A 
ATOM     15  C   UNL     1       4.272  14.638  18.720  0.00  0.00    +0.000 A 
ATOM     16  C   UNL     1       3.052  14.053  19.077  0.00  0.00    +0.000 A 
ATOM     17  C   UNL     1       2.725  13.869  20.425  0.00  0.00    +0.000 A 
ATOM     18  C   UNL     1       3.666  14.247  21.401  0.00  0.00    +0.000 A 
ATOM     19  C   UNL     1       4.883  14.829  21.040  0.00  0.00    +0.000 A 
BRANCH  14  21
ATOM     20  C   UNL     1       6.843  15.129  18.026  0.00  0.00    +0.000 C 
ATOM     21  O   UNL     1       6.312  15.664  19.236  0.00  0.00    +0.000 OA
ENDBRANCH  14  21
ENDBRANCH   1  17
BRANCH   8  22
ATOM     22  C   UNL     1       1.295   9.464  18.214  0.00  0.00    +0.000 C 
ATOM     23  F   UNL     1       1.812   8.821  19.289  0.00  0.00    +0.000 F 
ATOM     24  F   UNL     1       1.068   8.482  17.289  0.00  0.00    +0.000 F 
ATOM     25  F   UNL     1       2.317  10.210  17.700  0.00  0.00    +0.000 F 
ENDBRANCH   8  22
BRANCH   9  26
ATOM     26  C   UNL     1      -2.247  12.956  21.479  0.00  0.00    +0.000 C 
BRANCH  26  27
ATOM     27  C   UNL     1      -3.702  13.471  21.539  0.00  0.00    +0.000 C 
BRANCH  27  28
ATOM     28  N   UNL     1      -4.601  12.518  22.192  0.00  0.00    +0.000 NA
ATOM     29  H   UNL     1      -4.128  11.625  22.323  0.00  0.00    +0.000 HD
BRANCH  28  30
ATOM     30  C   UNL     1      -5.137  12.999  23.471  0.00  0.00    +0.000 C 
ATOM     31  C   UNL     1      -4.325  12.493  24.667  0.00  0.00    +0.000 C 
ATOM     32  C   UNL     1      -5.121  14.528  23.457  0.00  0.00    +0.000 C 
ENDBRANCH  28  30
ENDBRANCH  27  28
ENDBRANCH  26  27
ENDBRANCH   9  26
TORSDOF 7
ENDMDL
MODEL 7
REMARK VINA RESULT:      -6.4      9.261     11.943
REMARK  Name = 
REMARK  11 active torsions:
REMARK  status: ('A' for Active; 'I' for Inactive)
REMARK    1  A    between atoms: C_1  and  O_2
REMARK    2  A    between atoms: O_2  and  C_3
REMARK    3  A    between atoms: C_6  and  C_7
REMARK    4  A    between atoms: C_14  and  C_15
REMARK    5  A    between atoms: N_19  and  C_20
REMARK    6  A    between atoms: C_20  and  C_21
REMARK    7  A    between atoms: C_21  and  N_22
REMARK    8  A    between atoms: N_22  and  C_23
REMARK    9  A    between atoms: C_23  and  C_24
REMARK   10  A    between atoms: C_23  and  C_25
REMARK   11  A    between atoms: C_28  and  C_29
REMARK                            x       y       z     vdW  Elec       q    Type
REMARK                         _______ _______ _______ _____ _____    ______ ____
ROOT
ATOM      1  C   UNL     1      -0.594  13.016  21.177  0.00  0.00    +0.000 C 
ATOM      2  C   UNL     1      -1.509  12.154  20.188  0.00  0.00    +0.000 C 
ATOM      3  C   UNL     1      -3.005  12.292  19.852  0.00  0.00    +0.000 A 
ATOM      4  C   UNL     1      -3.948  12.756  20.804  0.00  0.00    +0.000 A 
ATOM      5  C   UNL     1      -5.332  12.772  20.575  0.00  0.00    +0.000 A 
ATOM      6  C   UNL     1      -5.838  12.339  19.368  0.00  0.00    +0.000 A 
ATOM      7  C   UNL     1      -4.956  11.860  18.411  0.00  0.00    +0.000 A 
ATOM      8  C   UNL     1      -3.551  11.799  18.631  0.00  0.00    +0.000 A 
ATOM      9  N   UNL     1      -3.528  13.354  22.001  0.00  0.00    +0.000 N 
ATOM     10  C   UNL     1      -2.581  14.341  21.797  0.00  0.00    +0.000 C 
ATOM     11  O   UNL     1      -2.766  15.315  21.062  0.00  0.00    +0.000 OA
ATOM     12  C   UNL     1      -1.210  13.962  22.250  0.00  0.00    +0.000 C 
ATOM     13  C   UNL     1      -0.474  15.244  22.658  0.00  0.00    +0.000 C 
ENDROOT
BRANCH   1  17
ATOM     14  C   UNL     1       2.735  14.662  18.923  0.00  0.00    +0.000 A 
ATOM     15  C   UNL     1       2.975  13.858  20.039  0.00  0.00    +0.000 A 
ATOM     16  C   UNL     1       1.913  13.346  20.793  0.00  0.00    +0.000 A 
ATOM     17  C   UNL     1       0.591  13.642  20.442  0.00  0.00    +0.000 A 
ATOM     18  C   UNL     1       0.362  14.495  19.345  0.00  0.00    +0.000 A 
ATOM     19  C   UNL     1       1.425  15.005  18.597  0.00  0.00    +0.000 A 
BRANCH  14  21
ATOM     20  C   UNL     1       5.064  15.050  18.966  0.00  0.00    +0.000 C 
ATOM     21  O   UNL     1       3.845  15.061  18.228  0.00  0.00    +0.000 OA
ENDBRANCH  14  21
ENDBRANCH   1  17
BRANCH   8  22
ATOM     22  C   UNL     1      -2.787  11.167  17.475  0.00  0.00    +0.000 C 
ATOM     23  F   UNL     1      -2.227   9.955  17.702  0.00  0.00    +0.000 F 
ATOM     24  F   UNL     1      -3.597  10.985  16.388  0.00  0.00    +0.000 F 
ATOM     25  F   UNL     1      -1.774  11.969  17.036  0.00  0.00    +0.000 F 
ENDBRANCH   8  22
BRANCH   9  26
ATOM     26  C   UNL     1      -3.620  12.514  23.210  0.00  0.00    +0.000 C 
BRANCH  26  27
ATOM     27  C   UNL     1      -4.552  13.105  24.290  0.00  0.00    +0.000 C 
BRANCH  27  28
ATOM     28  N   UNL     1      -5.747  12.285  24.501  0.00  0.00    +0.000 NA
ATOM     29  H   UNL     1      -5.759  11.925  25.455  0.00  0.00    +0.000 HD
BRANCH  28  30
ATOM     30  C   UNL     1      -7.000  12.989  24.210  0.00  0.00    +0.000 C 
ATOM     31  C   UNL     1      -6.760  14.394  23.650  0.00  0.00    +0.000 C 
ATOM     32  C   UNL     1      -7.792  12.166  23.192  0.00  0.00    +0.000 C 
ENDBRANCH  28  30
ENDBRANCH  27  28
ENDBRANCH  26  27
ENDBRANCH   9  26
TORSDOF 7
ENDMDL
MODEL 8
REMARK VINA RESULT:      -6.3      6.694      9.559
REMARK  Name = 
REMARK  11 active torsions:
REMARK  status: ('A' for Active; 'I' for Inactive)
REMARK    1  A    between atoms: C_1  and  O_2
REMARK    2  A    between atoms: O_2  and  C_3
REMARK    3  A    between atoms: C_6  and  C_7
REMARK    4  A    between atoms: C_14  and  C_15
REMARK    5  A    between atoms: N_19  and  C_20
REMARK    6  A    between atoms: C_20  and  C_21
REMARK    7  A    between atoms: C_21  and  N_22
REMARK    8  A    between atoms: N_22  and  C_23
REMARK    9  A    between atoms: C_23  and  C_24
REMARK   10  A    between atoms: C_23  and  C_25
REMARK   11  A    between atoms: C_28  and  C_29
REMARK                            x       y       z     vdW  Elec       q    Type
REMARK                         _______ _______ _______ _____ _____    ______ ____
ROOT
ATOM      1  C   UNL     1      -1.645  13.853  20.601  0.00  0.00    +0.000 C 
ATOM      2  C   UNL     1      -1.622  12.893  19.322  0.00  0.00    +0.000 C 
ATOM      3  C   UNL     1      -0.757  11.653  19.032  0.00  0.00    +0.000 A 
ATOM      4  C   UNL     1       0.567  11.530  19.523  0.00  0.00    +0.000 A 
ATOM      5  C   UNL     1       1.425  10.477  19.172  0.00  0.00    +0.000 A 
ATOM      6  C   UNL     1       0.989   9.482  18.324  0.00  0.00    +0.000 A 
ATOM      7  C   UNL     1      -0.294   9.567  17.805  0.00  0.00    +0.000 A 
ATOM      8  C   UNL     1      -1.173  10.643  18.115  0.00  0.00    +0.000 A 
ATOM      9  N   UNL     1       1.055  12.405  20.504  0.00  0.00    +0.000 N 
ATOM     10  C   UNL     1       0.193  12.531  21.579  0.00  0.00    +0.000 C 
ATOM     11  O   UNL     1      -0.198  11.570  22.247  0.00  0.00    +0.000 OA
ATOM     12  C   UNL     1      -0.492  13.854  21.648  0.00  0.00    +0.000 C 
ATOM     13  C   UNL     1      -0.792  14.156  23.121  0.00  0.00    +0.000 C 
ENDROOT
BRANCH   1  17
ATOM     14  C   UNL     1      -5.496  14.061  22.604  0.00  0.00    +0.000 A 
ATOM     15  C   UNL     1      -4.886  12.825  22.385  0.00  0.00    +0.000 A 
ATOM     16  C   UNL     1      -3.661  12.739  21.714  0.00  0.00    +0.000 A 
ATOM     17  C   UNL     1      -3.032  13.897  21.243  0.00  0.00    +0.000 A 
ATOM     18  C   UNL     1      -3.680  15.134  21.424  0.00  0.00    +0.000 A 
ATOM     19  C   UNL     1      -4.903  15.214  22.092  0.00  0.00    +0.000 A 
BRANCH  14  21
ATOM     20  C   UNL     1      -6.978  12.778  23.920  0.00  0.00    +0.000 C 
ATOM     21  O   UNL     1      -6.662  14.031  23.318  0.00  0.00    +0.000 OA
ENDBRANCH  14  21
ENDBRANCH   1  17
BRANCH   8  22
ATOM     22  C   UNL     1      -2.500  10.571  17.371  0.00  0.00    +0.000 C 
ATOM     23  F   UNL     1      -3.625  10.717  18.110  0.00  0.00    +0.000 F 
ATOM     24  F   UNL     1      -2.580  11.539  16.408  0.00  0.00    +0.000 F 
ATOM     25  F   UNL     1      -2.643   9.389  16.702  0.00  0.00    +0.000 F 
ENDBRANCH   8  22
BRANCH   9  26
ATOM     26  C   UNL     1       1.969  13.462  20.031  0.00  0.00    +0.000 C 
BRANCH  26  27
ATOM     27  C   UNL     1       1.734  13.851  18.554  0.00  0.00    +0.000 C 
BRANCH  27  28
ATOM     28  N   UNL     1       2.983  13.917  17.793  0.00  0.00    +0.000 NA
ATOM     29  H   UNL     1       2.782  13.919  16.793  0.00  0.00    +0.000 HD
BRANCH  28  30
ATOM     30  C   UNL     1       3.822  15.069  18.142  0.00  0.00    +0.000 C 
ATOM     31  C   UNL     1       5.303  14.823  17.834  0.00  0.00    +0.000 C 
ATOM     32  C   UNL     1       3.334  16.282  17.348  0.00  0.00    +0.000 C 
ENDBRANCH  28  30
ENDBRANCH  27  28
ENDBRANCH  26  27
ENDBRANCH   9  26
TORSDOF 7
ENDMDL
MODEL 9
REMARK VINA RESULT:      -6.3      6.710     10.326
REMARK  Name = 
REMARK  11 active torsions:
REMARK  status: ('A' for Active; 'I' for Inactive)
REMARK    1  A    between atoms: C_1  and  O_2
REMARK    2  A    between atoms: O_2  and  C_3
REMARK    3  A    between atoms: C_6  and  C_7
REMARK    4  A    between atoms: C_14  and  C_15
REMARK    5  A    between atoms: N_19  and  C_20
REMARK    6  A    between atoms: C_20  and  C_21
REMARK    7  A    between atoms: C_21  and  N_22
REMARK    8  A    between atoms: N_22  and  C_23
REMARK    9  A    between atoms: C_23  and  C_24
REMARK   10  A    between atoms: C_23  and  C_25
REMARK   11  A    between atoms: C_28  and  C_29
REMARK                            x       y       z     vdW  Elec       q    Type
REMARK                         _______ _______ _______ _____ _____    ______ ____
ROOT
ATOM      1  C   UNL     1       1.278  13.334  20.947  0.00  0.00    +0.000 C 
ATOM      2  C   UNL     1       1.017  11.902  20.283  0.00  0.00    +0.000 C 
ATOM      3  C   UNL     1      -0.115  11.436  19.349  0.00  0.00    +0.000 A 
ATOM      4  C   UNL     1      -1.425  11.970  19.433  0.00  0.00    +0.000 A 
ATOM      5  C   UNL     1      -2.508  11.480  18.688  0.00  0.00    +0.000 A 
ATOM      6  C   UNL     1      -2.324  10.438  17.805  0.00  0.00    +0.000 A 
ATOM      7  C   UNL     1      -1.062   9.871  17.698  0.00  0.00    +0.000 A 
ATOM      8  C   UNL     1       0.045  10.326  18.469  0.00  0.00    +0.000 A 
ATOM      9  N   UNL     1      -1.685  13.123  20.188  0.00  0.00    +0.000 N 
ATOM     10  C   UNL     1      -0.805  14.152  19.907  0.00  0.00    +0.000 C 
ATOM     11  O   UNL     1      -0.637  14.607  18.772  0.00  0.00    +0.000 OA
ATOM     12  C   UNL     1       0.169  14.427  21.004  0.00  0.00    +0.000 C 
ATOM     13  C   UNL     1       0.549  15.911  20.939  0.00  0.00    +0.000 C 
ENDROOT
BRANCH   1  17
ATOM     14  C   UNL     1       5.098  15.118  19.897  0.00  0.00    +0.000 A 
ATOM     15  C   UNL     1       4.207  14.730  18.895  0.00  0.00    +0.000 A 
ATOM     16  C   UNL     1       2.986  14.126  19.216  0.00  0.00    +0.000 A 
ATOM     17  C   UNL     1       2.645  13.893  20.553  0.00  0.00    +0.000 A 
ATOM     18  C   UNL     1       3.573  14.241  21.553  0.00  0.00    +0.000 A 
ATOM     19  C   UNL     1       4.790  14.842  21.227  0.00  0.00    +0.000 A 
BRANCH  14  21
ATOM     20  C   UNL     1       6.039  17.034  18.887  0.00  0.00    +0.000 C 
ATOM     21  O   UNL     1       6.235  15.748  19.470  0.00  0.00    +0.000 OA
ENDBRANCH  14  21
ENDBRANCH   1  17
BRANCH   8  22
ATOM     22  C   UNL     1       1.310   9.507  18.246  0.00  0.00    +0.000 C 
ATOM     23  F   UNL     1       2.409  10.180  17.829  0.00  0.00    +0.000 F 
ATOM     24  F   UNL     1       1.697   8.874  19.395  0.00  0.00    +0.000 F 
ATOM     25  F   UNL     1       1.115   8.509  17.335  0.00  0.00    +0.000 F 
ENDBRANCH   8  22
BRANCH   9  26
ATOM     26  C   UNL     1      -2.335  12.907  21.495  0.00  0.00    +0.000 C 
BRANCH  26  27
ATOM     27  C   UNL     1      -3.751  13.521  21.578  0.00  0.00    +0.000 C 
BRANCH  27  28
ATOM     28  N   UNL     1      -4.780  12.511  21.834  0.00  0.00    +0.000 NA
ATOM     29  H   UNL     1      -5.357  12.795  22.625  0.00  0.00    +0.000 HD
BRANCH  28  30
ATOM     30  C   UNL     1      -5.624  12.226  20.669  0.00  0.00    +0.000 C 
ATOM     31  C   UNL     1      -7.067  11.896  21.064  0.00  0.00    +0.000 C 
ATOM     32  C   UNL     1      -5.616  13.452  19.754  0.00  0.00    +0.000 C 
ENDBRANCH  28  30
ENDBRANCH  27  28
ENDBRANCH  26  27
ENDBRANCH   9  26
TORSDOF 7
ENDMDL
