MODEL 1
REMARK VINA RESULT:      -8.9      0.000      0.000
REMARK  Name = 
REMARK  6 active torsions:
REMARK  status: ('A' for Active; 'I' for Inactive)
REMARK    1  A    between atoms: C_1  and  O_2
REMARK    2  A    between atoms: O_2  and  C_3
REMARK    3  A    between atoms: C_7  and  C_8
REMARK    4  A    between atoms: N_10  and  C_11
REMARK    5  A    between atoms: C_11  and  C_12
REMARK    6  A    between atoms: C_12  and  C_13
REMARK                            x       y       z     vdW  Elec       q    Type
REMARK                         _______ _______ _______ _____ _____    ______ ____
ROOT
ATOM      1  C   UNL     1       2.443   5.890  19.506  0.00  0.00    +0.000 C 
ATOM      2  C   UNL     1       1.937   5.245  20.837  0.00  0.00    +0.000 C 
ATOM      3  C   UNL     1       2.057   3.732  20.958  0.00  0.00    +0.000 C 
ATOM      4  C   UNL     1       1.487   3.013  19.756  0.00  0.00    +0.000 C 
ATOM      5  F   UNL     1       0.138   3.166  19.734  0.00  0.00    +0.000 F 
ATOM      6  F   UNL     1       1.724   1.685  19.871  0.00  0.00    +0.000 F 
ATOM      7  C   UNL     1       2.071   3.534  18.461  0.00  0.00    +0.000 C 
ATOM      8  C   UNL     1       1.851   5.048  18.323  0.00  0.00    +0.000 C 
ENDROOT
BRANCH   1   9
ATOM      9  C   UNL     1       1.970   7.368  19.461  0.00  0.00    +0.000 A 
ATOM     10  C   UNL     1       2.031   8.152  18.302  0.00  0.00    +0.000 A 
ATOM     11  C   UNL     1       1.585   9.475  18.324  0.00  0.00    +0.000 A 
ATOM     12  C   UNL     1       1.098   9.992  19.510  0.00  0.00    +0.000 A 
ATOM     13  F   UNL     1       0.662  11.260  19.530  0.00  0.00    +0.000 F 
ATOM     14  N   UNL     1       1.038   9.297  20.655  0.00  0.00    +0.000 NA
ATOM     15  C   UNL     1       1.473   8.018  20.602  0.00  0.00    +0.000 A 
ENDBRANCH   1   9
BRANCH   1  16
ATOM     16  C   UNL     1       4.000   5.871  19.343  0.00  0.00    +0.000 C 
BRANCH  16  19
ATOM     17  C   UNL     1       5.499   4.750  17.727  0.00  0.00    +0.000 C 
ATOM     18  O   UNL     1       6.038   4.079  18.602  0.00  0.00    +0.000 OA
ATOM     19  N   UNL     1       4.493   5.658  17.999  0.00  0.00    +0.000 N 
ATOM     20  H   UNL     1       4.037   6.117  17.220  0.00  0.00    +0.000 HD
BRANCH  17  25
ATOM     21  C   UNL     1       7.402   5.142  14.440  0.00  0.00    +0.000 A 
ATOM     22  C   UNL     1       6.671   4.282  13.621  0.00  0.00    +0.000 A 
ATOM     23  C   UNL     1       5.586   3.569  14.132  0.00  0.00    +0.000 A 
ATOM     24  C   UNL     1       5.210   3.728  15.468  0.00  0.00    +0.000 A 
ATOM     25  C   UNL     1       5.919   4.607  16.300  0.00  0.00    +0.000 A 
ATOM     26  C   UNL     1       7.009   5.313  15.772  0.00  0.00    +0.000 A 
ATOM     27  F   UNL     1       7.670   6.177  16.553  0.00  0.00    +0.000 F 
BRANCH  21  29
ATOM     28  C   UNL     1       8.358   5.896  12.409  0.00  0.00    +0.000 C 
ATOM     29  O   UNL     1       8.444   5.786  13.828  0.00  0.00    +0.000 OA
ENDBRANCH  21  29
ENDBRANCH  17  25
ENDBRANCH  16  19
ENDBRANCH   1  16
TORSDOF 5
ENDMDL
MODEL 2
REMARK VINA RESULT:      -8.9      2.551      6.903
REMARK  Name = 
REMARK  6 active torsions:
REMARK  status: ('A' for Active; 'I' for Inactive)
REMARK    1  A    between atoms: C_1  and  O_2
REMARK    2  A    between atoms: O_2  and  C_3
REMARK    3  A    between atoms: C_7  and  C_8
REMARK    4  A    between atoms: N_10  and  C_11
REMARK    5  A    between atoms: C_11  and  C_12
REMARK    6  A    between atoms: C_12  and  C_13
REMARK                            x       y       z     vdW  Elec       q    Type
REMARK                         _______ _______ _______ _____ _____    ______ ____
ROOT
ATOM      1  C   UNL     1       4.088   4.394  18.135  0.00  0.00    +0.000 C 
ATOM      2  C   UNL     1       2.627   4.502  17.589  0.00  0.00    +0.000 C 
ATOM      3  C   UNL     1       1.507   4.084  18.532  0.00  0.00    +0.000 C 
ATOM      4  C   UNL     1       1.754   2.727  19.152  0.00  0.00    +0.000 C 
ATOM      5  F   UNL     1       1.662   1.768  18.195  0.00  0.00    +0.000 F 
ATOM      6  F   UNL     1       0.786   2.464  20.060  0.00  0.00    +0.000 F 
ATOM      7  C   UNL     1       3.116   2.650  19.807  0.00  0.00    +0.000 C 
ATOM      8  C   UNL     1       4.232   2.984  18.808  0.00  0.00    +0.000 C 
ENDROOT
BRANCH   1   9
ATOM      9  C   UNL     1       5.075   4.577  16.951  0.00  0.00    +0.000 A 
ATOM     10  C   UNL     1       4.948   3.884  15.741  0.00  0.00    +0.000 A 
ATOM     11  C   UNL     1       5.867   4.095  14.711  0.00  0.00    +0.000 A 
ATOM     12  C   UNL     1       6.903   4.987  14.917  0.00  0.00    +0.000 A 
ATOM     13  F   UNL     1       7.780   5.197  13.925  0.00  0.00    +0.000 F 
ATOM     14  N   UNL     1       7.087   5.660  16.062  0.00  0.00    +0.000 NA
ATOM     15  C   UNL     1       6.181   5.438  17.040  0.00  0.00    +0.000 A 
ENDBRANCH   1   9
BRANCH   1  16
ATOM     16  C   UNL     1       4.437   5.457  19.230  0.00  0.00    +0.000 C 
BRANCH  16  19
ATOM     17  C   UNL     1       3.012   7.450  18.898  0.00  0.00    +0.000 C 
ATOM     18  O   UNL     1       3.601   7.773  17.872  0.00  0.00    +0.000 OA
ATOM     19  N   UNL     1       3.356   6.331  19.633  0.00  0.00    +0.000 N 
ATOM     20  H   UNL     1       2.777   6.078  20.423  0.00  0.00    +0.000 HD
BRANCH  17  25
ATOM     21  C   UNL     1       0.165   9.987  19.100  0.00  0.00    +0.000 A 
ATOM     22  C   UNL     1      -0.278   9.766  20.404  0.00  0.00    +0.000 A 
ATOM     23  C   UNL     1       0.327   8.794  21.203  0.00  0.00    +0.000 A 
ATOM     24  C   UNL     1       1.397   8.046  20.706  0.00  0.00    +0.000 A 
ATOM     25  C   UNL     1       1.871   8.271  19.406  0.00  0.00    +0.000 A 
ATOM     26  C   UNL     1       1.250   9.248  18.615  0.00  0.00    +0.000 A 
ATOM     27  F   UNL     1       1.719   9.490  17.383  0.00  0.00    +0.000 F 
BRANCH  21  29
ATOM     28  C   UNL     1      -1.872  10.690  18.120  0.00  0.00    +0.000 C 
ATOM     29  O   UNL     1      -0.504  10.964  18.414  0.00  0.00    +0.000 OA
ENDBRANCH  21  29
ENDBRANCH  17  25
ENDBRANCH  16  19
ENDBRANCH   1  16
TORSDOF 5
ENDMDL
MODEL 3
REMARK VINA RESULT:      -8.8      2.606      7.085
REMARK  Name = 
REMARK  6 active torsions:
REMARK  status: ('A' for Active; 'I' for Inactive)
REMARK    1  A    between atoms: C_1  and  O_2
REMARK    2  A    between atoms: O_2  and  C_3
REMARK    3  A    between atoms: C_7  and  C_8
REMARK    4  A    between atoms: N_10  and  C_11
REMARK    5  A    between atoms: C_11  and  C_12
REMARK    6  A    between atoms: C_12  and  C_13
REMARK                            x       y       z     vdW  Elec       q    Type
REMARK                         _______ _______ _______ _____ _____    ______ ____
ROOT
ATOM      1  C   UNL     1       3.995   4.236  18.091  0.00  0.00    +0.000 C 
ATOM      2  C   UNL     1       2.570   4.289  17.450  0.00  0.00    +0.000 C 
ATOM      3  C   UNL     1       1.406   3.832  18.319  0.00  0.00    +0.000 C 
ATOM      4  C   UNL     1       1.662   2.486  18.960  0.00  0.00    +0.000 C 
ATOM      5  F   UNL     1       1.668   1.523  18.003  0.00  0.00    +0.000 F 
ATOM      6  F   UNL     1       0.647   2.189  19.804  0.00  0.00    +0.000 F 
ATOM      7  C   UNL     1       2.980   2.460  19.703  0.00  0.00    +0.000 C 
ATOM      8  C   UNL     1       4.147   2.834  18.777  0.00  0.00    +0.000 C 
ENDROOT
BRANCH   1   9
ATOM      9  C   UNL     1       5.049   4.453  16.973  0.00  0.00    +0.000 A 
ATOM     10  C   UNL     1       4.735   4.399  15.609  0.00  0.00    +0.000 A 
ATOM     11  C   UNL     1       5.729   4.607  14.650  0.00  0.00    +0.000 A 
ATOM     12  C   UNL     1       7.022   4.852  15.075  0.00  0.00    +0.000 A 
ATOM     13  F   UNL     1       7.975   5.060  14.156  0.00  0.00    +0.000 F 
ATOM     14  N   UNL     1       7.385   4.891  16.366  0.00  0.00    +0.000 NA
ATOM     15  C   UNL     1       6.401   4.689  17.271  0.00  0.00    +0.000 A 
ENDBRANCH   1   9
BRANCH   1  16
ATOM     16  C   UNL     1       4.233   5.313  19.202  0.00  0.00    +0.000 C 
BRANCH  16  19
ATOM     17  C   UNL     1       2.405   6.860  19.818  0.00  0.00    +0.000 C 
ATOM     18  O   UNL     1       1.968   6.097  20.674  0.00  0.00    +0.000 OA
ATOM     19  N   UNL     1       3.509   6.556  19.045  0.00  0.00    +0.000 N 
ATOM     20  H   UNL     1       3.865   7.265  18.415  0.00  0.00    +0.000 HD
BRANCH  17  25
ATOM     21  C   UNL     1       0.521  10.137  20.355  0.00  0.00    +0.000 A 
ATOM     22  C   UNL     1       0.546  10.658  19.061  0.00  0.00    +0.000 A 
ATOM     23  C   UNL     1       1.180   9.963  18.030  0.00  0.00    +0.000 A 
ATOM     24  C   UNL     1       1.781   8.728  18.285  0.00  0.00    +0.000 A 
ATOM     25  C   UNL     1       1.746   8.179  19.575  0.00  0.00    +0.000 A 
ATOM     26  C   UNL     1       1.107   8.891  20.600  0.00  0.00    +0.000 A 
ATOM     27  F   UNL     1       1.042   8.357  21.827  0.00  0.00    +0.000 F 
BRANCH  21  29
ATOM     28  C   UNL     1      -1.159  11.753  20.772  0.00  0.00    +0.000 C 
ATOM     29  O   UNL     1      -0.130  10.908  21.281  0.00  0.00    +0.000 OA
ENDBRANCH  21  29
ENDBRANCH  17  25
ENDBRANCH  16  19
ENDBRANCH   1  16
TORSDOF 5
ENDMDL
MODEL 4
REMARK VINA RESULT:      -8.8      3.332      7.207
REMARK  Name = 
REMARK  6 active torsions:
REMARK  status: ('A' for Active; 'I' for Inactive)
REMARK    1  A    between atoms: C_1  and  O_2
REMARK    2  A    between atoms: O_2  and  C_3
REMARK    3  A    between atoms: C_7  and  C_8
REMARK    4  A    between atoms: N_10  and  C_11
REMARK    5  A    between atoms: C_11  and  C_12
REMARK    6  A    between atoms: C_12  and  C_13
REMARK                            x       y       z     vdW  Elec       q    Type
REMARK                         _______ _______ _______ _____ _____    ______ ____
ROOT
ATOM      1  C   UNL     1       3.623   4.831  18.882  0.00  0.00    +0.000 C 
ATOM      2  C   UNL     1       2.598   4.782  17.702  0.00  0.00    +0.000 C 
ATOM      3  C   UNL     1       1.381   3.886  17.885  0.00  0.00    +0.000 C 
ATOM      4  C   UNL     1       1.756   2.492  18.334  0.00  0.00    +0.000 C 
ATOM      5  F   UNL     1       2.404   1.851  17.328  0.00  0.00    +0.000 F 
ATOM      6  F   UNL     1       0.632   1.781  18.586  0.00  0.00    +0.000 F 
ATOM      7  C   UNL     1       2.640   2.517  19.561  0.00  0.00    +0.000 C 
ATOM      8  C   UNL     1       3.906   3.351  19.316  0.00  0.00    +0.000 C 
ENDROOT
BRANCH   1   9
ATOM      9  C   UNL     1       4.909   5.549  18.391  0.00  0.00    +0.000 A 
ATOM     10  C   UNL     1       6.146   5.418  19.034  0.00  0.00    +0.000 A 
ATOM     11  C   UNL     1       7.268   6.087  18.541  0.00  0.00    +0.000 A 
ATOM     12  C   UNL     1       7.128   6.885  17.421  0.00  0.00    +0.000 A 
ATOM     13  F   UNL     1       8.207   7.520  16.942  0.00  0.00    +0.000 F 
ATOM     14  N   UNL     1       5.964   7.066  16.779  0.00  0.00    +0.000 NA
ATOM     15  C   UNL     1       4.896   6.404  17.277  0.00  0.00    +0.000 A 
ENDBRANCH   1   9
BRANCH   1  16
ATOM     16  C   UNL     1       3.097   5.583  20.150  0.00  0.00    +0.000 C 
BRANCH  16  19
ATOM     17  C   UNL     1       1.559   7.474  20.565  0.00  0.00    +0.000 C 
ATOM     18  O   UNL     1       0.849   6.809  21.313  0.00  0.00    +0.000 OA
ATOM     19  N   UNL     1       2.679   6.954  19.947  0.00  0.00    +0.000 N 
ATOM     20  H   UNL     1       3.265   7.580  19.408  0.00  0.00    +0.000 HD
BRANCH  17  25
ATOM     21  C   UNL     1       0.648  11.152  21.036  0.00  0.00    +0.000 A 
ATOM     22  C   UNL     1       0.648  11.584  19.710  0.00  0.00    +0.000 A 
ATOM     23  C   UNL     1       0.956  10.698  18.677  0.00  0.00    +0.000 A 
ATOM     24  C   UNL     1       1.250   9.363  18.963  0.00  0.00    +0.000 A 
ATOM     25  C   UNL     1       1.232   8.906  20.289  0.00  0.00    +0.000 A 
ATOM     26  C   UNL     1       0.924   9.809  21.316  0.00  0.00    +0.000 A 
ATOM     27  F   UNL     1       0.875   9.371  22.581  0.00  0.00    +0.000 F 
BRANCH  21  29
ATOM     28  C   UNL     1      -1.030  12.139  22.384  0.00  0.00    +0.000 C 
ATOM     29  O   UNL     1       0.332  12.110  21.962  0.00  0.00    +0.000 OA
ENDBRANCH  21  29
ENDBRANCH  17  25
ENDBRANCH  16  19
ENDBRANCH   1  16
TORSDOF 5
ENDMDL
MODEL 5
REMARK VINA RESULT:      -8.7      2.550      7.080
REMARK  Name = 
REMARK  6 active torsions:
REMARK  status: ('A' for Active; 'I' for Inactive)
REMARK    1  A    between atoms: C_1  and  O_2
REMARK    2  A    between atoms: O_2  and  C_3
REMARK    3  A    between atoms: C_7  and  C_8
REMARK    4  A    between atoms: N_10  and  C_11
REMARK    5  A    between atoms: C_11  and  C_12
REMARK    6  A    between atoms: C_12  and  C_13
REMARK                            x       y       z     vdW  Elec       q    Type
REMARK                         _______ _______ _______ _____ _____    ______ ____
ROOT
ATOM      1  C   UNL     1       4.026   4.445  18.142  0.00  0.00    +0.000 C 
ATOM      2  C   UNL     1       2.576   4.481  17.558  0.00  0.00    +0.000 C 
ATOM      3  C   UNL     1       1.447   4.063  18.490  0.00  0.00    +0.000 C 
ATOM      4  C   UNL     1       1.724   2.741  19.170  0.00  0.00    +0.000 C 
ATOM      5  F   UNL     1       1.688   1.742  18.252  0.00  0.00    +0.000 F 
ATOM      6  F   UNL     1       0.743   2.481  20.066  0.00  0.00    +0.000 F 
ATOM      7  C   UNL     1       3.071   2.737  19.860  0.00  0.00    +0.000 C 
ATOM      8  C   UNL     1       4.200   3.069  18.874  0.00  0.00    +0.000 C 
ENDROOT
BRANCH   1   9
ATOM      9  C   UNL     1       5.035   4.614  16.975  0.00  0.00    +0.000 A 
ATOM     10  C   UNL     1       4.935   3.902  15.773  0.00  0.00    +0.000 A 
ATOM     11  C   UNL     1       5.873   4.102  14.758  0.00  0.00    +0.000 A 
ATOM     12  C   UNL     1       6.901   5.002  14.970  0.00  0.00    +0.000 A 
ATOM     13  F   UNL     1       7.797   5.201  13.993  0.00  0.00    +0.000 F 
ATOM     14  N   UNL     1       7.060   5.693  16.109  0.00  0.00    +0.000 NA
ATOM     15  C   UNL     1       6.135   5.482  17.072  0.00  0.00    +0.000 A 
ENDBRANCH   1   9
BRANCH   1  16
ATOM     16  C   UNL     1       4.312   5.562  19.201  0.00  0.00    +0.000 C 
BRANCH  16  19
ATOM     17  C   UNL     1       2.951   7.557  18.667  0.00  0.00    +0.000 C 
ATOM     18  O   UNL     1       3.624   7.823  17.675  0.00  0.00    +0.000 OA
ATOM     19  N   UNL     1       3.218   6.470  19.476  0.00  0.00    +0.000 N 
ATOM     20  H   UNL     1       2.575   6.262  20.230  0.00  0.00    +0.000 HD
BRANCH  17  25
ATOM     21  C   UNL     1       0.177   9.242  20.677  0.00  0.00    +0.000 A 
ATOM     22  C   UNL     1      -0.377  10.069  19.699  0.00  0.00    +0.000 A 
ATOM     23  C   UNL     1       0.153  10.092  18.408  0.00  0.00    +0.000 A 
ATOM     24  C   UNL     1       1.235   9.271  18.080  0.00  0.00    +0.000 A 
ATOM     25  C   UNL     1       1.789   8.417  19.044  0.00  0.00    +0.000 A 
ATOM     26  C   UNL     1       1.247   8.408  20.338  0.00  0.00    +0.000 A 
ATOM     27  F   UNL     1       1.753   7.571  21.254  0.00  0.00    +0.000 F 
BRANCH  21  29
ATOM     28  C   UNL     1      -0.473  10.596  22.508  0.00  0.00    +0.000 C 
ATOM     29  O   UNL     1      -0.427   9.305  21.904  0.00  0.00    +0.000 OA
ENDBRANCH  21  29
ENDBRANCH  17  25
ENDBRANCH  16  19
ENDBRANCH   1  16
TORSDOF 5
ENDMDL
MODEL 6
REMARK VINA RESULT:      -8.7      1.256      1.648
REMARK  Name = 
REMARK  6 active torsions:
REMARK  status: ('A' for Active; 'I' for Inactive)
REMARK    1  A    between atoms: C_1  and  O_2
REMARK    2  A    between atoms: O_2  and  C_3
REMARK    3  A    between atoms: C_7  and  C_8
REMARK    4  A    between atoms: N_10  and  C_11
REMARK    5  A    between atoms: C_11  and  C_12
REMARK    6  A    between atoms: C_12  and  C_13
REMARK                            x       y       z     vdW  Elec       q    Type
REMARK                         _______ _______ _______ _____ _____    ______ ____
ROOT
ATOM      1  C   UNL     1       2.453   5.769  19.644  0.00  0.00    +0.000 C 
ATOM      2  C   UNL     1       1.925   5.119  20.964  0.00  0.00    +0.000 C 
ATOM      3  C   UNL     1       2.053   3.607  21.087  0.00  0.00    +0.000 C 
ATOM      4  C   UNL     1       1.511   2.884  19.875  0.00  0.00    +0.000 C 
ATOM      5  F   UNL     1       0.163   3.029  19.826  0.00  0.00    +0.000 F 
ATOM      6  F   UNL     1       1.756   1.558  19.994  0.00  0.00    +0.000 F 
ATOM      7  C   UNL     1       2.117   3.410  18.591  0.00  0.00    +0.000 C 
ATOM      8  C   UNL     1       1.890   4.922  18.449  0.00  0.00    +0.000 C 
ENDROOT
BRANCH   1   9
ATOM      9  C   UNL     1       1.970   7.243  19.589  0.00  0.00    +0.000 A 
ATOM     10  C   UNL     1       2.049   8.027  18.431  0.00  0.00    +0.000 A 
ATOM     11  C   UNL     1       1.594   9.347  18.445  0.00  0.00    +0.000 A 
ATOM     12  C   UNL     1       1.080   9.861  19.621  0.00  0.00    +0.000 A 
ATOM     13  F   UNL     1       0.635  11.126  19.632  0.00  0.00    +0.000 F 
ATOM     14  N   UNL     1       1.003   9.165  20.764  0.00  0.00    +0.000 NA
ATOM     15  C   UNL     1       1.447   7.890  20.721  0.00  0.00    +0.000 A 
ENDBRANCH   1   9
BRANCH   1  16
ATOM     16  C   UNL     1       4.012   5.759  19.510  0.00  0.00    +0.000 C 
BRANCH  16  19
ATOM     17  C   UNL     1       5.654   4.857  17.896  0.00  0.00    +0.000 C 
ATOM     18  O   UNL     1       6.278   4.265  18.772  0.00  0.00    +0.000 OA
ATOM     19  N   UNL     1       4.533   5.618  18.167  0.00  0.00    +0.000 N 
ATOM     20  H   UNL     1       4.020   6.012  17.388  0.00  0.00    +0.000 HD
BRANCH  17  25
ATOM     21  C   UNL     1       5.683   4.213  14.133  0.00  0.00    +0.000 A 
ATOM     22  C   UNL     1       6.961   4.668  13.809  0.00  0.00    +0.000 A 
ATOM     23  C   UNL     1       7.798   5.193  14.795  0.00  0.00    +0.000 A 
ATOM     24  C   UNL     1       7.365   5.249  16.122  0.00  0.00    +0.000 A 
ATOM     25  C   UNL     1       6.092   4.775  16.470  0.00  0.00    +0.000 A 
ATOM     26  C   UNL     1       5.263   4.255  15.467  0.00  0.00    +0.000 A 
ATOM     27  F   UNL     1       4.058   3.771  15.798  0.00  0.00    +0.000 F 
BRANCH  21  29
ATOM     28  C   UNL     1       5.706   3.089  12.049  0.00  0.00    +0.000 C 
ATOM     29  O   UNL     1       4.955   3.721  13.083  0.00  0.00    +0.000 OA
ENDBRANCH  21  29
ENDBRANCH  17  25
ENDBRANCH  16  19
ENDBRANCH   1  16
TORSDOF 5
ENDMDL
MODEL 7
REMARK VINA RESULT:      -8.6      2.984      7.123
REMARK  Name = 
REMARK  6 active torsions:
REMARK  status: ('A' for Active; 'I' for Inactive)
REMARK    1  A    between atoms: C_1  and  O_2
REMARK    2  A    between atoms: O_2  and  C_3
REMARK    3  A    between atoms: C_7  and  C_8
REMARK    4  A    between atoms: N_10  and  C_11
REMARK    5  A    between atoms: C_11  and  C_12
REMARK    6  A    between atoms: C_12  and  C_13
REMARK                            x       y       z     vdW  Elec       q    Type
REMARK                         _______ _______ _______ _____ _____    ______ ____
ROOT
ATOM      1  C   UNL     1       3.502   4.947  18.216  0.00  0.00    +0.000 C 
ATOM      2  C   UNL     1       3.544   3.560  17.496  0.00  0.00    +0.000 C 
ATOM      3  C   UNL     1       2.256   2.749  17.487  0.00  0.00    +0.000 C 
ATOM      4  C   UNL     1       1.647   2.624  18.865  0.00  0.00    +0.000 C 
ATOM      5  F   UNL     1       2.441   1.845  19.643  0.00  0.00    +0.000 F 
ATOM      6  F   UNL     1       0.453   1.993  18.775  0.00  0.00    +0.000 F 
ATOM      7  C   UNL     1       1.471   3.975  19.525  0.00  0.00    +0.000 C 
ATOM      8  C   UNL     1       2.805   4.731  19.605  0.00  0.00    +0.000 C 
ENDROOT
BRANCH   1   9
ATOM      9  C   UNL     1       4.955   5.470  18.371  0.00  0.00    +0.000 A 
ATOM     10  C   UNL     1       5.557   6.330  17.444  0.00  0.00    +0.000 A 
ATOM     11  C   UNL     1       6.868   6.770  17.641  0.00  0.00    +0.000 A 
ATOM     12  C   UNL     1       7.555   6.330  18.757  0.00  0.00    +0.000 A 
ATOM     13  F   UNL     1       8.810   6.758  18.952  0.00  0.00    +0.000 F 
ATOM     14  N   UNL     1       7.038   5.488  19.665  0.00  0.00    +0.000 NA
ATOM     15  C   UNL     1       5.767   5.083  19.449  0.00  0.00    +0.000 A 
ENDBRANCH   1   9
BRANCH   1  16
ATOM     16  C   UNL     1       2.670   6.033  17.456  0.00  0.00    +0.000 C 
BRANCH  16  19
ATOM     17  C   UNL     1       2.036   8.318  18.156  0.00  0.00    +0.000 C 
ATOM     18  O   UNL     1       2.793   8.841  17.343  0.00  0.00    +0.000 OA
ATOM     19  N   UNL     1       1.914   6.948  18.284  0.00  0.00    +0.000 N 
ATOM     20  H   UNL     1       1.212   6.585  18.917  0.00  0.00    +0.000 HD
BRANCH  17  25
ATOM     21  C   UNL     1       0.353   9.752  21.269  0.00  0.00    +0.000 A 
ATOM     22  C   UNL     1      -0.378  10.796  20.702  0.00  0.00    +0.000 A 
ATOM     23  C   UNL     1      -0.313  11.044  19.330  0.00  0.00    +0.000 A 
ATOM     24  C   UNL     1       0.473  10.232  18.509  0.00  0.00    +0.000 A 
ATOM     25  C   UNL     1       1.197   9.164  19.058  0.00  0.00    +0.000 A 
ATOM     26  C   UNL     1       1.123   8.931  20.439  0.00  0.00    +0.000 A 
ATOM     27  F   UNL     1       1.787   7.892  20.964  0.00  0.00    +0.000 F 
BRANCH  21  29
ATOM     28  C   UNL     1      -0.867  10.331  23.214  0.00  0.00    +0.000 C 
ATOM     29  O   UNL     1       0.209   9.607  22.623  0.00  0.00    +0.000 OA
ENDBRANCH  21  29
ENDBRANCH  17  25
ENDBRANCH  16  19
ENDBRANCH   1  16
TORSDOF 5
ENDMDL
MODEL 8
REMARK VINA RESULT:      -8.6      2.478      6.958
REMARK  Name = 
REMARK  6 active torsions:
REMARK  status: ('A' for Active; 'I' for Inactive)
REMARK    1  A    between atoms: C_1  and  O_2
REMARK    2  A    between atoms: O_2  and  C_3
REMARK    3  A    between atoms: C_7  and  C_8
REMARK    4  A    between atoms: N_10  and  C_11
REMARK    5  A    between atoms: C_11  and  C_12
REMARK    6  A    between atoms: C_12  and  C_13
REMARK                            x       y       z     vdW  Elec       q    Type
REMARK                         _______ _______ _______ _____ _____    ______ ____
ROOT
ATOM      1  C   UNL     1       3.118   4.059  18.741  0.00  0.00    +0.000 C 
ATOM      2  C   UNL     1       2.799   2.539  18.917  0.00  0.00    +0.000 C 
ATOM      3  C   UNL     1       1.679   2.177  19.882  0.00  0.00    +0.000 C 
ATOM      4  C   UNL     1       1.836   2.856  21.224  0.00  0.00    +0.000 C 
ATOM      5  F   UNL     1       2.913   2.341  21.869  0.00  0.00    +0.000 F 
ATOM      6  F   UNL     1       0.757   2.587  21.995  0.00  0.00    +0.000 F 
ATOM      7  C   UNL     1       2.010   4.352  21.079  0.00  0.00    +0.000 C 
ATOM      8  C   UNL     1       3.205   4.687  20.175  0.00  0.00    +0.000 C 
ENDROOT
BRANCH   1   9
ATOM      9  C   UNL     1       4.454   4.198  17.964  0.00  0.00    +0.000 A 
ATOM     10  C   UNL     1       4.539   4.094  16.570  0.00  0.00    +0.000 A 
ATOM     11  C   UNL     1       5.772   4.233  15.928  0.00  0.00    +0.000 A 
ATOM     12  C   UNL     1       6.899   4.461  16.696  0.00  0.00    +0.000 A 
ATOM     13  F   UNL     1       8.081   4.603  16.080  0.00  0.00    +0.000 F 
ATOM     14  N   UNL     1       6.881   4.546  18.034  0.00  0.00    +0.000 NA
ATOM     15  C   UNL     1       5.674   4.411  18.627  0.00  0.00    +0.000 A 
ENDBRANCH   1   9
BRANCH   1  16
ATOM     16  C   UNL     1       2.016   4.854  17.963  0.00  0.00    +0.000 C 
BRANCH  16  19
ATOM     17  C   UNL     1       2.294   7.290  18.281  0.00  0.00    +0.000 C 
ATOM     18  O   UNL     1       3.277   7.333  17.548  0.00  0.00    +0.000 OA
ATOM     19  N   UNL     1       1.615   6.116  18.546  0.00  0.00    +0.000 N 
ATOM     20  H   UNL     1       0.765   6.166  19.094  0.00  0.00    +0.000 HD
BRANCH  17  25
ATOM     21  C   UNL     1       1.080   9.789  20.901  0.00  0.00    +0.000 A 
ATOM     22  C   UNL     1       0.839  10.902  20.096  0.00  0.00    +0.000 A 
ATOM     23  C   UNL     1       1.084  10.849  18.723  0.00  0.00    +0.000 A 
ATOM     24  C   UNL     1       1.556   9.670  18.141  0.00  0.00    +0.000 A 
ATOM     25  C   UNL     1       1.781   8.534  18.931  0.00  0.00    +0.000 A 
ATOM     26  C   UNL     1       1.534   8.605  20.310  0.00  0.00    +0.000 A 
ATOM     27  F   UNL     1       1.717   7.514  21.065  0.00  0.00    +0.000 F 
BRANCH  21  29
ATOM     28  C   UNL     1      -0.416   9.381  22.691  0.00  0.00    +0.000 C 
ATOM     29  O   UNL     1       0.803   9.960  22.231  0.00  0.00    +0.000 OA
ENDBRANCH  21  29
ENDBRANCH  17  25
ENDBRANCH  16  19
ENDBRANCH   1  16
TORSDOF 5
ENDMDL
MODEL 9
REMARK VINA RESULT:      -8.6      1.980      2.637
REMARK  Name = 
REMARK  6 active torsions:
REMARK  status: ('A' for Active; 'I' for Inactive)
REMARK    1  A    between atoms: C_1  and  O_2
REMARK    2  A    between atoms: O_2  and  C_3
REMARK    3  A    between atoms: C_7  and  C_8
REMARK    4  A    between atoms: N_10  and  C_11
REMARK    5  A    between atoms: C_11  and  C_12
REMARK    6  A    between atoms: C_12  and  C_13
REMARK                            x       y       z     vdW  Elec       q    Type
REMARK                         _______ _______ _______ _____ _____    ______ ____
ROOT
ATOM      1  C   UNL     1       3.718   5.454  18.455  0.00  0.00    +0.000 C 
ATOM      2  C   UNL     1       3.639   4.712  19.829  0.00  0.00    +0.000 C 
ATOM      3  C   UNL     1       4.088   3.258  19.854  0.00  0.00    +0.000 C 
ATOM      4  C   UNL     1       3.442   2.439  18.759  0.00  0.00    +0.000 C 
ATOM      5  F   UNL     1       2.116   2.307  19.014  0.00  0.00    +0.000 F 
ATOM      6  F   UNL     1       3.964   1.190  18.763  0.00  0.00    +0.000 F 
ATOM      7  C   UNL     1       3.629   3.075  17.399  0.00  0.00    +0.000 C 
ATOM      8  C   UNL     1       3.081   4.510  17.377  0.00  0.00    +0.000 C 
ENDROOT
BRANCH   1   9
ATOM      9  C   UNL     1       2.954   6.800  18.573  0.00  0.00    +0.000 A 
ATOM     10  C   UNL     1       2.239   7.171  19.718  0.00  0.00    +0.000 A 
ATOM     11  C   UNL     1       1.575   8.399  19.765  0.00  0.00    +0.000 A 
ATOM     12  C   UNL     1       1.629   9.226  18.658  0.00  0.00    +0.000 A 
ATOM     13  F   UNL     1       0.999  10.408  18.705  0.00  0.00    +0.000 F 
ATOM     14  N   UNL     1       2.278   8.912  17.527  0.00  0.00    +0.000 NA
ATOM     15  C   UNL     1       2.914   7.720  17.513  0.00  0.00    +0.000 A 
ENDBRANCH   1   9
BRANCH   1  16
ATOM     16  C   UNL     1       5.178   5.761  17.982  0.00  0.00    +0.000 C 
BRANCH  16  19
ATOM     17  C   UNL     1       6.693   5.040  16.165  0.00  0.00    +0.000 C 
ATOM     18  O   UNL     1       7.620   4.829  16.941  0.00  0.00    +0.000 OA
ATOM     19  N   UNL     1       5.461   5.502  16.586  0.00  0.00    +0.000 N 
ATOM     20  H   UNL     1       4.716   5.576  15.904  0.00  0.00    +0.000 HD
BRANCH  17  25
ATOM     21  C   UNL     1       6.278   3.633  12.640  0.00  0.00    +0.000 A 
ATOM     22  C   UNL     1       7.213   4.404  11.949  0.00  0.00    +0.000 A 
ATOM     23  C   UNL     1       7.957   5.380  12.614  0.00  0.00    +0.000 A 
ATOM     24  C   UNL     1       7.783   5.579  13.986  0.00  0.00    +0.000 A 
ATOM     25  C   UNL     1       6.864   4.798  14.701  0.00  0.00    +0.000 A 
ATOM     26  C   UNL     1       6.122   3.824  14.017  0.00  0.00    +0.000 A 
ATOM     27  F   UNL     1       5.265   3.053  14.700  0.00  0.00    +0.000 F 
BRANCH  21  29
ATOM     28  C   UNL     1       4.334   3.115  11.392  0.00  0.00    +0.000 C 
ATOM     29  O   UNL     1       5.610   2.709  11.882  0.00  0.00    +0.000 OA
ENDBRANCH  21  29
ENDBRANCH  17  25
ENDBRANCH  16  19
ENDBRANCH   1  16
TORSDOF 5
ENDMDL
