MODEL 1
REMARK VINA RESULT:      -6.4      0.000      0.000
REMARK  Name = 
REMARK  8 active torsions:
REMARK  status: ('A' for Active; 'I' for Inactive)
REMARK    1  A    between atoms: C_1  and  C_2
REMARK    2  A    between atoms: C_2  and  O_3
REMARK    3  A    between atoms: O_3  and  C_4
REMARK    4  A    between atoms: C_4  and  C_5
REMARK    5  A    between atoms: N_7  and  C_8
REMARK    6  A    between atoms: C_8  and  C_9
REMARK    7  A    between atoms: C_9  and  N_10
REMARK    8  A    between atoms: C_13  and  C_14
REMARK                            x       y       z     vdW  Elec       q    Type
REMARK                         _______ _______ _______ _____ _____    ______ ____
ROOT
ATOM      1  N   UNL     1       5.693   4.849  16.965  0.00  0.00    +0.000 NA
ATOM      2  C   UNL     1       4.347   5.360  16.662  0.00  0.00    +0.000 C 
ATOM      3  C   UNL     1       3.840   6.342  17.720  0.00  0.00    +0.000 C 
ATOM      4  C   UNL     1       3.851   5.739  19.133  0.00  0.00    +0.000 C 
ATOM      5  C   UNL     1       5.261   5.185  19.394  0.00  0.00    +0.000 C 
ATOM      6  C   UNL     1       5.723   4.218  18.299  0.00  0.00    +0.000 C 
ENDROOT
BRANCH   4   7
ATOM      7  C   UNL     1       2.741   4.724  19.368  0.00  0.00    +0.000 A 
ATOM      8  C   UNL     1       1.949   4.038  18.461  0.00  0.00    +0.000 A 
ATOM      9  C   UNL     1       1.016   3.162  19.081  0.00  0.00    +0.000 A 
ATOM     10  C   UNL     1       1.087   3.225  20.452  0.00  0.00    +0.000 A 
ATOM     11  S   UNL     1       2.263   4.343  20.980  0.00  0.00    +0.000 S 
ENDBRANCH   4   7
BRANCH   1  12
ATOM     12  C   UNL     1       6.116   3.870  15.935  0.00  0.00    +0.000 C 
BRANCH  12  13
ATOM     13  C   UNL     1       6.288   4.494  14.535  0.00  0.00    +0.000 C 
BRANCH  13  16
ATOM     14  C   UNL     1       5.723   3.482  12.357  0.00  0.00    +0.000 C 
ATOM     15  O   UNL     1       6.892   3.390  11.997  0.00  0.00    +0.000 OA
ATOM     16  N   UNL     1       5.326   3.999  13.574  0.00  0.00    +0.000 N 
ATOM     17  H   UNL     1       4.336   4.156  13.726  0.00  0.00    +0.000 HD
BRANCH  14  18
ATOM     18  C   UNL     1       4.552   3.026  11.487  0.00  0.00    +0.000 C 
BRANCH  18  19
ATOM     19  O   UNL     1       3.943   4.094  10.768  0.00  0.00    +0.000 OA
BRANCH  19  21
ATOM     20  C   UNL     1       2.420   4.794   9.066  0.00  0.00    +0.000 C 
ATOM     21  C   UNL     1       2.968   3.613   9.839  0.00  0.00    +0.000 C 
ENDBRANCH  19  21
ENDBRANCH  18  19
ENDBRANCH  14  18
ENDBRANCH  13  16
ENDBRANCH  12  13
ENDBRANCH   1  12
TORSDOF 7
ENDMDL
MODEL 2
REMARK VINA RESULT:      -6.4      1.298      1.420
REMARK  Name = 
REMARK  8 active torsions:
REMARK  status: ('A' for Active; 'I' for Inactive)
REMARK    1  A    between atoms: C_1  and  C_2
REMARK    2  A    between atoms: C_2  and  O_3
REMARK    3  A    between atoms: O_3  and  C_4
REMARK    4  A    between atoms: C_4  and  C_5
REMARK    5  A    between atoms: N_7  and  C_8
REMARK    6  A    between atoms: C_8  and  C_9
REMARK    7  A    between atoms: C_9  and  N_10
REMARK    8  A    between atoms: C_13  and  C_14
REMARK                            x       y       z     vdW  Elec       q    Type
REMARK                         _______ _______ _______ _____ _____    ______ ____
ROOT
ATOM      1  N   UNL     1       5.806   5.962  17.046  0.00  0.00    +0.000 NA
ATOM      2  C   UNL     1       4.347   6.155  17.012  0.00  0.00    +0.000 C 
ATOM      3  C   UNL     1       3.747   6.339  18.408  0.00  0.00    +0.000 C 
ATOM      4  C   UNL     1       4.087   5.173  19.351  0.00  0.00    +0.000 C 
ATOM      5  C   UNL     1       5.612   4.983  19.327  0.00  0.00    +0.000 C 
ATOM      6  C   UNL     1       6.160   4.817  17.906  0.00  0.00    +0.000 C 
ENDROOT
BRANCH   4   7
ATOM      7  C   UNL     1       3.306   3.902  19.049  0.00  0.00    +0.000 A 
ATOM      8  C   UNL     1       3.734   2.587  18.968  0.00  0.00    +0.000 A 
ATOM      9  C   UNL     1       2.687   1.673  18.667  0.00  0.00    +0.000 A 
ATOM     10  C   UNL     1       1.485   2.314  18.483  0.00  0.00    +0.000 A 
ATOM     11  S   UNL     1       1.629   4.005  18.663  0.00  0.00    +0.000 S 
ENDBRANCH   4   7
BRANCH   1  12
ATOM     12  C   UNL     1       6.328   5.744  15.675  0.00  0.00    +0.000 C 
BRANCH  12  13
ATOM     13  C   UNL     1       6.801   4.297  15.426  0.00  0.00    +0.000 C 
BRANCH  13  16
ATOM     14  C   UNL     1       6.391   3.803  13.044  0.00  0.00    +0.000 C 
ATOM     15  O   UNL     1       7.318   4.503  12.648  0.00  0.00    +0.000 OA
ATOM     16  N   UNL     1       6.062   3.634  14.374  0.00  0.00    +0.000 N 
ATOM     17  H   UNL     1       5.202   3.145  14.595  0.00  0.00    +0.000 HD
BRANCH  14  18
ATOM     18  C   UNL     1       5.480   3.024  12.096  0.00  0.00    +0.000 C 
BRANCH  18  19
ATOM     19  O   UNL     1       4.381   3.795  11.620  0.00  0.00    +0.000 OA
BRANCH  19  21
ATOM     20  C   UNL     1       2.963   3.992   9.708  0.00  0.00    +0.000 C 
ATOM     21  C   UNL     1       3.558   3.042  10.725  0.00  0.00    +0.000 C 
ENDBRANCH  19  21
ENDBRANCH  18  19
ENDBRANCH  14  18
ENDBRANCH  13  16
ENDBRANCH  12  13
ENDBRANCH   1  12
TORSDOF 7
ENDMDL
MODEL 3
REMARK VINA RESULT:      -6.2      1.581      2.419
REMARK  Name = 
REMARK  8 active torsions:
REMARK  status: ('A' for Active; 'I' for Inactive)
REMARK    1  A    between atoms: C_1  and  C_2
REMARK    2  A    between atoms: C_2  and  O_3
REMARK    3  A    between atoms: O_3  and  C_4
REMARK    4  A    between atoms: C_4  and  C_5
REMARK    5  A    between atoms: N_7  and  C_8
REMARK    6  A    between atoms: C_8  and  C_9
REMARK    7  A    between atoms: C_9  and  N_10
REMARK    8  A    between atoms: C_13  and  C_14
REMARK                            x       y       z     vdW  Elec       q    Type
REMARK                         _______ _______ _______ _____ _____    ______ ____
ROOT
ATOM      1  N   UNL     1       4.764   5.359  17.497  0.00  0.00    +0.000 NA
ATOM      2  C   UNL     1       4.269   3.978  17.375  0.00  0.00    +0.000 C 
ATOM      3  C   UNL     1       2.777   3.917  17.045  0.00  0.00    +0.000 C 
ATOM      4  C   UNL     1       1.918   4.679  18.067  0.00  0.00    +0.000 C 
ATOM      5  C   UNL     1       2.491   6.100  18.190  0.00  0.00    +0.000 C 
ATOM      6  C   UNL     1       3.990   6.103  18.508  0.00  0.00    +0.000 C 
ENDROOT
BRANCH   4   7
ATOM      7  C   UNL     1       1.778   3.957  19.400  0.00  0.00    +0.000 A 
ATOM      8  C   UNL     1       1.303   2.687  19.684  0.00  0.00    +0.000 A 
ATOM      9  C   UNL     1       1.338   2.371  21.070  0.00  0.00    +0.000 A 
ATOM     10  C   UNL     1       1.801   3.423  21.823  0.00  0.00    +0.000 A 
ATOM     11  S   UNL     1       2.179   4.781  20.860  0.00  0.00    +0.000 S 
ENDBRANCH   4   7
BRANCH   1  12
ATOM     12  C   UNL     1       6.202   5.360  17.860  0.00  0.00    +0.000 C 
BRANCH  12  13
ATOM     13  C   UNL     1       7.116   4.832  16.735  0.00  0.00    +0.000 C 
BRANCH  13  16
ATOM     14  C   UNL     1       6.763   4.593  14.306  0.00  0.00    +0.000 C 
ATOM     15  O   UNL     1       7.743   5.270  14.008  0.00  0.00    +0.000 OA
ATOM     16  N   UNL     1       6.378   4.318  15.602  0.00  0.00    +0.000 N 
ATOM     17  H   UNL     1       5.484   3.863  15.749  0.00  0.00    +0.000 HD
BRANCH  14  18
ATOM     18  C   UNL     1       5.843   3.965  13.259  0.00  0.00    +0.000 C 
BRANCH  18  19
ATOM     19  O   UNL     1       6.555   3.347  12.191  0.00  0.00    +0.000 OA
BRANCH  19  21
ATOM     20  C   UNL     1       4.326   2.975  11.416  0.00  0.00    +0.000 C 
ATOM     21  C   UNL     1       5.733   2.417  11.481  0.00  0.00    +0.000 C 
ENDBRANCH  19  21
ENDBRANCH  18  19
ENDBRANCH  14  18
ENDBRANCH  13  16
ENDBRANCH  12  13
ENDBRANCH   1  12
TORSDOF 7
ENDMDL
MODEL 4
REMARK VINA RESULT:      -6.1      1.960      2.748
REMARK  Name = 
REMARK  8 active torsions:
REMARK  status: ('A' for Active; 'I' for Inactive)
REMARK    1  A    between atoms: C_1  and  C_2
REMARK    2  A    between atoms: C_2  and  O_3
REMARK    3  A    between atoms: O_3  and  C_4
REMARK    4  A    between atoms: C_4  and  C_5
REMARK    5  A    between atoms: N_7  and  C_8
REMARK    6  A    between atoms: C_8  and  C_9
REMARK    7  A    between atoms: C_9  and  N_10
REMARK    8  A    between atoms: C_13  and  C_14
REMARK                            x       y       z     vdW  Elec       q    Type
REMARK                         _______ _______ _______ _____ _____    ______ ____
ROOT
ATOM      1  N   UNL     1       4.755   5.290  17.350  0.00  0.00    +0.000 NA
ATOM      2  C   UNL     1       4.377   3.867  17.355  0.00  0.00    +0.000 C 
ATOM      3  C   UNL     1       2.877   3.658  17.139  0.00  0.00    +0.000 C 
ATOM      4  C   UNL     1       2.024   4.417  18.168  0.00  0.00    +0.000 C 
ATOM      5  C   UNL     1       2.476   5.886  18.155  0.00  0.00    +0.000 C 
ATOM      6  C   UNL     1       3.987   6.037  18.364  0.00  0.00    +0.000 C 
ENDROOT
BRANCH   4   7
ATOM      7  C   UNL     1       2.037   3.783  19.552  0.00  0.00    +0.000 A 
ATOM      8  C   UNL     1       1.201   3.988  20.638  0.00  0.00    +0.000 A 
ATOM      9  C   UNL     1       1.540   3.191  21.765  0.00  0.00    +0.000 A 
ATOM     10  C   UNL     1       2.654   2.421  21.531  0.00  0.00    +0.000 A 
ATOM     11  S   UNL     1       3.287   2.671  19.966  0.00  0.00    +0.000 S 
ENDBRANCH   4   7
BRANCH   1  12
ATOM     12  C   UNL     1       6.208   5.437  17.608  0.00  0.00    +0.000 C 
BRANCH  12  13
ATOM     13  C   UNL     1       7.081   4.533  16.714  0.00  0.00    +0.000 C 
BRANCH  13  16
ATOM     14  C   UNL     1       6.709   4.464  14.276  0.00  0.00    +0.000 C 
ATOM     15  O   UNL     1       7.609   5.260  14.027  0.00  0.00    +0.000 OA
ATOM     16  N   UNL     1       6.378   4.043  15.548  0.00  0.00    +0.000 N 
ATOM     17  H   UNL     1       5.537   3.488  15.665  0.00  0.00    +0.000 HD
BRANCH  14  18
ATOM     18  C   UNL     1       5.838   3.834  13.189  0.00  0.00    +0.000 C 
BRANCH  18  19
ATOM     19  O   UNL     1       6.598   3.269  12.125  0.00  0.00    +0.000 OA
BRANCH  19  21
ATOM     20  C   UNL     1       6.865   1.215  10.935  0.00  0.00    +0.000 C 
ATOM     21  C   UNL     1       5.873   2.235  11.454  0.00  0.00    +0.000 C 
ENDBRANCH  19  21
ENDBRANCH  18  19
ENDBRANCH  14  18
ENDBRANCH  13  16
ENDBRANCH  12  13
ENDBRANCH   1  12
TORSDOF 7
ENDMDL
MODEL 5
REMARK VINA RESULT:      -6.1      5.789      8.088
REMARK  Name = 
REMARK  8 active torsions:
REMARK  status: ('A' for Active; 'I' for Inactive)
REMARK    1  A    between atoms: C_1  and  C_2
REMARK    2  A    between atoms: C_2  and  O_3
REMARK    3  A    between atoms: O_3  and  C_4
REMARK    4  A    between atoms: C_4  and  C_5
REMARK    5  A    between atoms: N_7  and  C_8
REMARK    6  A    between atoms: C_8  and  C_9
REMARK    7  A    between atoms: C_9  and  N_10
REMARK    8  A    between atoms: C_13  and  C_14
REMARK                            x       y       z     vdW  Elec       q    Type
REMARK                         _______ _______ _______ _____ _____    ______ ____
ROOT
ATOM      1  N   UNL     1       7.251   6.377  17.248  0.00  0.00    +0.000 NA
ATOM      2  C   UNL     1       7.097   4.952  17.585  0.00  0.00    +0.000 C 
ATOM      3  C   UNL     1       6.318   4.178  16.519  0.00  0.00    +0.000 C 
ATOM      4  C   UNL     1       4.936   4.790  16.241  0.00  0.00    +0.000 C 
ATOM      5  C   UNL     1       5.141   6.282  15.931  0.00  0.00    +0.000 C 
ATOM      6  C   UNL     1       5.936   7.005  17.024  0.00  0.00    +0.000 C 
ENDROOT
BRANCH   4   7
ATOM      7  C   UNL     1       3.923   4.527  17.347  0.00  0.00    +0.000 A 
ATOM      8  C   UNL     1       2.957   5.357  17.891  0.00  0.00    +0.000 A 
ATOM      9  C   UNL     1       2.193   4.734  18.915  0.00  0.00    +0.000 A 
ATOM     10  C   UNL     1       2.619   3.450  19.162  0.00  0.00    +0.000 A 
ATOM     11  S   UNL     1       3.936   3.012  18.169  0.00  0.00    +0.000 S 
ENDBRANCH   4   7
BRANCH   1  12
ATOM     12  C   UNL     1       7.971   7.087  18.333  0.00  0.00    +0.000 C 
BRANCH  12  13
ATOM     13  C   UNL     1       8.268   8.564  18.002  0.00  0.00    +0.000 C 
BRANCH  13  16
ATOM     14  C   UNL     1       9.204  10.616  19.002  0.00  0.00    +0.000 C 
ATOM     15  O   UNL     1       9.003  11.300  18.003  0.00  0.00    +0.000 OA
ATOM     16  N   UNL     1       8.878   9.278  19.102  0.00  0.00    +0.000 N 
ATOM     17  H   UNL     1       9.202   8.767  19.915  0.00  0.00    +0.000 HD
BRANCH  14  18
ATOM     18  C   UNL     1       9.847  11.174  20.271  0.00  0.00    +0.000 C 
BRANCH  18  19
ATOM     19  O   UNL     1      11.210  11.544  20.088  0.00  0.00    +0.000 OA
BRANCH  19  21
ATOM     20  C   UNL     1      12.082  13.300  18.722  0.00  0.00    +0.000 C 
ATOM     21  C   UNL     1      11.363  12.964  20.012  0.00  0.00    +0.000 C 
ENDBRANCH  19  21
ENDBRANCH  18  19
ENDBRANCH  14  18
ENDBRANCH  13  16
ENDBRANCH  12  13
ENDBRANCH   1  12
TORSDOF 7
ENDMDL
MODEL 6
REMARK VINA RESULT:      -6.0      1.698      2.550
REMARK  Name = 
REMARK  8 active torsions:
REMARK  status: ('A' for Active; 'I' for Inactive)
REMARK    1  A    between atoms: C_1  and  C_2
REMARK    2  A    between atoms: C_2  and  O_3
REMARK    3  A    between atoms: O_3  and  C_4
REMARK    4  A    between atoms: C_4  and  C_5
REMARK    5  A    between atoms: N_7  and  C_8
REMARK    6  A    between atoms: C_8  and  C_9
REMARK    7  A    between atoms: C_9  and  N_10
REMARK    8  A    between atoms: C_13  and  C_14
REMARK                            x       y       z     vdW  Elec       q    Type
REMARK                         _______ _______ _______ _____ _____    ______ ____
ROOT
ATOM      1  N   UNL     1       5.072   4.768  17.506  0.00  0.00    +0.000 NA
ATOM      2  C   UNL     1       4.284   3.527  17.441  0.00  0.00    +0.000 C 
ATOM      3  C   UNL     1       2.798   3.788  17.188  0.00  0.00    +0.000 C 
ATOM      4  C   UNL     1       2.181   4.730  18.233  0.00  0.00    +0.000 C 
ATOM      5  C   UNL     1       3.053   5.994  18.294  0.00  0.00    +0.000 C 
ATOM      6  C   UNL     1       4.532   5.675  18.537  0.00  0.00    +0.000 C 
ENDROOT
BRANCH   4   7
ATOM      7  C   UNL     1       1.959   4.072  19.588  0.00  0.00    +0.000 A 
ATOM      8  C   UNL     1       2.285   4.512  20.860  0.00  0.00    +0.000 A 
ATOM      9  C   UNL     1       1.903   3.602  21.883  0.00  0.00    +0.000 A 
ATOM     10  C   UNL     1       1.328   2.464  21.369  0.00  0.00    +0.000 A 
ATOM     11  S   UNL     1       1.264   2.496  19.664  0.00  0.00    +0.000 S 
ENDBRANCH   4   7
BRANCH   1  12
ATOM     12  C   UNL     1       6.493   4.462  17.798  0.00  0.00    +0.000 C 
BRANCH  12  13
ATOM     13  C   UNL     1       7.412   4.598  16.566  0.00  0.00    +0.000 C 
BRANCH  13  16
ATOM     14  C   UNL     1       6.019   4.958  14.562  0.00  0.00    +0.000 C 
ATOM     15  O   UNL     1       5.799   6.138  14.819  0.00  0.00    +0.000 OA
ATOM     16  N   UNL     1       6.795   4.127  15.346  0.00  0.00    +0.000 N 
ATOM     17  H   UNL     1       6.810   3.138  15.124  0.00  0.00    +0.000 HD
BRANCH  14  18
ATOM     18  C   UNL     1       5.453   4.261  13.325  0.00  0.00    +0.000 C 
BRANCH  18  19
ATOM     19  O   UNL     1       6.295   3.221  12.837  0.00  0.00    +0.000 OA
BRANCH  19  21
ATOM     20  C   UNL     1       4.374   3.200  11.417  0.00  0.00    +0.000 C 
ATOM     21  C   UNL     1       5.702   2.541  11.728  0.00  0.00    +0.000 C 
ENDBRANCH  19  21
ENDBRANCH  18  19
ENDBRANCH  14  18
ENDBRANCH  13  16
ENDBRANCH  12  13
ENDBRANCH   1  12
TORSDOF 7
ENDMDL
MODEL 7
REMARK VINA RESULT:      -6.0      1.898      2.954
REMARK  Name = 
REMARK  8 active torsions:
REMARK  status: ('A' for Active; 'I' for Inactive)
REMARK    1  A    between atoms: C_1  and  C_2
REMARK    2  A    between atoms: C_2  and  O_3
REMARK    3  A    between atoms: O_3  and  C_4
REMARK    4  A    between atoms: C_4  and  C_5
REMARK    5  A    between atoms: N_7  and  C_8
REMARK    6  A    between atoms: C_8  and  C_9
REMARK    7  A    between atoms: C_9  and  N_10
REMARK    8  A    between atoms: C_13  and  C_14
REMARK                            x       y       z     vdW  Elec       q    Type
REMARK                         _______ _______ _______ _____ _____    ______ ____
ROOT
ATOM      1  N   UNL     1       4.974   5.700  17.749  0.00  0.00    +0.000 NA
ATOM      2  C   UNL     1       4.688   4.263  17.600  0.00  0.00    +0.000 C 
ATOM      3  C   UNL     1       3.292   3.999  17.031  0.00  0.00    +0.000 C 
ATOM      4  C   UNL     1       2.183   4.657  17.867  0.00  0.00    +0.000 C 
ATOM      5  C   UNL     1       2.540   6.144  18.027  0.00  0.00    +0.000 C 
ATOM      6  C   UNL     1       3.951   6.351  18.589  0.00  0.00    +0.000 C 
ENDROOT
BRANCH   4   7
ATOM      7  C   UNL     1       1.913   3.945  19.185  0.00  0.00    +0.000 A 
ATOM      8  C   UNL     1       1.521   2.640  19.433  0.00  0.00    +0.000 A 
ATOM      9  C   UNL     1       1.378   2.351  20.818  0.00  0.00    +0.000 A 
ATOM     10  C   UNL     1       1.625   3.454  21.600  0.00  0.00    +0.000 A 
ATOM     11  S   UNL     1       2.015   4.826  20.664  0.00  0.00    +0.000 S 
ENDBRANCH   4   7
BRANCH   1  12
ATOM     12  C   UNL     1       6.317   5.898  18.345  0.00  0.00    +0.000 C 
BRANCH  12  13
ATOM     13  C   UNL     1       7.309   6.597  17.393  0.00  0.00    +0.000 C 
BRANCH  13  16
ATOM     14  C   UNL     1       7.344   5.114  15.422  0.00  0.00    +0.000 C 
ATOM     15  O   UNL     1       7.850   4.174  16.028  0.00  0.00    +0.000 OA
ATOM     16  N   UNL     1       7.037   6.330  15.997  0.00  0.00    +0.000 N 
ATOM     17  H   UNL     1       6.745   7.087  15.388  0.00  0.00    +0.000 HD
BRANCH  14  18
ATOM     18  C   UNL     1       6.986   5.043  13.938  0.00  0.00    +0.000 C 
BRANCH  18  19
ATOM     19  O   UNL     1       5.791   4.309  13.687  0.00  0.00    +0.000 OA
BRANCH  19  21
ATOM     20  C   UNL     1       4.681   3.253  11.854  0.00  0.00    +0.000 C 
ATOM     21  C   UNL     1       5.972   3.353  12.639  0.00  0.00    +0.000 C 
ENDBRANCH  19  21
ENDBRANCH  18  19
ENDBRANCH  14  18
ENDBRANCH  13  16
ENDBRANCH  12  13
ENDBRANCH   1  12
TORSDOF 7
ENDMDL
MODEL 8
REMARK VINA RESULT:      -6.0      2.148      3.196
REMARK  Name = 
REMARK  8 active torsions:
REMARK  status: ('A' for Active; 'I' for Inactive)
REMARK    1  A    between atoms: C_1  and  C_2
REMARK    2  A    between atoms: C_2  and  O_3
REMARK    3  A    between atoms: O_3  and  C_4
REMARK    4  A    between atoms: C_4  and  C_5
REMARK    5  A    between atoms: N_7  and  C_8
REMARK    6  A    between atoms: C_8  and  C_9
REMARK    7  A    between atoms: C_9  and  N_10
REMARK    8  A    between atoms: C_13  and  C_14
REMARK                            x       y       z     vdW  Elec       q    Type
REMARK                         _______ _______ _______ _____ _____    ______ ____
ROOT
ATOM      1  N   UNL     1       4.077   5.585  17.387  0.00  0.00    +0.000 NA
ATOM      2  C   UNL     1       4.510   4.205  17.658  0.00  0.00    +0.000 C 
ATOM      3  C   UNL     1       3.442   3.172  17.291  0.00  0.00    +0.000 C 
ATOM      4  C   UNL     1       2.103   3.436  17.998  0.00  0.00    +0.000 C 
ATOM      5  C   UNL     1       1.708   4.895  17.720  0.00  0.00    +0.000 C 
ATOM      6  C   UNL     1       2.817   5.884  18.093  0.00  0.00    +0.000 C 
ENDROOT
BRANCH   4   7
ATOM      7  C   UNL     1       2.117   3.076  19.478  0.00  0.00    +0.000 A 
ATOM      8  C   UNL     1       3.108   2.488  20.246  0.00  0.00    +0.000 A 
ATOM      9  C   UNL     1       2.737   2.320  21.608  0.00  0.00    +0.000 A 
ATOM     10  C   UNL     1       1.453   2.747  21.845  0.00  0.00    +0.000 A 
ATOM     11  S   UNL     1       0.703   3.334  20.429  0.00  0.00    +0.000 S 
ENDBRANCH   4   7
BRANCH   1  12
ATOM     12  C   UNL     1       5.128   6.545  17.801  0.00  0.00    +0.000 C 
BRANCH  12  13
ATOM     13  C   UNL     1       6.207   6.771  16.722  0.00  0.00    +0.000 C 
BRANCH  13  16
ATOM     14  C   UNL     1       6.792   5.028  15.078  0.00  0.00    +0.000 C 
ATOM     15  O   UNL     1       7.797   4.670  15.684  0.00  0.00    +0.000 OA
ATOM     16  N   UNL     1       5.950   6.036  15.503  0.00  0.00    +0.000 N 
ATOM     17  H   UNL     1       5.222   6.348  14.871  0.00  0.00    +0.000 HD
BRANCH  14  18
ATOM     18  C   UNL     1       6.346   4.387  13.764  0.00  0.00    +0.000 C 
BRANCH  18  19
ATOM     19  O   UNL     1       7.342   4.451  12.748  0.00  0.00    +0.000 OA
BRANCH  19  21
ATOM     20  C   UNL     1       5.713   2.907  11.928  0.00  0.00    +0.000 C 
ATOM     21  C   UNL     1       7.078   3.521  11.694  0.00  0.00    +0.000 C 
ENDBRANCH  19  21
ENDBRANCH  18  19
ENDBRANCH  14  18
ENDBRANCH  13  16
ENDBRANCH  12  13
ENDBRANCH   1  12
TORSDOF 7
ENDMDL
MODEL 9
REMARK VINA RESULT:      -5.9      5.535      8.645
REMARK  Name = 
REMARK  8 active torsions:
REMARK  status: ('A' for Active; 'I' for Inactive)
REMARK    1  A    between atoms: C_1  and  C_2
REMARK    2  A    between atoms: C_2  and  O_3
REMARK    3  A    between atoms: O_3  and  C_4
REMARK    4  A    between atoms: C_4  and  C_5
REMARK    5  A    between atoms: N_7  and  C_8
REMARK    6  A    between atoms: C_8  and  C_9
REMARK    7  A    between atoms: C_9  and  N_10
REMARK    8  A    between atoms: C_13  and  C_14
REMARK                            x       y       z     vdW  Elec       q    Type
REMARK                         _______ _______ _______ _____ _____    ______ ____
ROOT
ATOM      1  N   UNL     1       2.058   3.756  19.803  0.00  0.00    +0.000 NA
ATOM      2  C   UNL     1       1.683   3.915  18.389  0.00  0.00    +0.000 C 
ATOM      3  C   UNL     1       2.370   2.891  17.482  0.00  0.00    +0.000 C 
ATOM      4  C   UNL     1       3.901   2.926  17.611  0.00  0.00    +0.000 C 
ATOM      5  C   UNL     1       4.246   2.795  19.104  0.00  0.00    +0.000 C 
ATOM      6  C   UNL     1       3.522   3.834  19.966  0.00  0.00    +0.000 C 
ENDROOT
BRANCH   4   7
ATOM      7  C   UNL     1       4.540   4.133  16.938  0.00  0.00    +0.000 A 
ATOM      8  C   UNL     1       4.271   5.484  17.083  0.00  0.00    +0.000 A 
ATOM      9  C   UNL     1       5.099   6.310  16.274  0.00  0.00    +0.000 A 
ATOM     10  C   UNL     1       5.956   5.571  15.495  0.00  0.00    +0.000 A 
ATOM     11  S   UNL     1       5.752   3.893  15.736  0.00  0.00    +0.000 S 
ENDBRANCH   4   7
BRANCH   1  12
ATOM     12  C   UNL     1       1.402   4.798  20.629  0.00  0.00    +0.000 C 
BRANCH  12  13
ATOM     13  C   UNL     1       1.787   6.235  20.218  0.00  0.00    +0.000 C 
BRANCH  13  16
ATOM     14  C   UNL     1       1.362   8.502  21.090  0.00  0.00    +0.000 C 
ATOM     15  O   UNL     1       1.119   8.978  19.985  0.00  0.00    +0.000 OA
ATOM     16  N   UNL     1       1.691   7.180  21.308  0.00  0.00    +0.000 N 
ATOM     17  H   UNL     1       2.002   6.912  22.235  0.00  0.00    +0.000 HD
BRANCH  14  18
ATOM     18  C   UNL     1       1.325   9.332  22.373  0.00  0.00    +0.000 C 
BRANCH  18  19
ATOM     19  O   UNL     1       0.462  10.462  22.281  0.00  0.00    +0.000 OA
BRANCH  19  21
ATOM     20  C   UNL     1      -1.526  11.555  23.029  0.00  0.00    +0.000 C 
ATOM     21  C   UNL     1      -0.757  10.251  23.000  0.00  0.00    +0.000 C 
ENDBRANCH  19  21
ENDBRANCH  18  19
ENDBRANCH  14  18
ENDBRANCH  13  16
ENDBRANCH  12  13
ENDBRANCH   1  12
TORSDOF 7
ENDMDL
