MODEL 1
REMARK VINA RESULT:      -8.4      0.000      0.000
REMARK  Name = 
REMARK  5 active torsions:
REMARK  status: ('A' for Active; 'I' for Inactive)
REMARK    1  A    between atoms: C_1  and  C_2
REMARK    2  A    between atoms: C_2  and  O_3
REMARK    3  A    between atoms: O_3  and  C_4
REMARK    4  A    between atoms: C_9  and  C_10
REMARK    5  A    between atoms: C_10  and  N_11
REMARK                            x       y       z     vdW  Elec       q    Type
REMARK                         _______ _______ _______ _____ _____    ______ ____
ROOT
ATOM      1  C   UNL     1       4.643   5.703  16.725  0.00  0.00    +0.000 C 
ENDROOT
BRANCH   1   2
ATOM      2  N   UNL     1       4.785   4.847  17.914  0.00  0.00    +0.000 NA
ATOM      3  C   UNL     1       4.149   5.355  19.125  0.00  0.00    +0.000 C 
ATOM      4  C   UNL     1       2.651   5.056  19.232  0.00  0.00    +0.000 C 
ATOM      5  C   UNL     1       2.373   3.544  19.215  0.00  0.00    +0.000 C 
ATOM      6  C   UNL     1       3.092   2.911  18.004  0.00  0.00    +0.000 C 
ATOM      7  C   UNL     1       4.497   3.438  17.661  0.00  0.00    +0.000 C 
ATOM      8  C   UNL     1       0.862   3.254  19.107  0.00  0.00    +0.000 C 
ATOM      9  N   UNL     1       0.406   3.011  20.435  0.00  0.00    +0.000 N 
ATOM     10  C   UNL     1       1.437   2.757  21.313  0.00  0.00    +0.000 C 
ATOM     11  O   UNL     1       1.295   2.439  22.481  0.00  0.00    +0.000 OA
ATOM     12  C   UNL     1       2.748   2.911  20.582  0.00  0.00    +0.000 C 
ATOM     13  H   UNL     1      -0.544   2.812  20.704  0.00  0.00    +0.000 HD
ENDBRANCH   1   2
BRANCH   1  19
ATOM     14  C   UNL     1       6.808   5.279  15.417  0.00  0.00    +0.000 A 
ATOM     15  C   UNL     1       7.483   4.792  14.291  0.00  0.00    +0.000 A 
ATOM     16  C   UNL     1       6.746   4.149  13.293  0.00  0.00    +0.000 A 
ATOM     17  C   UNL     1       5.355   4.023  13.388  0.00  0.00    +0.000 A 
ATOM     18  C   UNL     1       4.667   4.560  14.466  0.00  0.00    +0.000 A 
ATOM     19  C   UNL     1       5.392   5.184  15.500  0.00  0.00    +0.000 A 
ATOM     20  C   UNL     1       4.784   3.290  12.213  0.00  0.00    +0.000 C 
ATOM     21  C   UNL     1       6.034   2.598  11.654  0.00  0.00    +0.000 C 
ATOM     22  C   UNL     1       7.235   3.484  12.037  0.00  0.00    +0.000 C 
BRANCH  14  23
ATOM     23  O   UNL     1       7.416   5.698  16.572  0.00  0.00    +0.000 OA
BRANCH  23  25
ATOM     24  C   UNL     1       7.946   5.443  18.913  0.00  0.00    +0.000 C 
ATOM     25  C   UNL     1       7.855   4.770  17.555  0.00  0.00    +0.000 C 
ENDBRANCH  23  25
ENDBRANCH  14  23
ENDBRANCH   1  19
TORSDOF 4
ENDMDL
MODEL 2
REMARK VINA RESULT:      -8.1      4.626      6.409
REMARK  Name = 
REMARK  5 active torsions:
REMARK  status: ('A' for Active; 'I' for Inactive)
REMARK    1  A    between atoms: C_1  and  C_2
REMARK    2  A    between atoms: C_2  and  O_3
REMARK    3  A    between atoms: O_3  and  C_4
REMARK    4  A    between atoms: C_9  and  C_10
REMARK    5  A    between atoms: C_10  and  N_11
REMARK                            x       y       z     vdW  Elec       q    Type
REMARK                         _______ _______ _______ _____ _____    ______ ____
ROOT
ATOM      1  C   UNL     1       1.885   6.405  18.903  0.00  0.00    +0.000 C 
ENDROOT
BRANCH   1   2
ATOM      2  N   UNL     1       2.299   7.785  19.201  0.00  0.00    +0.000 NA
ATOM      3  C   UNL     1       2.189   8.721  18.088  0.00  0.00    +0.000 C 
ATOM      4  C   UNL     1       0.789   9.308  17.884  0.00  0.00    +0.000 C 
ATOM      5  C   UNL     1       0.312  10.078  19.128  0.00  0.00    +0.000 C 
ATOM      6  C   UNL     1       0.483   9.182  20.373  0.00  0.00    +0.000 C 
ATOM      7  C   UNL     1       1.747   8.308  20.449  0.00  0.00    +0.000 C 
ATOM      8  C   UNL     1      -1.172  10.481  19.001  0.00  0.00    +0.000 C 
ATOM      9  N   UNL     1      -1.181  11.830  18.542  0.00  0.00    +0.000 N 
ATOM     10  C   UNL     1       0.040  12.451  18.693  0.00  0.00    +0.000 C 
ATOM     11  O   UNL     1       0.257  13.625  18.452  0.00  0.00    +0.000 OA
ATOM     12  C   UNL     1       1.034  11.448  19.225  0.00  0.00    +0.000 C 
ATOM     13  H   UNL     1      -2.002  12.377  18.340  0.00  0.00    +0.000 HD
ENDBRANCH   1   2
BRANCH   1  19
ATOM     14  C   UNL     1       2.634   4.294  17.652  0.00  0.00    +0.000 A 
ATOM     15  C   UNL     1       3.586   3.582  16.913  0.00  0.00    +0.000 A 
ATOM     16  C   UNL     1       4.781   4.219  16.568  0.00  0.00    +0.000 A 
ATOM     17  C   UNL     1       5.048   5.530  16.981  0.00  0.00    +0.000 A 
ATOM     18  C   UNL     1       4.142   6.223  17.770  0.00  0.00    +0.000 A 
ATOM     19  C   UNL     1       2.916   5.613  18.103  0.00  0.00    +0.000 A 
ATOM     20  C   UNL     1       6.379   6.006  16.484  0.00  0.00    +0.000 C 
ATOM     21  C   UNL     1       6.654   5.006  15.354  0.00  0.00    +0.000 C 
ATOM     22  C   UNL     1       5.918   3.706  15.730  0.00  0.00    +0.000 C 
BRANCH  14  23
ATOM     23  O   UNL     1       1.336   3.898  17.844  0.00  0.00    +0.000 OA
BRANCH  23  25
ATOM     24  C   UNL     1       1.024   3.055  20.084  0.00  0.00    +0.000 C 
ATOM     25  C   UNL     1       1.022   2.736  18.599  0.00  0.00    +0.000 C 
ENDBRANCH  23  25
ENDBRANCH  14  23
ENDBRANCH   1  19
TORSDOF 4
ENDMDL
MODEL 3
REMARK VINA RESULT:      -7.7      1.005      1.308
REMARK  Name = 
REMARK  5 active torsions:
REMARK  status: ('A' for Active; 'I' for Inactive)
REMARK    1  A    between atoms: C_1  and  C_2
REMARK    2  A    between atoms: C_2  and  O_3
REMARK    3  A    between atoms: O_3  and  C_4
REMARK    4  A    between atoms: C_9  and  C_10
REMARK    5  A    between atoms: C_10  and  N_11
REMARK                            x       y       z     vdW  Elec       q    Type
REMARK                         _______ _______ _______ _____ _____    ______ ____
ROOT
ATOM      1  C   UNL     1       4.658   5.095  16.533  0.00  0.00    +0.000 C 
ENDROOT
BRANCH   1   2
ATOM      2  N   UNL     1       3.858   3.959  17.018  0.00  0.00    +0.000 NA
ATOM      3  C   UNL     1       4.413   3.256  18.170  0.00  0.00    +0.000 C 
ATOM      4  C   UNL     1       4.104   3.902  19.523  0.00  0.00    +0.000 C 
ATOM      5  C   UNL     1       2.589   3.989  19.775  0.00  0.00    +0.000 C 
ATOM      6  C   UNL     1       1.909   4.645  18.554  0.00  0.00    +0.000 C 
ATOM      7  C   UNL     1       2.435   4.260  17.160  0.00  0.00    +0.000 C 
ATOM      8  C   UNL     1       2.278   4.829  21.032  0.00  0.00    +0.000 C 
ATOM      9  N   UNL     1       2.091   3.901  22.096  0.00  0.00    +0.000 N 
ATOM     10  C   UNL     1       1.888   2.613  21.649  0.00  0.00    +0.000 C 
ATOM     11  O   UNL     1       1.622   1.662  22.363  0.00  0.00    +0.000 OA
ATOM     12  C   UNL     1       2.022   2.593  20.146  0.00  0.00    +0.000 C 
ATOM     13  H   UNL     1       1.894   4.137  23.055  0.00  0.00    +0.000 HD
ENDBRANCH   1   2
BRANCH   1  19
ATOM     14  C   UNL     1       6.808   5.200  15.138  0.00  0.00    +0.000 A 
ATOM     15  C   UNL     1       7.527   4.907  13.972  0.00  0.00    +0.000 A 
ATOM     16  C   UNL     1       6.910   4.145  12.977  0.00  0.00    +0.000 A 
ATOM     17  C   UNL     1       5.586   3.711  13.114  0.00  0.00    +0.000 A 
ATOM     18  C   UNL     1       4.841   4.050  14.233  0.00  0.00    +0.000 A 
ATOM     19  C   UNL     1       5.452   4.790  15.265  0.00  0.00    +0.000 A 
ATOM     20  C   UNL     1       5.144   2.903  11.932  0.00  0.00    +0.000 C 
ATOM     21  C   UNL     1       6.492   2.523  11.306  0.00  0.00    +0.000 C 
ATOM     22  C   UNL     1       7.481   3.642  11.682  0.00  0.00    +0.000 C 
BRANCH  14  23
ATOM     23  O   UNL     1       7.354   5.710  16.286  0.00  0.00    +0.000 OA
BRANCH  23  25
ATOM     24  C   UNL     1       7.648   5.705  18.683  0.00  0.00    +0.000 C 
ATOM     25  C   UNL     1       7.627   4.880  17.408  0.00  0.00    +0.000 C 
ENDBRANCH  23  25
ENDBRANCH  14  23
ENDBRANCH   1  19
TORSDOF 4
ENDMDL
MODEL 4
REMARK VINA RESULT:      -7.6      4.798      6.530
REMARK  Name = 
REMARK  5 active torsions:
REMARK  status: ('A' for Active; 'I' for Inactive)
REMARK    1  A    between atoms: C_1  and  C_2
REMARK    2  A    between atoms: C_2  and  O_3
REMARK    3  A    between atoms: O_3  and  C_4
REMARK    4  A    between atoms: C_9  and  C_10
REMARK    5  A    between atoms: C_10  and  N_11
REMARK                            x       y       z     vdW  Elec       q    Type
REMARK                         _______ _______ _______ _____ _____    ______ ____
ROOT
ATOM      1  C   UNL     1       2.043   6.849  18.945  0.00  0.00    +0.000 C 
ENDROOT
BRANCH   1   2
ATOM      2  N   UNL     1       2.189   8.264  19.322  0.00  0.00    +0.000 NA
ATOM      3  C   UNL     1       2.122   9.212  18.216  0.00  0.00    +0.000 C 
ATOM      4  C   UNL     1       0.702   9.593  17.787  0.00  0.00    +0.000 C 
ATOM      5  C   UNL     1      -0.083  10.240  18.941  0.00  0.00    +0.000 C 
ATOM      6  C   UNL     1       0.015   9.335  20.189  0.00  0.00    +0.000 C 
ATOM      7  C   UNL     1       1.368   8.656  20.465  0.00  0.00    +0.000 C 
ATOM      8  C   UNL     1      -1.570  10.425  18.573  0.00  0.00    +0.000 C 
ATOM      9  N   UNL     1      -1.707  11.772  18.132  0.00  0.00    +0.000 N 
ATOM     10  C   UNL     1      -0.635  12.561  18.491  0.00  0.00    +0.000 C 
ATOM     11  O   UNL     1      -0.561  13.762  18.303  0.00  0.00    +0.000 OA
ATOM     12  C   UNL     1       0.398  11.697  19.171  0.00  0.00    +0.000 C 
ATOM     13  H   UNL     1      -2.557  12.199  17.801  0.00  0.00    +0.000 HD
ENDBRANCH   1   2
BRANCH   1  19
ATOM     14  C   UNL     1       3.950   5.185  19.359  0.00  0.00    +0.000 A 
ATOM     15  C   UNL     1       5.151   4.576  18.971  0.00  0.00    +0.000 A 
ATOM     16  C   UNL     1       5.705   4.916  17.734  0.00  0.00    +0.000 A 
ATOM     17  C   UNL     1       5.103   5.873  16.908  0.00  0.00    +0.000 A 
ATOM     18  C   UNL     1       3.951   6.531  17.311  0.00  0.00    +0.000 A 
ATOM     19  C   UNL     1       3.355   6.182  18.539  0.00  0.00    +0.000 A 
ATOM     20  C   UNL     1       5.866   6.062  15.634  0.00  0.00    +0.000 C 
ATOM     21  C   UNL     1       6.716   4.786  15.599  0.00  0.00    +0.000 C 
ATOM     22  C   UNL     1       6.930   4.361  17.064  0.00  0.00    +0.000 C 
BRANCH  14  23
ATOM     23  O   UNL     1       3.169   4.774  20.407  0.00  0.00    +0.000 OA
BRANCH  23  25
ATOM     24  C   UNL     1       1.301   3.363  20.996  0.00  0.00    +0.000 C 
ATOM     25  C   UNL     1       2.745   3.423  20.529  0.00  0.00    +0.000 C 
ENDBRANCH  23  25
ENDBRANCH  14  23
ENDBRANCH   1  19
TORSDOF 4
ENDMDL
MODEL 5
REMARK VINA RESULT:      -7.3      5.225      7.865
REMARK  Name = 
REMARK  5 active torsions:
REMARK  status: ('A' for Active; 'I' for Inactive)
REMARK    1  A    between atoms: C_1  and  C_2
REMARK    2  A    between atoms: C_2  and  O_3
REMARK    3  A    between atoms: O_3  and  C_4
REMARK    4  A    between atoms: C_9  and  C_10
REMARK    5  A    between atoms: C_10  and  N_11
REMARK                            x       y       z     vdW  Elec       q    Type
REMARK                         _______ _______ _______ _____ _____    ______ ____
ROOT
ATOM      1  C   UNL     1       1.577   8.414  18.122  0.00  0.00    +0.000 C 
ENDROOT
BRANCH   1   2
ATOM      2  N   UNL     1       2.760   7.776  18.722  0.00  0.00    +0.000 NA
ATOM      3  C   UNL     1       2.476   6.780  19.748  0.00  0.00    +0.000 C 
ATOM      4  C   UNL     1       2.141   5.386  19.210  0.00  0.00    +0.000 C 
ATOM      5  C   UNL     1       3.298   4.809  18.376  0.00  0.00    +0.000 C 
ATOM      6  C   UNL     1       3.723   5.848  17.315  0.00  0.00    +0.000 C 
ATOM      7  C   UNL     1       3.746   7.326  17.742  0.00  0.00    +0.000 C 
ATOM      8  C   UNL     1       2.878   3.507  17.662  0.00  0.00    +0.000 C 
ATOM      9  N   UNL     1       3.341   2.437  18.479  0.00  0.00    +0.000 N 
ATOM     10  C   UNL     1       4.281   2.841  19.403  0.00  0.00    +0.000 C 
ATOM     11  O   UNL     1       4.884   2.095  20.153  0.00  0.00    +0.000 OA
ATOM     12  C   UNL     1       4.449   4.337  19.303  0.00  0.00    +0.000 C 
ATOM     13  H   UNL     1       3.205   1.456  18.296  0.00  0.00    +0.000 HD
ENDBRANCH   1   2
BRANCH   1  19
ATOM     14  C   UNL     1       0.415  10.189  19.563  0.00  0.00    +0.000 A 
ATOM     15  C   UNL     1       0.240  11.520  19.962  0.00  0.00    +0.000 A 
ATOM     16  C   UNL     1       1.069  12.500  19.411  0.00  0.00    +0.000 A 
ATOM     17  C   UNL     1       2.033  12.175  18.449  0.00  0.00    +0.000 A 
ATOM     18  C   UNL     1       2.172  10.872  17.997  0.00  0.00    +0.000 A 
ATOM     19  C   UNL     1       1.369   9.861  18.562  0.00  0.00    +0.000 A 
ATOM     20  C   UNL     1       2.808  13.381  18.014  0.00  0.00    +0.000 C 
ATOM     21  C   UNL     1       2.510  14.359  19.158  0.00  0.00    +0.000 C 
ATOM     22  C   UNL     1       1.130  13.969  19.721  0.00  0.00    +0.000 C 
BRANCH  14  23
ATOM     23  O   UNL     1      -0.140   9.105  20.192  0.00  0.00    +0.000 OA
BRANCH  23  25
ATOM     24  C   UNL     1       1.212   9.006  22.189  0.00  0.00    +0.000 C 
ATOM     25  C   UNL     1      -0.192   9.018  21.610  0.00  0.00    +0.000 C 
ENDBRANCH  23  25
ENDBRANCH  14  23
ENDBRANCH   1  19
TORSDOF 4
ENDMDL
MODEL 6
REMARK VINA RESULT:      -7.2      5.367      7.291
REMARK  Name = 
REMARK  5 active torsions:
REMARK  status: ('A' for Active; 'I' for Inactive)
REMARK    1  A    between atoms: C_1  and  C_2
REMARK    2  A    between atoms: C_2  and  O_3
REMARK    3  A    between atoms: O_3  and  C_4
REMARK    4  A    between atoms: C_9  and  C_10
REMARK    5  A    between atoms: C_10  and  N_11
REMARK                            x       y       z     vdW  Elec       q    Type
REMARK                         _______ _______ _______ _____ _____    ______ ____
ROOT
ATOM      1  C   UNL     1       1.370   7.507  19.581  0.00  0.00    +0.000 C 
ENDROOT
BRANCH   1   2
ATOM      2  N   UNL     1       1.682   8.908  19.902  0.00  0.00    +0.000 NA
ATOM      3  C   UNL     1       1.641   9.829  18.771  0.00  0.00    +0.000 C 
ATOM      4  C   UNL     1       0.243  10.342  18.416  0.00  0.00    +0.000 C 
ATOM      5  C   UNL     1      -0.398  11.097  19.593  0.00  0.00    +0.000 C 
ATOM      6  C   UNL     1      -0.314  10.221  20.861  0.00  0.00    +0.000 C 
ATOM      7  C   UNL     1       0.978   9.413  21.078  0.00  0.00    +0.000 C 
ATOM      8  C   UNL     1      -1.879  11.424  19.308  0.00  0.00    +0.000 C 
ATOM      9  N   UNL     1      -1.907  12.766  18.832  0.00  0.00    +0.000 N 
ATOM     10  C   UNL     1      -0.740  13.450  19.100  0.00  0.00    +0.000 C 
ATOM     11  O   UNL     1      -0.557  14.632  18.868  0.00  0.00    +0.000 OA
ATOM     12  C   UNL     1       0.241  12.503  19.745  0.00  0.00    +0.000 C 
ATOM     13  H   UNL     1      -2.729  13.269  18.539  0.00  0.00    +0.000 HD
ENDBRANCH   1   2
BRANCH   1  19
ATOM     14  C   UNL     1       3.035   5.574  19.848  0.00  0.00    +0.000 A 
ATOM     15  C   UNL     1       4.140   4.839  19.400  0.00  0.00    +0.000 A 
ATOM     16  C   UNL     1       4.732   5.191  18.184  0.00  0.00    +0.000 A 
ATOM     17  C   UNL     1       4.262   6.278  17.438  0.00  0.00    +0.000 A 
ATOM     18  C   UNL     1       3.211   7.055  17.903  0.00  0.00    +0.000 A 
ATOM     19  C   UNL     1       2.578   6.700  19.110  0.00  0.00    +0.000 A 
ATOM     20  C   UNL     1       5.039   6.456  16.171  0.00  0.00    +0.000 C 
ATOM     21  C   UNL     1       5.708   5.082  16.032  0.00  0.00    +0.000 C 
ATOM     22  C   UNL     1       5.867   4.526  17.459  0.00  0.00    +0.000 C 
BRANCH  14  23
ATOM     23  O   UNL     1       2.209   5.197  20.874  0.00  0.00    +0.000 OA
BRANCH  23  25
ATOM     24  C   UNL     1       1.019   3.142  20.440  0.00  0.00    +0.000 C 
ATOM     25  C   UNL     1       2.089   3.835  21.265  0.00  0.00    +0.000 C 
ENDBRANCH  23  25
ENDBRANCH  14  23
ENDBRANCH   1  19
TORSDOF 4
ENDMDL
MODEL 7
REMARK VINA RESULT:      -7.1      5.578      7.847
REMARK  Name = 
REMARK  5 active torsions:
REMARK  status: ('A' for Active; 'I' for Inactive)
REMARK    1  A    between atoms: C_1  and  C_2
REMARK    2  A    between atoms: C_2  and  O_3
REMARK    3  A    between atoms: O_3  and  C_4
REMARK    4  A    between atoms: C_9  and  C_10
REMARK    5  A    between atoms: C_10  and  N_11
REMARK                            x       y       z     vdW  Elec       q    Type
REMARK                         _______ _______ _______ _____ _____    ______ ____
ROOT
ATOM      1  C   UNL     1       2.266   8.119  19.823  0.00  0.00    +0.000 C 
ENDROOT
BRANCH   1   2
ATOM      2  N   UNL     1       1.085   8.890  19.404  0.00  0.00    +0.000 NA
ATOM      3  C   UNL     1       0.321   9.495  20.489  0.00  0.00    +0.000 C 
ATOM      4  C   UNL     1       0.873  10.832  20.990  0.00  0.00    +0.000 C 
ATOM      5  C   UNL     1       0.912  11.884  19.868  0.00  0.00    +0.000 C 
ATOM      6  C   UNL     1       1.630  11.287  18.640  0.00  0.00    +0.000 C 
ATOM      7  C   UNL     1       1.346   9.813  18.302  0.00  0.00    +0.000 C 
ATOM      8  C   UNL     1       1.663  13.155  20.319  0.00  0.00    +0.000 C 
ATOM      9  N   UNL     1       0.665  14.082  20.734  0.00  0.00    +0.000 N 
ATOM     10  C   UNL     1      -0.596  13.740  20.294  0.00  0.00    +0.000 C 
ATOM     11  O   UNL     1      -1.596  14.418  20.449  0.00  0.00    +0.000 OA
ATOM     12  C   UNL     1      -0.517  12.415  19.576  0.00  0.00    +0.000 C 
ATOM     13  H   UNL     1       0.835  15.004  21.103  0.00  0.00    +0.000 HD
ENDBRANCH   1   2
BRANCH   1  19
ATOM     14  C   UNL     1       2.766   6.168  18.233  0.00  0.00    +0.000 A 
ATOM     15  C   UNL     1       2.703   4.808  17.906  0.00  0.00    +0.000 A 
ATOM     16  C   UNL     1       2.140   3.922  18.828  0.00  0.00    +0.000 A 
ATOM     17  C   UNL     1       1.611   4.379  20.042  0.00  0.00    +0.000 A 
ATOM     18  C   UNL     1       1.607   5.731  20.348  0.00  0.00    +0.000 A 
ATOM     19  C   UNL     1       2.198   6.640  19.449  0.00  0.00    +0.000 A 
ATOM     20  C   UNL     1       1.075   3.252  20.870  0.00  0.00    +0.000 C 
ATOM     21  C   UNL     1       1.765   2.045  20.220  0.00  0.00    +0.000 C 
ATOM     22  C   UNL     1       2.020   2.426  18.749  0.00  0.00    +0.000 C 
BRANCH  14  23
ATOM     23  O   UNL     1       3.503   7.102  17.554  0.00  0.00    +0.000 OA
BRANCH  23  25
ATOM     24  C   UNL     1       5.116   6.500  15.862  0.00  0.00    +0.000 C 
ATOM     25  C   UNL     1       4.890   6.912  17.306  0.00  0.00    +0.000 C 
ENDBRANCH  23  25
ENDBRANCH  14  23
ENDBRANCH   1  19
TORSDOF 4
ENDMDL
MODEL 8
REMARK VINA RESULT:      -7.0      5.777      8.330
REMARK  Name = 
REMARK  5 active torsions:
REMARK  status: ('A' for Active; 'I' for Inactive)
REMARK    1  A    between atoms: C_1  and  C_2
REMARK    2  A    between atoms: C_2  and  O_3
REMARK    3  A    between atoms: O_3  and  C_4
REMARK    4  A    between atoms: C_9  and  C_10
REMARK    5  A    between atoms: C_10  and  N_11
REMARK                            x       y       z     vdW  Elec       q    Type
REMARK                         _______ _______ _______ _____ _____    ______ ____
ROOT
ATOM      1  C   UNL     1       1.302   8.776  17.983  0.00  0.00    +0.000 C 
ENDROOT
BRANCH   1   2
ATOM      2  N   UNL     1       2.504   8.230  18.633  0.00  0.00    +0.000 NA
ATOM      3  C   UNL     1       2.256   7.183  19.619  0.00  0.00    +0.000 C 
ATOM      4  C   UNL     1       2.077   5.781  19.030  0.00  0.00    +0.000 C 
ATOM      5  C   UNL     1       3.323   5.333  18.248  0.00  0.00    +0.000 C 
ATOM      6  C   UNL     1       3.709   6.434  17.237  0.00  0.00    +0.000 C 
ATOM      7  C   UNL     1       3.576   7.896  17.698  0.00  0.00    +0.000 C 
ATOM      8  C   UNL     1       3.060   4.019  17.482  0.00  0.00    +0.000 C 
ATOM      9  N   UNL     1       3.574   2.971  18.298  0.00  0.00    +0.000 N 
ATOM     10  C   UNL     1       4.424   3.431  19.282  0.00  0.00    +0.000 C 
ATOM     11  O   UNL     1       5.050   2.720  20.047  0.00  0.00    +0.000 OA
ATOM     12  C   UNL     1       4.462   4.938  19.226  0.00  0.00    +0.000 C 
ATOM     13  H   UNL     1       3.536   1.987  18.085  0.00  0.00    +0.000 HD
ENDBRANCH   1   2
BRANCH   1  19
ATOM     14  C   UNL     1      -0.160  10.827  18.471  0.00  0.00    +0.000 A 
ATOM     15  C   UNL     1      -0.309  12.206  18.665  0.00  0.00    +0.000 A 
ATOM     16  C   UNL     1       0.831  13.014  18.648  0.00  0.00    +0.000 A 
ATOM     17  C   UNL     1       2.099  12.471  18.404  0.00  0.00    +0.000 A 
ATOM     18  C   UNL     1       2.252  11.118  18.145  0.00  0.00    +0.000 A 
ATOM     19  C   UNL     1       1.121  10.278  18.189  0.00  0.00    +0.000 A 
ATOM     20  C   UNL     1       3.167  13.521  18.445  0.00  0.00    +0.000 C 
ATOM     21  C   UNL     1       2.449  14.651  19.196  0.00  0.00    +0.000 C 
ATOM     22  C   UNL     1       0.947  14.491  18.897  0.00  0.00    +0.000 C 
BRANCH  14  23
ATOM     23  O   UNL     1      -1.134   9.894  18.710  0.00  0.00    +0.000 OA
BRANCH  23  25
ATOM     24  C   UNL     1      -2.268   9.916  16.578  0.00  0.00    +0.000 C 
ATOM     25  C   UNL     1      -2.410   9.982  18.089  0.00  0.00    +0.000 C 
ENDBRANCH  23  25
ENDBRANCH  14  23
ENDBRANCH   1  19
TORSDOF 4
ENDMDL
MODEL 9
REMARK VINA RESULT:      -7.0      4.961      6.577
REMARK  Name = 
REMARK  5 active torsions:
REMARK  status: ('A' for Active; 'I' for Inactive)
REMARK    1  A    between atoms: C_1  and  C_2
REMARK    2  A    between atoms: C_2  and  O_3
REMARK    3  A    between atoms: O_3  and  C_4
REMARK    4  A    between atoms: C_9  and  C_10
REMARK    5  A    between atoms: C_10  and  N_11
REMARK                            x       y       z     vdW  Elec       q    Type
REMARK                         _______ _______ _______ _____ _____    ______ ____
ROOT
ATOM      1  C   UNL     1       2.825   8.068  18.401  0.00  0.00    +0.000 C 
ENDROOT
BRANCH   1   2
ATOM      2  N   UNL     1       1.431   8.423  18.712  0.00  0.00    +0.000 NA
ATOM      3  C   UNL     1       1.118   8.527  20.133  0.00  0.00    +0.000 C 
ATOM      4  C   UNL     1       1.481   9.871  20.770  0.00  0.00    +0.000 C 
ATOM      5  C   UNL     1       0.740  11.036  20.092  0.00  0.00    +0.000 C 
ATOM      6  C   UNL     1       0.947  10.947  18.565  0.00  0.00    +0.000 C 
ATOM      7  C   UNL     1       0.921   9.546  17.929  0.00  0.00    +0.000 C 
ATOM      8  C   UNL     1       1.266  12.399  20.590  0.00  0.00    +0.000 C 
ATOM      9  N   UNL     1       0.368  12.825  21.610  0.00  0.00    +0.000 N 
ATOM     10  C   UNL     1      -0.823  12.131  21.594  0.00  0.00    +0.000 C 
ATOM     11  O   UNL     1      -1.777  12.371  22.312  0.00  0.00    +0.000 OA
ATOM     12  C   UNL     1      -0.748  11.060  20.534  0.00  0.00    +0.000 C 
ATOM     13  H   UNL     1       0.450  13.672  22.149  0.00  0.00    +0.000 HD
ENDBRANCH   1   2
BRANCH   1  19
ATOM     14  C   UNL     1       4.248   6.116  17.540  0.00  0.00    +0.000 A 
ATOM     15  C   UNL     1       4.425   4.751  17.277  0.00  0.00    +0.000 A 
ATOM     16  C   UNL     1       3.412   3.861  17.643  0.00  0.00    +0.000 A 
ATOM     17  C   UNL     1       2.224   4.316  18.227  0.00  0.00    +0.000 A 
ATOM     18  C   UNL     1       2.009   5.671  18.432  0.00  0.00    +0.000 A 
ATOM     19  C   UNL     1       3.029   6.585  18.101  0.00  0.00    +0.000 A 
ATOM     20  C   UNL     1       1.294   3.185  18.544  0.00  0.00    +0.000 C 
ATOM     21  C   UNL     1       2.254   1.989  18.510  0.00  0.00    +0.000 C 
ATOM     22  C   UNL     1       3.387   2.362  17.536  0.00  0.00    +0.000 C 
BRANCH  14  23
ATOM     23  O   UNL     1       5.239   7.059  17.472  0.00  0.00    +0.000 OA
BRANCH  23  25
ATOM     24  C   UNL     1       7.580   7.624  17.642  0.00  0.00    +0.000 C 
ATOM     25  C   UNL     1       6.536   6.737  16.987  0.00  0.00    +0.000 C 
ENDBRANCH  23  25
ENDBRANCH  14  23
ENDBRANCH   1  19
TORSDOF 4
ENDMDL
