MODEL 1
REMARK VINA RESULT:      -7.8      0.000      0.000
REMARK  Name = 
REMARK  10 active torsions:
REMARK  status: ('A' for Active; 'I' for Inactive)
REMARK    1  A    between atoms: C_1  and  C_2
REMARK    2  A    between atoms: C_2  and  C_3
REMARK    3  A    between atoms: C_2  and  O_4
REMARK    4  A    between atoms: O_4  and  C_5
REMARK    5  A    between atoms: C_8  and  C_9
REMARK    6  A    between atoms: C_14  and  O_15
REMARK    7  A    between atoms: C_17  and  O_18
REMARK    8  A    between atoms: O_18  and  C_19
REMARK    9  A    between atoms: C_19  and  C_20
REMARK   10  A    between atoms: C_19  and  C_21
REMARK                            x       y       z     vdW  Elec       q    Type
REMARK                         _______ _______ _______ _____ _____    ______ ____
ROOT
ATOM      1  C   UNL     1       2.016   7.071  20.069  0.00  0.00    +0.000 A 
ATOM      2  C   UNL     1       1.629   6.015  20.795  0.00  0.00    +0.000 A 
ATOM      3  C   UNL     1       2.363   4.768  20.673  0.00  0.00    +0.000 A 
ATOM      4  O   UNL     1       2.286   3.905  21.525  0.00  0.00    +0.000 OA
ATOM      5  C   UNL     1       3.121   4.594  19.448  0.00  0.00    +0.000 A 
ATOM      6  C   UNL     1       3.496   3.308  19.085  0.00  0.00    +0.000 A 
ATOM      7  C   UNL     1       4.094   3.094  17.862  0.00  0.00    +0.000 A 
ATOM      8  C   UNL     1       4.365   4.166  17.009  0.00  0.00    +0.000 A 
ATOM      9  C   UNL     1       4.019   5.485  17.385  0.00  0.00    +0.000 A 
ATOM     10  C   UNL     1       3.363   5.704  18.620  0.00  0.00    +0.000 A 
ATOM     11  O   UNL     1       2.962   6.987  19.018  0.00  0.00    +0.000 OA
ENDROOT
BRANCH   1  15
ATOM     12  C   UNL     1      -0.345  10.616  20.875  0.00  0.00    +0.000 A 
ATOM     13  C   UNL     1      -0.078   9.701  21.880  0.00  0.00    +0.000 A 
ATOM     14  C   UNL     1       0.770   8.620  21.632  0.00  0.00    +0.000 A 
ATOM     15  C   UNL     1       1.324   8.368  20.352  0.00  0.00    +0.000 A 
ATOM     16  C   UNL     1       1.126   9.351  19.383  0.00  0.00    +0.000 A 
ATOM     17  C   UNL     1       0.291  10.457  19.640  0.00  0.00    +0.000 A 
BRANCH  12  18
ATOM     18  O   UNL     1      -1.239  11.590  21.224  0.00  0.00    +0.000 OA
BRANCH  18  20
ATOM     19  C   UNL     1      -0.698  13.532  22.511  0.00  0.00    +0.000 C 
ATOM     20  C   UNL     1      -1.219  12.094  22.562  0.00  0.00    +0.000 C 
ATOM     21  C   UNL     1      -2.633  12.090  23.138  0.00  0.00    +0.000 C 
ENDBRANCH  18  20
ENDBRANCH  12  18
ENDBRANCH   1  15
BRANCH   6  22
ATOM     22  O   UNL     1       3.289   2.211  19.876  0.00  0.00    +0.000 OA
ATOM     23  H   UNL     1       4.089   2.085  20.440  0.00  0.00    +0.000 HD
ENDBRANCH   6  22
BRANCH   8  24
ATOM     24  O   UNL     1       5.116   3.764  15.943  0.00  0.00    +0.000 OA
BRANCH  24  25
ATOM     25  C   UNL     1       5.645   4.690  14.996  0.00  0.00    +0.000 C 
ATOM     26  C   UNL     1       7.098   4.920  15.380  0.00  0.00    +0.000 C 
ATOM     27  C   UNL     1       5.608   4.002  13.621  0.00  0.00    +0.000 C 
ENDBRANCH  24  25
ENDBRANCH   8  24
TORSDOF 6
ENDMDL
MODEL 2
REMARK VINA RESULT:      -7.6      1.820      2.366
REMARK  Name = 
REMARK  10 active torsions:
REMARK  status: ('A' for Active; 'I' for Inactive)
REMARK    1  A    between atoms: C_1  and  C_2
REMARK    2  A    between atoms: C_2  and  C_3
REMARK    3  A    between atoms: C_2  and  O_4
REMARK    4  A    between atoms: O_4  and  C_5
REMARK    5  A    between atoms: C_8  and  C_9
REMARK    6  A    between atoms: C_14  and  O_15
REMARK    7  A    between atoms: C_17  and  O_18
REMARK    8  A    between atoms: O_18  and  C_19
REMARK    9  A    between atoms: C_19  and  C_20
REMARK   10  A    between atoms: C_19  and  C_21
REMARK                            x       y       z     vdW  Elec       q    Type
REMARK                         _______ _______ _______ _____ _____    ______ ____
ROOT
ATOM      1  C   UNL     1       2.842   6.981  18.446  0.00  0.00    +0.000 A 
ATOM      2  C   UNL     1       2.349   5.800  18.838  0.00  0.00    +0.000 A 
ATOM      3  C   UNL     1       3.149   4.603  18.643  0.00  0.00    +0.000 A 
ATOM      4  O   UNL     1       2.921   3.585  19.265  0.00  0.00    +0.000 OA
ATOM      5  C   UNL     1       4.172   4.683  17.617  0.00  0.00    +0.000 A 
ATOM      6  C   UNL     1       4.678   3.497  17.101  0.00  0.00    +0.000 A 
ATOM      7  C   UNL     1       5.547   3.537  16.033  0.00  0.00    +0.000 A 
ATOM      8  C   UNL     1       5.954   4.761  15.496  0.00  0.00    +0.000 A 
ATOM      9  C   UNL     1       5.472   5.975  16.038  0.00  0.00    +0.000 A 
ATOM     10  C   UNL     1       4.544   5.938  17.106  0.00  0.00    +0.000 A 
ATOM     11  O   UNL     1       4.005   7.113  17.647  0.00  0.00    +0.000 OA
ENDROOT
BRANCH   1  15
ATOM     12  C   UNL     1       0.199  10.248  19.514  0.00  0.00    +0.000 A 
ATOM     13  C   UNL     1       0.620   9.337  20.469  0.00  0.00    +0.000 A 
ATOM     14  C   UNL     1       1.553   8.355  20.134  0.00  0.00    +0.000 A 
ATOM     15  C   UNL     1       2.045   8.195  18.815  0.00  0.00    +0.000 A 
ATOM     16  C   UNL     1       1.689   9.178  17.893  0.00  0.00    +0.000 A 
ATOM     17  C   UNL     1       0.768  10.187  18.238  0.00  0.00    +0.000 A 
BRANCH  12  18
ATOM     18  O   UNL     1      -0.761  11.117  19.950  0.00  0.00    +0.000 OA
BRANCH  18  20
ATOM     19  C   UNL     1      -2.839  12.144  19.359  0.00  0.00    +0.000 C 
ATOM     20  C   UNL     1      -1.355  12.016  19.010  0.00  0.00    +0.000 C 
ATOM     21  C   UNL     1      -0.692  13.387  19.115  0.00  0.00    +0.000 C 
ENDBRANCH  18  20
ENDBRANCH  12  18
ENDBRANCH   1  15
BRANCH   6  22
ATOM     22  O   UNL     1       4.348   2.262  17.589  0.00  0.00    +0.000 OA
ATOM     23  H   UNL     1       4.915   2.081  18.376  0.00  0.00    +0.000 HD
ENDBRANCH   6  22
BRANCH   8  24
ATOM     24  O   UNL     1       6.944   4.584  14.574  0.00  0.00    +0.000 OA
BRANCH  24  25
ATOM     25  C   UNL     1       6.757   4.888  13.193  0.00  0.00    +0.000 C 
ATOM     26  C   UNL     1       8.085   5.429  12.685  0.00  0.00    +0.000 C 
ATOM     27  C   UNL     1       6.465   3.561  12.473  0.00  0.00    +0.000 C 
ENDBRANCH  24  25
ENDBRANCH   8  24
TORSDOF 6
ENDMDL
MODEL 3
REMARK VINA RESULT:      -7.6      2.372      3.334
REMARK  Name = 
REMARK  10 active torsions:
REMARK  status: ('A' for Active; 'I' for Inactive)
REMARK    1  A    between atoms: C_1  and  C_2
REMARK    2  A    between atoms: C_2  and  C_3
REMARK    3  A    between atoms: C_2  and  O_4
REMARK    4  A    between atoms: O_4  and  C_5
REMARK    5  A    between atoms: C_8  and  C_9
REMARK    6  A    between atoms: C_14  and  O_15
REMARK    7  A    between atoms: C_17  and  O_18
REMARK    8  A    between atoms: O_18  and  C_19
REMARK    9  A    between atoms: C_19  and  C_20
REMARK   10  A    between atoms: C_19  and  C_21
REMARK                            x       y       z     vdW  Elec       q    Type
REMARK                         _______ _______ _______ _____ _____    ______ ____
ROOT
ATOM      1  C   UNL     1       3.795   6.958  18.223  0.00  0.00    +0.000 A 
ATOM      2  C   UNL     1       4.459   6.234  19.133  0.00  0.00    +0.000 A 
ATOM      3  C   UNL     1       5.724   5.624  18.761  0.00  0.00    +0.000 A 
ATOM      4  O   UNL     1       6.518   5.258  19.605  0.00  0.00    +0.000 OA
ATOM      5  C   UNL     1       5.936   5.415  17.341  0.00  0.00    +0.000 A 
ATOM      6  C   UNL     1       6.897   4.494  16.950  0.00  0.00    +0.000 A 
ATOM      7  C   UNL     1       7.027   4.172  15.616  0.00  0.00    +0.000 A 
ATOM      8  C   UNL     1       6.229   4.798  14.656  0.00  0.00    +0.000 A 
ATOM      9  C   UNL     1       5.272   5.764  15.041  0.00  0.00    +0.000 A 
ATOM     10  C   UNL     1       5.103   6.065  16.414  0.00  0.00    +0.000 A 
ATOM     11  O   UNL     1       4.138   6.983  16.849  0.00  0.00    +0.000 OA
ENDROOT
BRANCH   1  15
ATOM     12  C   UNL     1       0.527   9.415  19.664  0.00  0.00    +0.000 A 
ATOM     13  C   UNL     1       0.961   9.513  18.352  0.00  0.00    +0.000 A 
ATOM     14  C   UNL     1       1.942   8.643  17.875  0.00  0.00    +0.000 A 
ATOM     15  C   UNL     1       2.582   7.691  18.706  0.00  0.00    +0.000 A 
ATOM     16  C   UNL     1       2.063   7.538  19.992  0.00  0.00    +0.000 A 
ATOM     17  C   UNL     1       1.054   8.399  20.467  0.00  0.00    +0.000 A 
BRANCH  12  18
ATOM     18  O   UNL     1      -0.388  10.364  20.026  0.00  0.00    +0.000 OA
BRANCH  18  20
ATOM     19  C   UNL     1      -1.494  12.431  19.552  0.00  0.00    +0.000 C 
ATOM     20  C   UNL     1      -0.141  11.728  19.675  0.00  0.00    +0.000 C 
ATOM     21  C   UNL     1       0.680  12.403  20.770  0.00  0.00    +0.000 C 
ENDBRANCH  18  20
ENDBRANCH  12  18
ENDBRANCH   1  15
BRANCH   6  22
ATOM     22  O   UNL     1       7.733   3.858  17.827  0.00  0.00    +0.000 OA
ATOM     23  H   UNL     1       8.426   3.388  17.305  0.00  0.00    +0.000 HD
ENDBRANCH   6  22
BRANCH   8  24
ATOM     24  O   UNL     1       6.639   4.474  13.395  0.00  0.00    +0.000 OA
BRANCH  24  25
ATOM     25  C   UNL     1       6.197   3.288  12.737  0.00  0.00    +0.000 C 
ATOM     26  C   UNL     1       4.850   3.615  12.112  0.00  0.00    +0.000 C 
ATOM     27  C   UNL     1       7.200   2.996  11.608  0.00  0.00    +0.000 C 
ENDBRANCH  24  25
ENDBRANCH   8  24
TORSDOF 6
ENDMDL
MODEL 4
REMARK VINA RESULT:      -7.6      1.326      2.016
REMARK  Name = 
REMARK  10 active torsions:
REMARK  status: ('A' for Active; 'I' for Inactive)
REMARK    1  A    between atoms: C_1  and  C_2
REMARK    2  A    between atoms: C_2  and  C_3
REMARK    3  A    between atoms: C_2  and  O_4
REMARK    4  A    between atoms: O_4  and  C_5
REMARK    5  A    between atoms: C_8  and  C_9
REMARK    6  A    between atoms: C_14  and  O_15
REMARK    7  A    between atoms: C_17  and  O_18
REMARK    8  A    between atoms: O_18  and  C_19
REMARK    9  A    between atoms: C_19  and  C_20
REMARK   10  A    between atoms: C_19  and  C_21
REMARK                            x       y       z     vdW  Elec       q    Type
REMARK                         _______ _______ _______ _____ _____    ______ ____
ROOT
ATOM      1  C   UNL     1       2.851   7.012  18.549  0.00  0.00    +0.000 A 
ATOM      2  C   UNL     1       2.501   5.808  19.020  0.00  0.00    +0.000 A 
ATOM      3  C   UNL     1       3.341   4.662  18.718  0.00  0.00    +0.000 A 
ATOM      4  O   UNL     1       3.276   3.643  19.375  0.00  0.00    +0.000 OA
ATOM      5  C   UNL     1       4.193   4.789  17.550  0.00  0.00    +0.000 A 
ATOM      6  C   UNL     1       4.694   3.630  16.974  0.00  0.00    +0.000 A 
ATOM      7  C   UNL     1       5.391   3.706  15.788  0.00  0.00    +0.000 A 
ATOM      8  C   UNL     1       5.631   4.944  15.186  0.00  0.00    +0.000 A 
ATOM      9  C   UNL     1       5.155   6.133  15.783  0.00  0.00    +0.000 A 
ATOM     10  C   UNL     1       4.401   6.056  16.978  0.00  0.00    +0.000 A 
ATOM     11  O   UNL     1       3.871   7.203  17.584  0.00  0.00    +0.000 OA
ENDROOT
BRANCH   1  15
ATOM     12  C   UNL     1       0.175  10.127  19.937  0.00  0.00    +0.000 A 
ATOM     13  C   UNL     1       0.708   9.206  20.824  0.00  0.00    +0.000 A 
ATOM     14  C   UNL     1       1.648   8.275  20.381  0.00  0.00    +0.000 A 
ATOM     15  C   UNL     1       2.038   8.178  19.022  0.00  0.00    +0.000 A 
ATOM     16  C   UNL     1       1.570   9.174  18.166  0.00  0.00    +0.000 A 
ATOM     17  C   UNL     1       0.640  10.131  18.619  0.00  0.00    +0.000 A 
BRANCH  12  18
ATOM     18  O   UNL     1      -0.781  10.940  20.479  0.00  0.00    +0.000 OA
BRANCH  18  20
ATOM     19  C   UNL     1      -0.108  13.119  21.200  0.00  0.00    +0.000 C 
ATOM     20  C   UNL     1      -0.459  11.698  21.647  0.00  0.00    +0.000 C 
ATOM     21  C   UNL     1      -1.665  11.747  22.581  0.00  0.00    +0.000 C 
ENDBRANCH  18  20
ENDBRANCH  12  18
ENDBRANCH   1  15
BRANCH   6  22
ATOM     22  O   UNL     1       4.523   2.385  17.516  0.00  0.00    +0.000 OA
ATOM     23  H   UNL     1       3.973   2.478  18.331  0.00  0.00    +0.000 HD
ENDBRANCH   6  22
BRANCH   8  24
ATOM     24  O   UNL     1       6.484   4.814  14.129  0.00  0.00    +0.000 OA
BRANCH  24  25
ATOM     25  C   UNL     1       6.353   3.761  13.176  0.00  0.00    +0.000 C 
ATOM     26  C   UNL     1       4.934   3.839  12.634  0.00  0.00    +0.000 C 
ATOM     27  C   UNL     1       7.329   4.066  12.027  0.00  0.00    +0.000 C 
ENDBRANCH  24  25
ENDBRANCH   8  24
TORSDOF 6
ENDMDL
MODEL 5
REMARK VINA RESULT:      -7.5      0.650      1.216
REMARK  Name = 
REMARK  10 active torsions:
REMARK  status: ('A' for Active; 'I' for Inactive)
REMARK    1  A    between atoms: C_1  and  C_2
REMARK    2  A    between atoms: C_2  and  C_3
REMARK    3  A    between atoms: C_2  and  O_4
REMARK    4  A    between atoms: O_4  and  C_5
REMARK    5  A    between atoms: C_8  and  C_9
REMARK    6  A    between atoms: C_14  and  O_15
REMARK    7  A    between atoms: C_17  and  O_18
REMARK    8  A    between atoms: O_18  and  C_19
REMARK    9  A    between atoms: C_19  and  C_20
REMARK   10  A    between atoms: C_19  and  C_21
REMARK                            x       y       z     vdW  Elec       q    Type
REMARK                         _______ _______ _______ _____ _____    ______ ____
ROOT
ATOM      1  C   UNL     1       1.962   7.100  20.120  0.00  0.00    +0.000 A 
ATOM      2  C   UNL     1       1.567   6.046  20.845  0.00  0.00    +0.000 A 
ATOM      3  C   UNL     1       2.288   4.792  20.716  0.00  0.00    +0.000 A 
ATOM      4  O   UNL     1       2.206   3.928  21.566  0.00  0.00    +0.000 OA
ATOM      5  C   UNL     1       3.039   4.614  19.487  0.00  0.00    +0.000 A 
ATOM      6  C   UNL     1       3.399   3.325  19.118  0.00  0.00    +0.000 A 
ATOM      7  C   UNL     1       3.990   3.108  17.893  0.00  0.00    +0.000 A 
ATOM      8  C   UNL     1       4.267   4.180  17.041  0.00  0.00    +0.000 A 
ATOM      9  C   UNL     1       3.937   5.501  17.423  0.00  0.00    +0.000 A 
ATOM     10  C   UNL     1       3.289   5.724  18.661  0.00  0.00    +0.000 A 
ATOM     11  O   UNL     1       2.903   7.009  19.064  0.00  0.00    +0.000 OA
ENDROOT
BRANCH   1  15
ATOM     12  C   UNL     1       0.381  11.046  20.968  0.00  0.00    +0.000 A 
ATOM     13  C   UNL     1       0.785  10.706  19.687  0.00  0.00    +0.000 A 
ATOM     14  C   UNL     1       1.192   9.401  19.407  0.00  0.00    +0.000 A 
ATOM     15  C   UNL     1       1.284   8.404  20.410  0.00  0.00    +0.000 A 
ATOM     16  C   UNL     1       0.780   8.735  21.667  0.00  0.00    +0.000 A 
ATOM     17  C   UNL     1       0.343  10.046  21.943  0.00  0.00    +0.000 A 
BRANCH  12  18
ATOM     18  O   UNL     1       0.068  12.367  21.126  0.00  0.00    +0.000 OA
BRANCH  18  20
ATOM     19  C   UNL     1      -1.113  13.360  22.953  0.00  0.00    +0.000 C 
ATOM     20  C   UNL     1      -1.245  12.715  21.572  0.00  0.00    +0.000 C 
ATOM     21  C   UNL     1      -1.873  13.716  20.606  0.00  0.00    +0.000 C 
ENDBRANCH  18  20
ENDBRANCH  12  18
ENDBRANCH   1  15
BRANCH   6  22
ATOM     22  O   UNL     1       3.184   2.228  19.908  0.00  0.00    +0.000 OA
ATOM     23  H   UNL     1       2.437   2.432  20.520  0.00  0.00    +0.000 HD
ENDBRANCH   6  22
BRANCH   8  24
ATOM     24  O   UNL     1       5.009   3.773  15.971  0.00  0.00    +0.000 OA
BRANCH  24  25
ATOM     25  C   UNL     1       5.767   4.689  15.182  0.00  0.00    +0.000 C 
ATOM     26  C   UNL     1       7.144   4.777  15.823  0.00  0.00    +0.000 C 
ATOM     27  C   UNL     1       5.920   4.064  13.785  0.00  0.00    +0.000 C 
ENDBRANCH  24  25
ENDBRANCH   8  24
TORSDOF 6
ENDMDL
MODEL 6
REMARK VINA RESULT:      -7.5      0.912      1.365
REMARK  Name = 
REMARK  10 active torsions:
REMARK  status: ('A' for Active; 'I' for Inactive)
REMARK    1  A    between atoms: C_1  and  C_2
REMARK    2  A    between atoms: C_2  and  C_3
REMARK    3  A    between atoms: C_2  and  O_4
REMARK    4  A    between atoms: O_4  and  C_5
REMARK    5  A    between atoms: C_8  and  C_9
REMARK    6  A    between atoms: C_14  and  O_15
REMARK    7  A    between atoms: C_17  and  O_18
REMARK    8  A    between atoms: O_18  and  C_19
REMARK    9  A    between atoms: C_19  and  C_20
REMARK   10  A    between atoms: C_19  and  C_21
REMARK                            x       y       z     vdW  Elec       q    Type
REMARK                         _______ _______ _______ _____ _____    ______ ____
ROOT
ATOM      1  C   UNL     1       1.690   7.407  20.529  0.00  0.00    +0.000 A 
ATOM      2  C   UNL     1       1.289   6.215  20.986  0.00  0.00    +0.000 A 
ATOM      3  C   UNL     1       2.043   5.029  20.619  0.00  0.00    +0.000 A 
ATOM      4  O   UNL     1       1.944   3.998  21.254  0.00  0.00    +0.000 OA
ATOM      5  C   UNL     1       2.849   5.135  19.417  0.00  0.00    +0.000 A 
ATOM      6  C   UNL     1       3.253   3.963  18.792  0.00  0.00    +0.000 A 
ATOM      7  C   UNL     1       3.900   4.029  17.578  0.00  0.00    +0.000 A 
ATOM      8  C   UNL     1       4.190   5.266  16.995  0.00  0.00    +0.000 A 
ATOM      9  C   UNL     1       3.813   6.466  17.642  0.00  0.00    +0.000 A 
ATOM     10  C   UNL     1       3.109   6.402  18.867  0.00  0.00    +0.000 A 
ATOM     11  O   UNL     1       2.677   7.563  19.524  0.00  0.00    +0.000 OA
ENDROOT
BRANCH   1  15
ATOM     12  C   UNL     1      -0.707  10.626  22.167  0.00  0.00    +0.000 A 
ATOM     13  C   UNL     1      -0.044   9.743  23.002  0.00  0.00    +0.000 A 
ATOM     14  C   UNL     1       0.807   8.777  22.463  0.00  0.00    +0.000 A 
ATOM     15  C   UNL     1       0.972   8.607  21.065  0.00  0.00    +0.000 A 
ATOM     16  C   UNL     1       0.378   9.566  20.246  0.00  0.00    +0.000 A 
ATOM     17  C   UNL     1      -0.461  10.558  20.793  0.00  0.00    +0.000 A 
BRANCH  12  18
ATOM     18  O   UNL     1      -1.558  11.479  22.813  0.00  0.00    +0.000 OA
BRANCH  18  20
ATOM     19  C   UNL     1      -3.304  13.078  22.473  0.00  0.00    +0.000 C 
ATOM     20  C   UNL     1      -1.828  12.756  22.229  0.00  0.00    +0.000 C 
ATOM     21  C   UNL     1      -0.962  13.823  22.892  0.00  0.00    +0.000 C 
ENDBRANCH  18  20
ENDBRANCH  12  18
ENDBRANCH   1  15
BRANCH   6  22
ATOM     22  O   UNL     1       3.029   2.717  19.311  0.00  0.00    +0.000 OA
ATOM     23  H   UNL     1       2.536   2.822  20.160  0.00  0.00    +0.000 HD
ENDBRANCH   6  22
BRANCH   8  24
ATOM     24  O   UNL     1       4.985   5.113  15.897  0.00  0.00    +0.000 OA
BRANCH  24  25
ATOM     25  C   UNL     1       5.965   4.079  15.810  0.00  0.00    +0.000 C 
ATOM     26  C   UNL     1       6.270   3.897  14.331  0.00  0.00    +0.000 C 
ATOM     27  C   UNL     1       7.233   4.597  16.508  0.00  0.00    +0.000 C 
ENDBRANCH  24  25
ENDBRANCH   8  24
TORSDOF 6
ENDMDL
MODEL 7
REMARK VINA RESULT:      -7.5      0.947      1.649
REMARK  Name = 
REMARK  10 active torsions:
REMARK  status: ('A' for Active; 'I' for Inactive)
REMARK    1  A    between atoms: C_1  and  C_2
REMARK    2  A    between atoms: C_2  and  C_3
REMARK    3  A    between atoms: C_2  and  O_4
REMARK    4  A    between atoms: O_4  and  C_5
REMARK    5  A    between atoms: C_8  and  C_9
REMARK    6  A    between atoms: C_14  and  O_15
REMARK    7  A    between atoms: C_17  and  O_18
REMARK    8  A    between atoms: O_18  and  C_19
REMARK    9  A    between atoms: C_19  and  C_20
REMARK   10  A    between atoms: C_19  and  C_21
REMARK                            x       y       z     vdW  Elec       q    Type
REMARK                         _______ _______ _______ _____ _____    ______ ____
ROOT
ATOM      1  C   UNL     1       1.581   7.401  20.533  0.00  0.00    +0.000 A 
ATOM      2  C   UNL     1       1.278   6.200  21.040  0.00  0.00    +0.000 A 
ATOM      3  C   UNL     1       2.124   5.064  20.718  0.00  0.00    +0.000 A 
ATOM      4  O   UNL     1       2.109   4.056  21.395  0.00  0.00    +0.000 OA
ATOM      5  C   UNL     1       2.915   5.186  19.508  0.00  0.00    +0.000 A 
ATOM      6  C   UNL     1       3.411   4.025  18.929  0.00  0.00    +0.000 A 
ATOM      7  C   UNL     1       4.048   4.093  17.709  0.00  0.00    +0.000 A 
ATOM      8  C   UNL     1       4.236   5.324  17.075  0.00  0.00    +0.000 A 
ATOM      9  C   UNL     1       3.766   6.515  17.675  0.00  0.00    +0.000 A 
ATOM     10  C   UNL     1       3.072   6.446  18.906  0.00  0.00    +0.000 A 
ATOM     11  O   UNL     1       2.550   7.594  19.517  0.00  0.00    +0.000 OA
ENDROOT
BRANCH   1  15
ATOM     12  C   UNL     1      -0.405  10.941  22.055  0.00  0.00    +0.000 A 
ATOM     13  C   UNL     1       0.174  10.941  20.797  0.00  0.00    +0.000 A 
ATOM     14  C   UNL     1       0.717   9.764  20.279  0.00  0.00    +0.000 A 
ATOM     15  C   UNL     1       0.770   8.560  21.025  0.00  0.00    +0.000 A 
ATOM     16  C   UNL     1       0.095   8.553  22.245  0.00  0.00    +0.000 A 
ATOM     17  C   UNL     1      -0.477   9.734  22.757  0.00  0.00    +0.000 A 
BRANCH  12  18
ATOM     18  O   UNL     1      -0.841  12.167  22.473  0.00  0.00    +0.000 OA
BRANCH  18  20
ATOM     19  C   UNL     1      -3.020  12.442  23.422  0.00  0.00    +0.000 C 
ATOM     20  C   UNL     1      -2.175  12.570  22.153  0.00  0.00    +0.000 C 
ATOM     21  C   UNL     1      -2.180  14.023  21.688  0.00  0.00    +0.000 C 
ENDBRANCH  18  20
ENDBRANCH  12  18
ENDBRANCH   1  15
BRANCH   6  22
ATOM     22  O   UNL     1       3.289   2.787  19.500  0.00  0.00    +0.000 OA
ATOM     23  H   UNL     1       4.084   2.630  20.063  0.00  0.00    +0.000 HD
ENDBRANCH   6  22
BRANCH   8  24
ATOM     24  O   UNL     1       5.039   5.190  15.980  0.00  0.00    +0.000 OA
BRANCH  24  25
ATOM     25  C   UNL     1       5.976   4.123  15.854  0.00  0.00    +0.000 C 
ATOM     26  C   UNL     1       6.218   3.932  14.364  0.00  0.00    +0.000 C 
ATOM     27  C   UNL     1       7.289   4.594  16.503  0.00  0.00    +0.000 C 
ENDBRANCH  24  25
ENDBRANCH   8  24
TORSDOF 6
ENDMDL
MODEL 8
REMARK VINA RESULT:      -7.4      2.060      2.747
REMARK  Name = 
REMARK  10 active torsions:
REMARK  status: ('A' for Active; 'I' for Inactive)
REMARK    1  A    between atoms: C_1  and  C_2
REMARK    2  A    between atoms: C_2  and  C_3
REMARK    3  A    between atoms: C_2  and  O_4
REMARK    4  A    between atoms: O_4  and  C_5
REMARK    5  A    between atoms: C_8  and  C_9
REMARK    6  A    between atoms: C_14  and  O_15
REMARK    7  A    between atoms: C_17  and  O_18
REMARK    8  A    between atoms: O_18  and  C_19
REMARK    9  A    between atoms: C_19  and  C_20
REMARK   10  A    between atoms: C_19  and  C_21
REMARK                            x       y       z     vdW  Elec       q    Type
REMARK                         _______ _______ _______ _____ _____    ______ ____
ROOT
ATOM      1  C   UNL     1       2.850   7.030  18.416  0.00  0.00    +0.000 A 
ATOM      2  C   UNL     1       2.342   5.861  18.825  0.00  0.00    +0.000 A 
ATOM      3  C   UNL     1       3.125   4.651  18.646  0.00  0.00    +0.000 A 
ATOM      4  O   UNL     1       2.884   3.645  19.283  0.00  0.00    +0.000 OA
ATOM      5  C   UNL     1       4.147   4.702  17.617  0.00  0.00    +0.000 A 
ATOM      6  C   UNL     1       4.636   3.502  17.118  0.00  0.00    +0.000 A 
ATOM      7  C   UNL     1       5.503   3.514  16.048  0.00  0.00    +0.000 A 
ATOM      8  C   UNL     1       5.927   4.725  15.493  0.00  0.00    +0.000 A 
ATOM      9  C   UNL     1       5.462   5.953  16.018  0.00  0.00    +0.000 A 
ATOM     10  C   UNL     1       4.536   5.944  17.088  0.00  0.00    +0.000 A 
ATOM     11  O   UNL     1       4.014   7.134  17.613  0.00  0.00    +0.000 OA
ENDROOT
BRANCH   1  15
ATOM     12  C   UNL     1       0.960  10.774  19.513  0.00  0.00    +0.000 A 
ATOM     13  C   UNL     1       1.539  10.613  18.265  0.00  0.00    +0.000 A 
ATOM     14  C   UNL     1       2.050   9.370  17.887  0.00  0.00    +0.000 A 
ATOM     15  C   UNL     1       2.071   8.260  18.768  0.00  0.00    +0.000 A 
ATOM     16  C   UNL     1       1.397   8.411  19.978  0.00  0.00    +0.000 A 
ATOM     17  C   UNL     1       0.856   9.659  20.349  0.00  0.00    +0.000 A 
BRANCH  12  18
ATOM     18  O   UNL     1       0.557  12.051  19.785  0.00  0.00    +0.000 OA
BRANCH  18  20
ATOM     19  C   UNL     1      -0.530  13.663  18.392  0.00  0.00    +0.000 C 
ATOM     20  C   UNL     1       0.815  13.075  18.821  0.00  0.00    +0.000 C 
ATOM     21  C   UNL     1       1.669  14.173  19.449  0.00  0.00    +0.000 C 
ENDBRANCH  18  20
ENDBRANCH  12  18
ENDBRANCH   1  15
BRANCH   6  22
ATOM     22  O   UNL     1       4.289   2.279  17.624  0.00  0.00    +0.000 OA
ATOM     23  H   UNL     1       4.838   1.594  17.173  0.00  0.00    +0.000 HD
ENDBRANCH   6  22
BRANCH   8  24
ATOM     24  O   UNL     1       6.913   4.520  14.573  0.00  0.00    +0.000 OA
BRANCH  24  25
ATOM     25  C   UNL     1       6.752   4.872  13.200  0.00  0.00    +0.000 C 
ATOM     26  C   UNL     1       8.091   5.425  12.734  0.00  0.00    +0.000 C 
ATOM     27  C   UNL     1       6.469   3.571  12.429  0.00  0.00    +0.000 C 
ENDBRANCH  24  25
ENDBRANCH   8  24
TORSDOF 6
ENDMDL
MODEL 9
REMARK VINA RESULT:      -7.4      2.130      9.019
REMARK  Name = 
REMARK  10 active torsions:
REMARK  status: ('A' for Active; 'I' for Inactive)
REMARK    1  A    between atoms: C_1  and  C_2
REMARK    2  A    between atoms: C_2  and  C_3
REMARK    3  A    between atoms: C_2  and  O_4
REMARK    4  A    between atoms: O_4  and  C_5
REMARK    5  A    between atoms: C_8  and  C_9
REMARK    6  A    between atoms: C_14  and  O_15
REMARK    7  A    between atoms: C_17  and  O_18
REMARK    8  A    between atoms: O_18  and  C_19
REMARK    9  A    between atoms: C_19  and  C_20
REMARK   10  A    between atoms: C_19  and  C_21
REMARK                            x       y       z     vdW  Elec       q    Type
REMARK                         _______ _______ _______ _____ _____    ______ ____
ROOT
ATOM      1  C   UNL     1       3.306   6.620  17.954  0.00  0.00    +0.000 A 
ATOM      2  C   UNL     1       3.086   6.192  19.203  0.00  0.00    +0.000 A 
ATOM      3  C   UNL     1       2.059   6.841  20.000  0.00  0.00    +0.000 A 
ATOM      4  O   UNL     1       1.587   6.300  20.979  0.00  0.00    +0.000 OA
ATOM      5  C   UNL     1       1.699   8.187  19.597  0.00  0.00    +0.000 A 
ATOM      6  C   UNL     1       1.054   8.998  20.522  0.00  0.00    +0.000 A 
ATOM      7  C   UNL     1       0.822  10.322  20.219  0.00  0.00    +0.000 A 
ATOM      8  C   UNL     1       1.191  10.840  18.974  0.00  0.00    +0.000 A 
ATOM      9  C   UNL     1       1.815  10.012  18.013  0.00  0.00    +0.000 A 
ATOM     10  C   UNL     1       2.096   8.663  18.336  0.00  0.00    +0.000 A 
ATOM     11  O   UNL     1       2.752   7.816  17.432  0.00  0.00    +0.000 OA
ENDROOT
BRANCH   1  15
ATOM     12  C   UNL     1       5.795   4.316  15.255  0.00  0.00    +0.000 A 
ATOM     13  C   UNL     1       5.733   5.696  15.155  0.00  0.00    +0.000 A 
ATOM     14  C   UNL     1       5.011   6.432  16.096  0.00  0.00    +0.000 A 
ATOM     15  C   UNL     1       4.262   5.815  17.128  0.00  0.00    +0.000 A 
ATOM     16  C   UNL     1       4.417   4.437  17.273  0.00  0.00    +0.000 A 
ATOM     17  C   UNL     1       5.168   3.696  16.339  0.00  0.00    +0.000 A 
BRANCH  12  18
ATOM     18  O   UNL     1       6.479   3.709  14.238  0.00  0.00    +0.000 OA
BRANCH  18  20
ATOM     19  C   UNL     1       7.511   4.650  12.296  0.00  0.00    +0.000 C 
ATOM     20  C   UNL     1       6.210   4.110  12.892  0.00  0.00    +0.000 C 
ATOM     21  C   UNL     1       5.743   2.907  12.077  0.00  0.00    +0.000 C 
ENDBRANCH  18  20
ENDBRANCH  12  18
ENDBRANCH   1  15
BRANCH   6  22
ATOM     22  O   UNL     1       0.640   8.559  21.749  0.00  0.00    +0.000 OA
ATOM     23  H   UNL     1      -0.244   8.133  21.641  0.00  0.00    +0.000 HD
ENDBRANCH   6  22
BRANCH   8  24
ATOM     24  O   UNL     1       0.713  12.107  18.813  0.00  0.00    +0.000 OA
BRANCH  24  25
ATOM     25  C   UNL     1      -0.623  12.464  19.164  0.00  0.00    +0.000 C 
ATOM     26  C   UNL     1      -0.642  13.977  19.315  0.00  0.00    +0.000 C 
ATOM     27  C   UNL     1      -1.521  12.082  17.975  0.00  0.00    +0.000 C 
ENDBRANCH  24  25
ENDBRANCH   8  24
TORSDOF 6
ENDMDL
