MODEL 1
REMARK VINA RESULT:      -8.0      0.000      0.000
REMARK  Name = 
REMARK  4 active torsions:
REMARK  status: ('A' for Active; 'I' for Inactive)
REMARK    1  A    between atoms: C_2  and  C_3
REMARK    2  A    between atoms: C_7  and  N_8
REMARK    3  A    between atoms: C_18  and  N_19
REMARK    4  A    between atoms: N_22  and  C_23
REMARK                            x       y       z     vdW  Elec       q    Type
REMARK                         _______ _______ _______ _____ _____    ______ ____
ROOT
ATOM      1  C   UNL     1       0.181   9.872  21.761  0.00  0.00    +0.000 A 
ATOM      2  C   UNL     1       0.467   8.564  22.104  0.00  0.00    +0.000 A 
ATOM      3  N   UNL     1       1.134   7.704  21.320  0.00  0.00    +0.000 NA
ATOM      4  C   UNL     1       1.561   8.102  20.105  0.00  0.00    +0.000 A 
ATOM      5  C   UNL     1       2.241   7.162  19.279  0.00  0.00    +0.000 A 
ATOM      6  C   UNL     1       2.629   7.536  17.985  0.00  0.00    +0.000 A 
ATOM      7  C   UNL     1       2.430   8.831  17.533  0.00  0.00    +0.000 A 
ATOM      8  C   UNL     1       1.829   9.766  18.371  0.00  0.00    +0.000 A 
ATOM      9  C   UNL     1       1.329   9.430  19.653  0.00  0.00    +0.000 A 
ATOM     10  C   UNL     1       0.633  10.361  20.516  0.00  0.00    +0.000 A 
ENDROOT
BRANCH   5  11
ATOM     11  N   UNL     1       2.508   5.866  19.761  0.00  0.00    +0.000 N 
ATOM     12  C   UNL     1       1.450   5.032  20.346  0.00  0.00    +0.000 C 
ATOM     13  C   UNL     1       2.113   3.903  21.157  0.00  0.00    +0.000 C 
ATOM     14  O   UNL     1       3.006   3.116  20.347  0.00  0.00    +0.000 OA
ATOM     15  C   UNL     1       4.039   3.953  19.791  0.00  0.00    +0.000 C 
ATOM     16  C   UNL     1       3.441   5.075  18.928  0.00  0.00    +0.000 C 
ENDBRANCH   5  11
BRANCH  10  17
ATOM     17  N   UNL     1       0.481  11.703  20.109  0.00  0.00    +0.000 N 
ATOM     18  C   UNL     1      -0.029  12.051  18.754  0.00  0.00    +0.000 C 
ATOM     19  C   UNL     1      -0.629  13.475  18.744  0.00  0.00    +0.000 C 
ATOM     20  N   UNL     1       0.342  14.441  19.285  0.00  0.00    +0.000 N 
ATOM     21  C   UNL     1       0.888  14.099  20.610  0.00  0.00    +0.000 C 
ATOM     22  C   UNL     1       1.515  12.678  20.555  0.00  0.00    +0.000 C 
BRANCH  20  23
ATOM     23  C   UNL     1       0.619  15.645  18.667  0.00  0.00    +0.000 A 
ATOM     24  C   UNL     1      -0.422  16.528  18.335  0.00  0.00    +0.000 A 
ATOM     25  C   UNL     1      -0.187  17.734  17.665  0.00  0.00    +0.000 A 
ATOM     26  C   UNL     1       1.108  18.097  17.316  0.00  0.00    +0.000 A 
ATOM     27  C   UNL     1       2.164  17.250  17.634  0.00  0.00    +0.000 A 
ATOM     28  C   UNL     1       1.916  16.045  18.293  0.00  0.00    +0.000 A 
ATOM     29  F   UNL     1       2.977  15.277  18.598  0.00  0.00    +0.000 F 
ENDBRANCH  20  23
ENDBRANCH  10  17
BRANCH   1  31
ATOM     30  N   UNL     1      -1.258  11.202  23.457  0.00  0.00    +0.000 NA
ATOM     31  C   UNL     1      -0.593  10.609  22.713  0.00  0.00    +0.000 C 
ENDBRANCH   1  31
TORSDOF 4
ENDMDL
MODEL 2
REMARK VINA RESULT:      -8.0      1.228      1.801
REMARK  Name = 
REMARK  4 active torsions:
REMARK  status: ('A' for Active; 'I' for Inactive)
REMARK    1  A    between atoms: C_2  and  C_3
REMARK    2  A    between atoms: C_7  and  N_8
REMARK    3  A    between atoms: C_18  and  N_19
REMARK    4  A    between atoms: N_22  and  C_23
REMARK                            x       y       z     vdW  Elec       q    Type
REMARK                         _______ _______ _______ _____ _____    ______ ____
ROOT
ATOM      1  C   UNL     1       0.202   9.890  21.685  0.00  0.00    +0.000 A 
ATOM      2  C   UNL     1       0.499   8.595  22.065  0.00  0.00    +0.000 A 
ATOM      3  N   UNL     1       1.168   7.717  21.303  0.00  0.00    +0.000 NA
ATOM      4  C   UNL     1       1.586   8.083  20.074  0.00  0.00    +0.000 A 
ATOM      5  C   UNL     1       2.268   7.125  19.271  0.00  0.00    +0.000 A 
ATOM      6  C   UNL     1       2.646   7.464  17.965  0.00  0.00    +0.000 A 
ATOM      7  C   UNL     1       2.435   8.744  17.477  0.00  0.00    +0.000 A 
ATOM      8  C   UNL     1       1.832   9.698  18.291  0.00  0.00    +0.000 A 
ATOM      9  C   UNL     1       1.342   9.396  19.585  0.00  0.00    +0.000 A 
ATOM     10  C   UNL     1       0.643  10.346  20.425  0.00  0.00    +0.000 A 
ENDROOT
BRANCH   5  11
ATOM     11  N   UNL     1       2.547   5.844  19.789  0.00  0.00    +0.000 N 
ATOM     12  C   UNL     1       1.503   5.031  20.426  0.00  0.00    +0.000 C 
ATOM     13  C   UNL     1       2.186   3.928  21.258  0.00  0.00    +0.000 C 
ATOM     14  O   UNL     1       3.060   3.116  20.453  0.00  0.00    +0.000 OA
ATOM     15  C   UNL     1       4.078   3.933  19.845  0.00  0.00    +0.000 C 
ATOM     16  C   UNL     1       3.460   5.026  18.960  0.00  0.00    +0.000 C 
ENDBRANCH   5  11
BRANCH  10  17
ATOM     17  N   UNL     1       0.480  11.675  19.980  0.00  0.00    +0.000 N 
ATOM     18  C   UNL     1       1.145  12.813  20.672  0.00  0.00    +0.000 C 
ATOM     19  C   UNL     1       1.290  14.023  19.721  0.00  0.00    +0.000 C 
ATOM     20  N   UNL     1      -0.014  14.363  19.126  0.00  0.00    +0.000 N 
ATOM     21  C   UNL     1      -0.708  13.242  18.466  0.00  0.00    +0.000 C 
ATOM     22  C   UNL     1      -0.864  12.071  19.476  0.00  0.00    +0.000 C 
BRANCH  20  23
ATOM     23  C   UNL     1      -0.492  15.658  19.066  0.00  0.00    +0.000 A 
ATOM     24  C   UNL     1      -0.083  16.516  18.031  0.00  0.00    +0.000 A 
ATOM     25  C   UNL     1      -0.506  17.849  17.963  0.00  0.00    +0.000 A 
ATOM     26  C   UNL     1      -1.364  18.359  18.930  0.00  0.00    +0.000 A 
ATOM     27  C   UNL     1      -1.793  17.535  19.965  0.00  0.00    +0.000 A 
ATOM     28  C   UNL     1      -1.356  16.211  20.028  0.00  0.00    +0.000 A 
ATOM     29  F   UNL     1      -1.823  15.454  21.037  0.00  0.00    +0.000 F 
ENDBRANCH  20  23
ENDBRANCH  10  17
BRANCH   1  31
ATOM     30  N   UNL     1      -1.163  11.289  23.388  0.00  0.00    +0.000 NA
ATOM     31  C   UNL     1      -0.573  10.649  22.620  0.00  0.00    +0.000 C 
ENDBRANCH   1  31
TORSDOF 4
ENDMDL
MODEL 3
REMARK VINA RESULT:      -7.9      0.729      1.246
REMARK  Name = 
REMARK  4 active torsions:
REMARK  status: ('A' for Active; 'I' for Inactive)
REMARK    1  A    between atoms: C_2  and  C_3
REMARK    2  A    between atoms: C_7  and  N_8
REMARK    3  A    between atoms: C_18  and  N_19
REMARK    4  A    between atoms: N_22  and  C_23
REMARK                            x       y       z     vdW  Elec       q    Type
REMARK                         _______ _______ _______ _____ _____    ______ ____
ROOT
ATOM      1  C   UNL     1       0.308   9.842  21.616  0.00  0.00    +0.000 A 
ATOM      2  C   UNL     1       0.509   8.534  22.016  0.00  0.00    +0.000 A 
ATOM      3  N   UNL     1       1.147   7.608  21.285  0.00  0.00    +0.000 NA
ATOM      4  C   UNL     1       1.629   7.935  20.068  0.00  0.00    +0.000 A 
ATOM      5  C   UNL     1       2.276   6.926  19.298  0.00  0.00    +0.000 A 
ATOM      6  C   UNL     1       2.719   7.227  18.002  0.00  0.00    +0.000 A 
ATOM      7  C   UNL     1       2.607   8.513  17.497  0.00  0.00    +0.000 A 
ATOM      8  C   UNL     1       2.038   9.512  18.281  0.00  0.00    +0.000 A 
ATOM      9  C   UNL     1       1.485   9.254  19.560  0.00  0.00    +0.000 A 
ATOM     10  C   UNL     1       0.821  10.256  20.368  0.00  0.00    +0.000 A 
ENDROOT
BRANCH   5  11
ATOM     11  N   UNL     1       2.454   5.636  19.835  0.00  0.00    +0.000 N 
ATOM     12  C   UNL     1       1.328   4.873  20.387  0.00  0.00    +0.000 C 
ATOM     13  C   UNL     1       1.893   3.743  21.270  0.00  0.00    +0.000 C 
ATOM     14  O   UNL     1       2.790   2.889  20.536  0.00  0.00    +0.000 OA
ATOM     15  C   UNL     1       3.889   3.659  20.012  0.00  0.00    +0.000 C 
ATOM     16  C   UNL     1       3.393   4.776  19.081  0.00  0.00    +0.000 C 
ENDBRANCH   5  11
BRANCH  10  17
ATOM     17  N   UNL     1       0.757  11.588  19.907  0.00  0.00    +0.000 N 
ATOM     18  C   UNL     1       1.540  12.674  20.558  0.00  0.00    +0.000 C 
ATOM     19  C   UNL     1       1.757  13.853  19.584  0.00  0.00    +0.000 C 
ATOM     20  N   UNL     1       0.468  14.296  19.025  0.00  0.00    +0.000 N 
ATOM     21  C   UNL     1      -0.341  13.231  18.406  0.00  0.00    +0.000 C 
ATOM     22  C   UNL     1      -0.564  12.091  19.439  0.00  0.00    +0.000 C 
BRANCH  20  23
ATOM     23  C   UNL     1       0.102  15.627  18.959  0.00  0.00    +0.000 A 
ATOM     24  C   UNL     1      -1.121  16.052  19.505  0.00  0.00    +0.000 A 
ATOM     25  C   UNL     1      -1.550  17.382  19.416  0.00  0.00    +0.000 A 
ATOM     26  C   UNL     1      -0.756  18.330  18.782  0.00  0.00    +0.000 A 
ATOM     27  C   UNL     1       0.464  17.945  18.236  0.00  0.00    +0.000 A 
ATOM     28  C   UNL     1       0.876  16.614  18.322  0.00  0.00    +0.000 A 
ATOM     29  F   UNL     1       2.075  16.304  17.798  0.00  0.00    +0.000 F 
ENDBRANCH  20  23
ENDBRANCH  10  17
BRANCH   1  31
ATOM     30  N   UNL     1      -1.026  11.349  23.249  0.00  0.00    +0.000 NA
ATOM     31  C   UNL     1      -0.448  10.658  22.517  0.00  0.00    +0.000 C 
ENDBRANCH   1  31
TORSDOF 4
ENDMDL
MODEL 4
REMARK VINA RESULT:      -7.9      4.547      8.905
REMARK  Name = 
REMARK  4 active torsions:
REMARK  status: ('A' for Active; 'I' for Inactive)
REMARK    1  A    between atoms: C_2  and  C_3
REMARK    2  A    between atoms: C_7  and  N_8
REMARK    3  A    between atoms: C_18  and  N_19
REMARK    4  A    between atoms: N_22  and  C_23
REMARK                            x       y       z     vdW  Elec       q    Type
REMARK                         _______ _______ _______ _____ _____    ______ ____
ROOT
ATOM      1  C   UNL     1      -0.405  12.223  20.188  0.00  0.00    +0.000 A 
ATOM      2  C   UNL     1      -1.463  13.089  20.391  0.00  0.00    +0.000 A 
ATOM      3  N   UNL     1      -2.693  12.915  19.884  0.00  0.00    +0.000 NA
ATOM      4  C   UNL     1      -2.949  11.840  19.111  0.00  0.00    +0.000 A 
ATOM      5  C   UNL     1      -4.253  11.693  18.559  0.00  0.00    +0.000 A 
ATOM      6  C   UNL     1      -4.519  10.622  17.694  0.00  0.00    +0.000 A 
ATOM      7  C   UNL     1      -3.550   9.665  17.437  0.00  0.00    +0.000 A 
ATOM      8  C   UNL     1      -2.299   9.775  18.035  0.00  0.00    +0.000 A 
ATOM      9  C   UNL     1      -1.935  10.880  18.842  0.00  0.00    +0.000 A 
ATOM     10  C   UNL     1      -0.618  11.060  19.417  0.00  0.00    +0.000 A 
ENDROOT
BRANCH   5  11
ATOM     11  N   UNL     1      -5.260  12.626  18.874  0.00  0.00    +0.000 N 
ATOM     12  C   UNL     1      -6.164  13.156  17.846  0.00  0.00    +0.000 C 
ATOM     13  C   UNL     1      -6.825  14.437  18.392  0.00  0.00    +0.000 C 
ATOM     14  O   UNL     1      -7.526  14.192  19.625  0.00  0.00    +0.000 OA
ATOM     15  C   UNL     1      -6.618  13.681  20.620  0.00  0.00    +0.000 C 
ATOM     16  C   UNL     1      -5.961  12.373  20.153  0.00  0.00    +0.000 C 
ENDBRANCH   5  11
BRANCH  10  17
ATOM     17  N   UNL     1       0.362  10.064  19.228  0.00  0.00    +0.000 N 
ATOM     18  C   UNL     1       0.758   9.611  17.866  0.00  0.00    +0.000 C 
ATOM     19  C   UNL     1       2.170   8.984  17.887  0.00  0.00    +0.000 C 
ATOM     20  N   UNL     1       2.245   7.930  18.914  0.00  0.00    +0.000 N 
ATOM     21  C   UNL     1       1.823   8.345  20.263  0.00  0.00    +0.000 C 
ATOM     22  C   UNL     1       0.384   8.930  20.193  0.00  0.00    +0.000 C 
BRANCH  20  23
ATOM     23  C   UNL     1       2.796   6.687  18.668  0.00  0.00    +0.000 A 
ATOM     24  C   UNL     1       3.800   6.537  17.696  0.00  0.00    +0.000 A 
ATOM     25  C   UNL     1       4.350   5.288  17.385  0.00  0.00    +0.000 A 
ATOM     26  C   UNL     1       3.913   4.148  18.050  0.00  0.00    +0.000 A 
ATOM     27  C   UNL     1       2.925   4.261  19.022  0.00  0.00    +0.000 A 
ATOM     28  C   UNL     1       2.378   5.511  19.317  0.00  0.00    +0.000 A 
ATOM     29  F   UNL     1       1.443   5.563  20.283  0.00  0.00    +0.000 F 
ENDBRANCH  20  23
ENDBRANCH  10  17
BRANCH   1  31
ATOM     30  N   UNL     1       1.876  12.916  21.206  0.00  0.00    +0.000 NA
ATOM     31  C   UNL     1       0.842  12.619  20.768  0.00  0.00    +0.000 C 
ENDBRANCH   1  31
TORSDOF 4
ENDMDL
MODEL 5
REMARK VINA RESULT:      -7.8      4.380      8.807
REMARK  Name = 
REMARK  4 active torsions:
REMARK  status: ('A' for Active; 'I' for Inactive)
REMARK    1  A    between atoms: C_2  and  C_3
REMARK    2  A    between atoms: C_7  and  N_8
REMARK    3  A    between atoms: C_18  and  N_19
REMARK    4  A    between atoms: N_22  and  C_23
REMARK                            x       y       z     vdW  Elec       q    Type
REMARK                         _______ _______ _______ _____ _____    ______ ____
ROOT
ATOM      1  C   UNL     1      -0.243  12.172  20.246  0.00  0.00    +0.000 A 
ATOM      2  C   UNL     1      -1.273  13.050  20.525  0.00  0.00    +0.000 A 
ATOM      3  N   UNL     1      -2.524  12.923  20.057  0.00  0.00    +0.000 NA
ATOM      4  C   UNL     1      -2.832  11.888  19.249  0.00  0.00    +0.000 A 
ATOM      5  C   UNL     1      -4.158  11.792  18.741  0.00  0.00    +0.000 A 
ATOM      6  C   UNL     1      -4.479  10.764  17.843  0.00  0.00    +0.000 A 
ATOM      7  C   UNL     1      -3.542   9.798  17.510  0.00  0.00    +0.000 A 
ATOM      8  C   UNL     1      -2.268   9.857  18.065  0.00  0.00    +0.000 A 
ATOM      9  C   UNL     1      -1.850  10.920  18.904  0.00  0.00    +0.000 A 
ATOM     10  C   UNL     1      -0.510  11.048  19.436  0.00  0.00    +0.000 A 
ENDROOT
BRANCH   5  11
ATOM     11  N   UNL     1      -5.132  12.731  19.132  0.00  0.00    +0.000 N 
ATOM     12  C   UNL     1      -6.110  13.266  18.176  0.00  0.00    +0.000 C 
ATOM     13  C   UNL     1      -6.718  14.551  18.770  0.00  0.00    +0.000 C 
ATOM     14  O   UNL     1      -7.324  14.312  20.053  0.00  0.00    +0.000 OA
ATOM     15  C   UNL     1      -6.345  13.796  20.975  0.00  0.00    +0.000 C 
ATOM     16  C   UNL     1      -5.734  12.483  20.461  0.00  0.00    +0.000 C 
ENDBRANCH   5  11
BRANCH  10  17
ATOM     17  N   UNL     1       0.441  10.040  19.170  0.00  0.00    +0.000 N 
ATOM     18  C   UNL     1       0.819   9.677  17.777  0.00  0.00    +0.000 C 
ATOM     19  C   UNL     1       2.212   9.009  17.744  0.00  0.00    +0.000 C 
ATOM     20  N   UNL     1       2.260   7.882  18.691  0.00  0.00    +0.000 N 
ATOM     21  C   UNL     1       1.855   8.209  20.069  0.00  0.00    +0.000 C 
ATOM     22  C   UNL     1       0.434   8.839  20.050  0.00  0.00    +0.000 C 
BRANCH  20  23
ATOM     23  C   UNL     1       2.774   6.645  18.353  0.00  0.00    +0.000 A 
ATOM     24  C   UNL     1       2.037   5.477  18.611  0.00  0.00    +0.000 A 
ATOM     25  C   UNL     1       2.543   4.203  18.327  0.00  0.00    +0.000 A 
ATOM     26  C   UNL     1       3.806   4.063  17.764  0.00  0.00    +0.000 A 
ATOM     27  C   UNL     1       4.561   5.199  17.490  0.00  0.00    +0.000 A 
ATOM     28  C   UNL     1       4.050   6.463  17.787  0.00  0.00    +0.000 A 
ATOM     29  F   UNL     1       4.813   7.526  17.477  0.00  0.00    +0.000 F 
ENDBRANCH  20  23
ENDBRANCH  10  17
BRANCH   1  31
ATOM     30  N   UNL     1       2.087  12.765  21.214  0.00  0.00    +0.000 NA
ATOM     31  C   UNL     1       1.033  12.518  20.796  0.00  0.00    +0.000 C 
ENDBRANCH   1  31
TORSDOF 4
ENDMDL
MODEL 6
REMARK VINA RESULT:      -7.8      0.839      1.195
REMARK  Name = 
REMARK  4 active torsions:
REMARK  status: ('A' for Active; 'I' for Inactive)
REMARK    1  A    between atoms: C_2  and  C_3
REMARK    2  A    between atoms: C_7  and  N_8
REMARK    3  A    between atoms: C_18  and  N_19
REMARK    4  A    between atoms: N_22  and  C_23
REMARK                            x       y       z     vdW  Elec       q    Type
REMARK                         _______ _______ _______ _____ _____    ______ ____
ROOT
ATOM      1  C   UNL     1       0.212   9.873  21.750  0.00  0.00    +0.000 A 
ATOM      2  C   UNL     1       0.471   8.560  22.097  0.00  0.00    +0.000 A 
ATOM      3  N   UNL     1       1.132   7.688  21.321  0.00  0.00    +0.000 NA
ATOM      4  C   UNL     1       1.580   8.079  20.111  0.00  0.00    +0.000 A 
ATOM      5  C   UNL     1       2.252   7.126  19.292  0.00  0.00    +0.000 A 
ATOM      6  C   UNL     1       2.661   7.492  18.002  0.00  0.00    +0.000 A 
ATOM      7  C   UNL     1       2.489   8.790  17.548  0.00  0.00    +0.000 A 
ATOM      8  C   UNL     1       1.895   9.736  18.378  0.00  0.00    +0.000 A 
ATOM      9  C   UNL     1       1.375   9.409  19.655  0.00  0.00    +0.000 A 
ATOM     10  C   UNL     1       0.686  10.353  20.510  0.00  0.00    +0.000 A 
ENDROOT
BRANCH   5  11
ATOM     11  N   UNL     1       2.491   5.826  19.778  0.00  0.00    +0.000 N 
ATOM     12  C   UNL     1       1.406   4.998  20.319  0.00  0.00    +0.000 C 
ATOM     13  C   UNL     1       2.030   3.859  21.149  0.00  0.00    +0.000 C 
ATOM     14  O   UNL     1       2.947   3.070  20.370  0.00  0.00    +0.000 OA
ATOM     15  C   UNL     1       4.006   3.902  19.857  0.00  0.00    +0.000 C 
ATOM     16  C   UNL     1       3.449   5.032  18.977  0.00  0.00    +0.000 C 
ENDBRANCH   5  11
BRANCH  10  17
ATOM     17  N   UNL     1       0.562  11.697  20.101  0.00  0.00    +0.000 N 
ATOM     18  C   UNL     1       0.000  12.055  18.769  0.00  0.00    +0.000 C 
ATOM     19  C   UNL     1      -0.550  13.499  18.777  0.00  0.00    +0.000 C 
ATOM     20  N   UNL     1       0.479  14.434  19.264  0.00  0.00    +0.000 N 
ATOM     21  C   UNL     1       1.075  14.081  20.564  0.00  0.00    +0.000 C 
ATOM     22  C   UNL     1       1.649  12.637  20.489  0.00  0.00    +0.000 C 
BRANCH  20  23
ATOM     23  C   UNL     1       0.769  15.624  18.624  0.00  0.00    +0.000 A 
ATOM     24  C   UNL     1       2.056  15.856  18.109  0.00  0.00    +0.000 A 
ATOM     25  C   UNL     1       2.402  17.066  17.497  0.00  0.00    +0.000 A 
ATOM     26  C   UNL     1       1.460  18.081  17.374  0.00  0.00    +0.000 A 
ATOM     27  C   UNL     1       0.175  17.882  17.867  0.00  0.00    +0.000 A 
ATOM     28  C   UNL     1      -0.156  16.675  18.484  0.00  0.00    +0.000 A 
ATOM     29  F   UNL     1      -1.420  16.530  18.920  0.00  0.00    +0.000 F 
ENDBRANCH  20  23
ENDBRANCH  10  17
BRANCH   1  31
ATOM     30  N   UNL     1      -1.216  11.242  23.424  0.00  0.00    +0.000 NA
ATOM     31  C   UNL     1      -0.560  10.624  22.693  0.00  0.00    +0.000 C 
ENDBRANCH   1  31
TORSDOF 4
ENDMDL
MODEL 7
REMARK VINA RESULT:      -7.1      5.201      9.652
REMARK  Name = 
REMARK  4 active torsions:
REMARK  status: ('A' for Active; 'I' for Inactive)
REMARK    1  A    between atoms: C_2  and  C_3
REMARK    2  A    between atoms: C_7  and  N_8
REMARK    3  A    between atoms: C_18  and  N_19
REMARK    4  A    between atoms: N_22  and  C_23
REMARK                            x       y       z     vdW  Elec       q    Type
REMARK                         _______ _______ _______ _____ _____    ______ ____
ROOT
ATOM      1  C   UNL     1      -1.057  14.612  20.564  0.00  0.00    +0.000 A 
ATOM      2  C   UNL     1      -1.681  15.765  21.001  0.00  0.00    +0.000 A 
ATOM      3  N   UNL     1      -2.588  15.808  21.988  0.00  0.00    +0.000 NA
ATOM      4  C   UNL     1      -2.949  14.669  22.612  0.00  0.00    +0.000 A 
ATOM      5  C   UNL     1      -3.936  14.735  23.636  0.00  0.00    +0.000 A 
ATOM      6  C   UNL     1      -4.377  13.553  24.247  0.00  0.00    +0.000 A 
ATOM      7  C   UNL     1      -3.805  12.333  23.921  0.00  0.00    +0.000 A 
ATOM      8  C   UNL     1      -2.790  12.283  22.969  0.00  0.00    +0.000 A 
ATOM      9  C   UNL     1      -2.364  13.425  22.248  0.00  0.00    +0.000 A 
ATOM     10  C   UNL     1      -1.365  13.391  21.201  0.00  0.00    +0.000 A 
ENDROOT
BRANCH   5  11
ATOM     11  N   UNL     1      -4.470  15.982  24.019  0.00  0.00    +0.000 N 
ATOM     12  C   UNL     1      -5.912  16.250  23.957  0.00  0.00    +0.000 C 
ATOM     13  C   UNL     1      -6.125  17.776  24.004  0.00  0.00    +0.000 C 
ATOM     14  O   UNL     1      -5.536  18.362  25.179  0.00  0.00    +0.000 OA
ATOM     15  C   UNL     1      -4.122  18.092  25.213  0.00  0.00    +0.000 C 
ATOM     16  C   UNL     1      -3.843  16.581  25.219  0.00  0.00    +0.000 C 
ENDBRANCH   5  11
BRANCH  10  17
ATOM     17  N   UNL     1      -0.717  12.174  20.901  0.00  0.00    +0.000 N 
ATOM     18  C   UNL     1       0.676  11.904  21.353  0.00  0.00    +0.000 C 
ATOM     19  C   UNL     1       0.946  10.384  21.413  0.00  0.00    +0.000 C 
ATOM     20  N   UNL     1       0.600   9.752  20.129  0.00  0.00    +0.000 N 
ATOM     21  C   UNL     1      -0.763  10.035  19.643  0.00  0.00    +0.000 C 
ATOM     22  C   UNL     1      -0.968  11.574  19.561  0.00  0.00    +0.000 C 
BRANCH  20  23
ATOM     23  C   UNL     1       1.432   8.852  19.491  0.00  0.00    +0.000 A 
ATOM     24  C   UNL     1       1.924   9.131  18.205  0.00  0.00    +0.000 A 
ATOM     25  C   UNL     1       2.730   8.225  17.506  0.00  0.00    +0.000 A 
ATOM     26  C   UNL     1       3.077   7.010  18.086  0.00  0.00    +0.000 A 
ATOM     27  C   UNL     1       2.613   6.704  19.360  0.00  0.00    +0.000 A 
ATOM     28  C   UNL     1       1.801   7.611  20.042  0.00  0.00    +0.000 A 
ATOM     29  F   UNL     1       1.402   7.273  21.281  0.00  0.00    +0.000 F 
ENDBRANCH  20  23
ENDBRANCH  10  17
BRANCH   1  31
ATOM     30  N   UNL     1       0.566  14.853  18.557  0.00  0.00    +0.000 NA
ATOM     31  C   UNL     1      -0.162  14.771  19.457  0.00  0.00    +0.000 C 
ENDBRANCH   1  31
TORSDOF 4
ENDMDL
MODEL 8
REMARK VINA RESULT:      -7.1      1.237      1.775
REMARK  Name = 
REMARK  4 active torsions:
REMARK  status: ('A' for Active; 'I' for Inactive)
REMARK    1  A    between atoms: C_2  and  C_3
REMARK    2  A    between atoms: C_7  and  N_8
REMARK    3  A    between atoms: C_18  and  N_19
REMARK    4  A    between atoms: N_22  and  C_23
REMARK                            x       y       z     vdW  Elec       q    Type
REMARK                         _______ _______ _______ _____ _____    ______ ____
ROOT
ATOM      1  C   UNL     1       0.254   9.578  21.495  0.00  0.00    +0.000 A 
ATOM      2  C   UNL     1       0.291   8.237  21.829  0.00  0.00    +0.000 A 
ATOM      3  N   UNL     1       0.865   7.286  21.078  0.00  0.00    +0.000 NA
ATOM      4  C   UNL     1       1.445   7.620  19.907  0.00  0.00    +0.000 A 
ATOM      5  C   UNL     1       2.021   6.588  19.112  0.00  0.00    +0.000 A 
ATOM      6  C   UNL     1       2.565   6.905  17.860  0.00  0.00    +0.000 A 
ATOM      7  C   UNL     1       2.619   8.219  17.425  0.00  0.00    +0.000 A 
ATOM      8  C   UNL     1       2.119   9.233  18.236  0.00  0.00    +0.000 A 
ATOM      9  C   UNL     1       1.472   8.972  19.470  0.00  0.00    +0.000 A 
ATOM     10  C   UNL     1       0.876   9.998  20.300  0.00  0.00    +0.000 A 
ENDROOT
BRANCH   5  11
ATOM     11  N   UNL     1       2.030   5.260  19.583  0.00  0.00    +0.000 N 
ATOM     12  C   UNL     1       1.475   4.160  18.784  0.00  0.00    +0.000 C 
ATOM     13  C   UNL     1       1.230   2.957  19.717  0.00  0.00    +0.000 C 
ATOM     14  O   UNL     1       2.434   2.553  20.394  0.00  0.00    +0.000 OA
ATOM     15  C   UNL     1       2.955   3.645  21.176  0.00  0.00    +0.000 C 
ATOM     16  C   UNL     1       3.267   4.863  20.293  0.00  0.00    +0.000 C 
ENDBRANCH   5  11
BRANCH  10  17
ATOM     17  N   UNL     1       0.981  11.350  19.914  0.00  0.00    +0.000 N 
ATOM     18  C   UNL     1       1.597  12.368  20.809  0.00  0.00    +0.000 C 
ATOM     19  C   UNL     1       2.104  13.579  19.995  0.00  0.00    +0.000 C 
ATOM     20  N   UNL     1       1.027  14.106  19.140  0.00  0.00    +0.000 N 
ATOM     21  C   UNL     1       0.379  13.109  18.270  0.00  0.00    +0.000 C 
ATOM     22  C   UNL     1      -0.150  11.935  19.142  0.00  0.00    +0.000 C 
BRANCH  20  23
ATOM     23  C   UNL     1       0.735  15.454  19.054  0.00  0.00    +0.000 A 
ATOM     24  C   UNL     1       1.688  16.354  18.548  0.00  0.00    +0.000 A 
ATOM     25  C   UNL     1       1.449  17.732  18.489  0.00  0.00    +0.000 A 
ATOM     26  C   UNL     1       0.236  18.249  18.930  0.00  0.00    +0.000 A 
ATOM     27  C   UNL     1      -0.732  17.385  19.431  0.00  0.00    +0.000 A 
ATOM     28  C   UNL     1      -0.478  16.015  19.493  0.00  0.00    +0.000 A 
ATOM     29  F   UNL     1      -1.460  15.226  19.964  0.00  0.00    +0.000 F 
ENDBRANCH  20  23
ENDBRANCH  10  17
BRANCH   1  31
ATOM     30  N   UNL     1      -1.076  11.094  23.124  0.00  0.00    +0.000 NA
ATOM     31  C   UNL     1      -0.459  10.425  22.404  0.00  0.00    +0.000 C 
ENDBRANCH   1  31
TORSDOF 4
ENDMDL
MODEL 9
REMARK VINA RESULT:      -7.0      4.379      9.186
REMARK  Name = 
REMARK  4 active torsions:
REMARK  status: ('A' for Active; 'I' for Inactive)
REMARK    1  A    between atoms: C_2  and  C_3
REMARK    2  A    between atoms: C_7  and  N_8
REMARK    3  A    between atoms: C_18  and  N_19
REMARK    4  A    between atoms: N_22  and  C_23
REMARK                            x       y       z     vdW  Elec       q    Type
REMARK                         _______ _______ _______ _____ _____    ______ ____
ROOT
ATOM      1  C   UNL     1       2.690   5.396  20.008  0.00  0.00    +0.000 A 
ATOM      2  C   UNL     1       1.837   5.950  20.944  0.00  0.00    +0.000 A 
ATOM      3  N   UNL     1       1.345   7.196  20.877  0.00  0.00    +0.000 NA
ATOM      4  C   UNL     1       1.691   7.995  19.847  0.00  0.00    +0.000 A 
ATOM      5  C   UNL     1       1.179   9.324  19.814  0.00  0.00    +0.000 A 
ATOM      6  C   UNL     1       1.584  10.192  18.790  0.00  0.00    +0.000 A 
ATOM      7  C   UNL     1       2.410   9.747  17.771  0.00  0.00    +0.000 A 
ATOM      8  C   UNL     1       2.851   8.427  17.770  0.00  0.00    +0.000 A 
ATOM      9  C   UNL     1       2.556   7.525  18.822  0.00  0.00    +0.000 A 
ATOM     10  C   UNL     1       3.061   6.169  18.887  0.00  0.00    +0.000 A 
ENDROOT
BRANCH   5  11
ATOM     11  N   UNL     1       0.283   9.758  20.810  0.00  0.00    +0.000 N 
ATOM     12  C   UNL     1       0.558   9.542  22.236  0.00  0.00    +0.000 C 
ATOM     13  C   UNL     1      -0.759   9.712  23.017  0.00  0.00    +0.000 C 
ATOM     14  O   UNL     1      -1.350  11.005  22.792  0.00  0.00    +0.000 OA
ATOM     15  C   UNL     1      -1.618  11.191  21.389  0.00  0.00    +0.000 C 
ATOM     16  C   UNL     1      -0.330  11.081  20.557  0.00  0.00    +0.000 C 
ENDBRANCH   5  11
BRANCH  10  17
ATOM     17  N   UNL     1       3.845   5.670  17.826  0.00  0.00    +0.000 N 
ATOM     18  C   UNL     1       4.657   6.576  16.967  0.00  0.00    +0.000 C 
ATOM     19  C   UNL     1       5.813   5.802  16.295  0.00  0.00    +0.000 C 
ATOM     20  N   UNL     1       5.293   4.617  15.592  0.00  0.00    +0.000 N 
ATOM     21  C   UNL     1       4.456   3.724  16.412  0.00  0.00    +0.000 C 
ATOM     22  C   UNL     1       3.287   4.542  17.030  0.00  0.00    +0.000 C 
BRANCH  20  23
ATOM     23  C   UNL     1       5.668   4.289  14.303  0.00  0.00    +0.000 A 
ATOM     24  C   UNL     1       4.778   3.604  13.458  0.00  0.00    +0.000 A 
ATOM     25  C   UNL     1       5.138   3.212  12.164  0.00  0.00    +0.000 A 
ATOM     26  C   UNL     1       6.404   3.507  11.672  0.00  0.00    +0.000 A 
ATOM     27  C   UNL     1       7.308   4.189  12.479  0.00  0.00    +0.000 A 
ATOM     28  C   UNL     1       6.942   4.566  13.772  0.00  0.00    +0.000 A 
ATOM     29  F   UNL     1       7.848   5.245  14.498  0.00  0.00    +0.000 F 
ENDBRANCH  20  23
ENDBRANCH  10  17
BRANCH   1  31
ATOM     30  N   UNL     1       3.531   2.991  20.480  0.00  0.00    +0.000 NA
ATOM     31  C   UNL     1       3.149   4.071  20.293  0.00  0.00    +0.000 C 
ENDBRANCH   1  31
TORSDOF 4
ENDMDL
