MODEL 1
REMARK VINA RESULT:      -8.0      0.000      0.000
REMARK  Name = 
REMARK  2 active torsions:
REMARK  status: ('A' for Active; 'I' for Inactive)
REMARK    1  A    between atoms: N_13  and  C_14
REMARK    2  A    between atoms: C_14  and  C_15
REMARK                            x       y       z     vdW  Elec       q    Type
REMARK                         _______ _______ _______ _____ _____    ______ ____
ROOT
ATOM      1  O   UNL     1       3.091   8.393  17.386  0.00  0.00    +0.000 OA
ATOM      2  C   UNL     1       3.164   7.357  18.020  0.00  0.00    +0.000 C 
ATOM      3  N   UNL     1       2.076   6.765  18.630  0.00  0.00    +0.000 N 
ATOM      4  C   UNL     1       2.367   5.403  19.049  0.00  0.00    +0.000 C 
ATOM      5  C   UNL     1       1.916   4.444  17.927  0.00  0.00    +0.000 C 
ATOM      6  C   UNL     1       2.406   3.004  18.047  0.00  0.00    +0.000 C 
ATOM      7  C   UNL     1       1.966   2.266  19.309  0.00  0.00    +0.000 C 
ATOM      8  C   UNL     1       2.719   2.677  20.569  0.00  0.00    +0.000 C 
ATOM      9  C   UNL     1       2.274   3.975  21.243  0.00  0.00    +0.000 C 
ATOM     10  C   UNL     1       1.697   5.095  20.384  0.00  0.00    +0.000 C 
ATOM     11  C   UNL     1       3.903   5.510  19.024  0.00  0.00    +0.000 C 
ATOM     12  O   UNL     1       4.681   4.694  19.494  0.00  0.00    +0.000 OA
ATOM     13  N   UNL     1       4.254   6.578  18.248  0.00  0.00    +0.000 N 
ATOM     14  H   UNL     1       1.151   7.148  18.475  0.00  0.00    +0.000 HD
ENDROOT
BRANCH  13  15
ATOM     15  C   UNL     1       5.579   6.774  17.695  0.00  0.00    +0.000 C 
BRANCH  15  16
ATOM     16  C   UNL     1       5.912   5.821  16.581  0.00  0.00    +0.000 A 
ATOM     17  C   UNL     1       5.297   5.983  15.332  0.00  0.00    +0.000 A 
ATOM     18  F   UNL     1       4.510   7.044  15.105  0.00  0.00    +0.000 F 
ATOM     19  C   UNL     1       5.500   5.092  14.283  0.00  0.00    +0.000 A 
ATOM     20  C   UNL     1       6.357   4.013  14.456  0.00  0.00    +0.000 A 
ATOM     21  C   UNL     1       7.022   3.854  15.670  0.00  0.00    +0.000 A 
ATOM     22  C   UNL     1       6.807   4.753  16.721  0.00  0.00    +0.000 A 
ATOM     23 CL   UNL     1       7.732   4.506  18.159  0.00  0.00    +0.000 Cl
ENDBRANCH  15  16
ENDBRANCH  13  15
TORSDOF 2
ENDMDL
MODEL 2
REMARK VINA RESULT:      -7.9      1.608      1.682
REMARK  Name = 
REMARK  2 active torsions:
REMARK  status: ('A' for Active; 'I' for Inactive)
REMARK    1  A    between atoms: N_13  and  C_14
REMARK    2  A    between atoms: C_14  and  C_15
REMARK                            x       y       z     vdW  Elec       q    Type
REMARK                         _______ _______ _______ _____ _____    ______ ____
ROOT
ATOM      1  O   UNL     1       4.295   7.410  17.790  0.00  0.00    +0.000 OA
ATOM      2  C   UNL     1       3.876   6.425  18.370  0.00  0.00    +0.000 C 
ATOM      3  N   UNL     1       2.562   6.284  18.768  0.00  0.00    +0.000 N 
ATOM      4  C   UNL     1       2.259   4.913  19.151  0.00  0.00    +0.000 C 
ATOM      5  C   UNL     1       1.682   4.182  17.922  0.00  0.00    +0.000 C 
ATOM      6  C   UNL     1       1.583   2.664  18.037  0.00  0.00    +0.000 C 
ATOM      7  C   UNL     1       0.701   2.150  19.172  0.00  0.00    +0.000 C 
ATOM      8  C   UNL     1       1.331   2.261  20.556  0.00  0.00    +0.000 C 
ATOM      9  C   UNL     1       1.288   3.637  21.221  0.00  0.00    +0.000 C 
ATOM     10  C   UNL     1       1.312   4.885  20.346  0.00  0.00    +0.000 C 
ATOM     11  C   UNL     1       3.709   4.444  19.374  0.00  0.00    +0.000 C 
ATOM     12  O   UNL     1       4.044   3.400  19.914  0.00  0.00    +0.000 OA
ATOM     13  N   UNL     1       4.551   5.299  18.722  0.00  0.00    +0.000 N 
ATOM     14  H   UNL     1       1.882   6.981  18.491  0.00  0.00    +0.000 HD
ENDROOT
BRANCH  13  15
ATOM     15  C   UNL     1       5.928   4.987  18.396  0.00  0.00    +0.000 C 
BRANCH  15  16
ATOM     16  C   UNL     1       6.190   4.900  16.918  0.00  0.00    +0.000 A 
ATOM     17  C   UNL     1       5.610   3.861  16.178  0.00  0.00    +0.000 A 
ATOM     18  F   UNL     1       4.741   3.025  16.763  0.00  0.00    +0.000 F 
ATOM     19  C   UNL     1       5.874   3.677  14.824  0.00  0.00    +0.000 A 
ATOM     20  C   UNL     1       6.721   4.558  14.164  0.00  0.00    +0.000 A 
ATOM     21  C   UNL     1       7.272   5.629  14.863  0.00  0.00    +0.000 A 
ATOM     22  C   UNL     1       7.005   5.803  16.225  0.00  0.00    +0.000 A 
ATOM     23 CL   UNL     1       7.682   7.203  16.980  0.00  0.00    +0.000 Cl
ENDBRANCH  15  16
ENDBRANCH  13  15
TORSDOF 2
ENDMDL
MODEL 3
REMARK VINA RESULT:      -7.3      1.603      1.692
REMARK  Name = 
REMARK  2 active torsions:
REMARK  status: ('A' for Active; 'I' for Inactive)
REMARK    1  A    between atoms: N_13  and  C_14
REMARK    2  A    between atoms: C_14  and  C_15
REMARK                            x       y       z     vdW  Elec       q    Type
REMARK                         _______ _______ _______ _____ _____    ______ ____
ROOT
ATOM      1  O   UNL     1       4.508   7.359  17.522  0.00  0.00    +0.000 OA
ATOM      2  C   UNL     1       4.066   6.433  18.177  0.00  0.00    +0.000 C 
ATOM      3  N   UNL     1       2.766   6.387  18.639  0.00  0.00    +0.000 N 
ATOM      4  C   UNL     1       2.410   5.059  19.116  0.00  0.00    +0.000 C 
ATOM      5  C   UNL     1       1.737   4.293  17.958  0.00  0.00    +0.000 C 
ATOM      6  C   UNL     1       1.564   2.792  18.167  0.00  0.00    +0.000 C 
ATOM      7  C   UNL     1       0.710   2.392  19.367  0.00  0.00    +0.000 C 
ATOM      8  C   UNL     1       1.409   2.547  20.713  0.00  0.00    +0.000 C 
ATOM      9  C   UNL     1       1.470   3.958  21.298  0.00  0.00    +0.000 C 
ATOM     10  C   UNL     1       1.519   5.151  20.350  0.00  0.00    +0.000 C 
ATOM     11  C   UNL     1       3.842   4.523  19.303  0.00  0.00    +0.000 C 
ATOM     12  O   UNL     1       4.146   3.495  19.888  0.00  0.00    +0.000 OA
ATOM     13  N   UNL     1       4.696   5.293  18.565  0.00  0.00    +0.000 N 
ATOM     14  H   UNL     1       2.112   7.104  18.352  0.00  0.00    +0.000 HD
ENDROOT
BRANCH  13  15
ATOM     15  C   UNL     1       6.038   4.887  18.198  0.00  0.00    +0.000 C 
BRANCH  15  16
ATOM     16  C   UNL     1       6.220   4.681  16.721  0.00  0.00    +0.000 A 
ATOM     17  C   UNL     1       7.044   5.558  16.001  0.00  0.00    +0.000 A 
ATOM     18  F   UNL     1       7.749   6.496  16.648  0.00  0.00    +0.000 F 
ATOM     19  C   UNL     1       7.193   5.472  14.621  0.00  0.00    +0.000 A 
ATOM     20  C   UNL     1       6.528   4.475  13.919  0.00  0.00    +0.000 A 
ATOM     21  C   UNL     1       5.742   3.558  14.613  0.00  0.00    +0.000 A 
ATOM     22  C   UNL     1       5.593   3.656  16.001  0.00  0.00    +0.000 A 
ATOM     23 CL   UNL     1       4.654   2.428  16.773  0.00  0.00    +0.000 Cl
ENDBRANCH  15  16
ENDBRANCH  13  15
TORSDOF 2
ENDMDL
MODEL 4
REMARK VINA RESULT:      -7.3      2.265      5.346
REMARK  Name = 
REMARK  2 active torsions:
REMARK  status: ('A' for Active; 'I' for Inactive)
REMARK    1  A    between atoms: N_13  and  C_14
REMARK    2  A    between atoms: C_14  and  C_15
REMARK                            x       y       z     vdW  Elec       q    Type
REMARK                         _______ _______ _______ _____ _____    ______ ____
ROOT
ATOM      1  O   UNL     1       2.050   7.830  18.496  0.00  0.00    +0.000 OA
ATOM      2  C   UNL     1       2.863   7.079  17.989  0.00  0.00    +0.000 C 
ATOM      3  N   UNL     1       4.121   7.485  17.588  0.00  0.00    +0.000 N 
ATOM      4  C   UNL     1       4.990   6.352  17.310  0.00  0.00    +0.000 C 
ATOM      5  C   UNL     1       5.797   6.036  18.586  0.00  0.00    +0.000 C 
ATOM      6  C   UNL     1       6.540   4.702  18.588  0.00  0.00    +0.000 C 
ATOM      7  C   UNL     1       7.583   4.532  17.487  0.00  0.00    +0.000 C 
ATOM      8  C   UNL     1       6.997   4.257  16.106  0.00  0.00    +0.000 C 
ATOM      9  C   UNL     1       6.462   5.463  15.334  0.00  0.00    +0.000 C 
ATOM     10  C   UNL     1       5.885   6.643  16.110  0.00  0.00    +0.000 C 
ATOM     11  C   UNL     1       3.887   5.290  17.142  0.00  0.00    +0.000 C 
ATOM     12  O   UNL     1       4.044   4.167  16.690  0.00  0.00    +0.000 OA
ATOM     13  N   UNL     1       2.745   5.749  17.735  0.00  0.00    +0.000 N 
ATOM     14  H   UNL     1       4.429   8.425  17.801  0.00  0.00    +0.000 HD
ENDROOT
BRANCH  13  15
ATOM     15  C   UNL     1       1.628   4.902  18.101  0.00  0.00    +0.000 C 
BRANCH  15  16
ATOM     16  C   UNL     1       1.891   4.053  19.313  0.00  0.00    +0.000 A 
ATOM     17  C   UNL     1       1.776   4.623  20.589  0.00  0.00    +0.000 A 
ATOM     18  F   UNL     1       1.327   5.877  20.725  0.00  0.00    +0.000 F 
ATOM     19  C   UNL     1       2.082   3.915  21.748  0.00  0.00    +0.000 A 
ATOM     20  C   UNL     1       2.493   2.592  21.656  0.00  0.00    +0.000 A 
ATOM     21  C   UNL     1       2.567   1.984  20.405  0.00  0.00    +0.000 A 
ATOM     22  C   UNL     1       2.264   2.704  19.245  0.00  0.00    +0.000 A 
ATOM     23 CL   UNL     1       2.320   1.837  17.751  0.00  0.00    +0.000 Cl
ENDBRANCH  15  16
ENDBRANCH  13  15
TORSDOF 2
ENDMDL
MODEL 5
REMARK VINA RESULT:      -7.0      2.332      5.380
REMARK  Name = 
REMARK  2 active torsions:
REMARK  status: ('A' for Active; 'I' for Inactive)
REMARK    1  A    between atoms: N_13  and  C_14
REMARK    2  A    between atoms: C_14  and  C_15
REMARK                            x       y       z     vdW  Elec       q    Type
REMARK                         _______ _______ _______ _____ _____    ______ ____
ROOT
ATOM      1  O   UNL     1       1.907   7.794  18.237  0.00  0.00    +0.000 OA
ATOM      2  C   UNL     1       2.758   7.033  17.813  0.00  0.00    +0.000 C 
ATOM      3  N   UNL     1       4.022   7.445  17.439  0.00  0.00    +0.000 N 
ATOM      4  C   UNL     1       4.927   6.319  17.269  0.00  0.00    +0.000 C 
ATOM      5  C   UNL     1       5.686   6.103  18.594  0.00  0.00    +0.000 C 
ATOM      6  C   UNL     1       6.457   4.792  18.712  0.00  0.00    +0.000 C 
ATOM      7  C   UNL     1       7.550   4.579  17.667  0.00  0.00    +0.000 C 
ATOM      8  C   UNL     1       7.030   4.203  16.284  0.00  0.00    +0.000 C 
ATOM      9  C   UNL     1       6.501   5.345  15.416  0.00  0.00    +0.000 C 
ATOM     10  C   UNL     1       5.865   6.556  16.090  0.00  0.00    +0.000 C 
ATOM     11  C   UNL     1       3.856   5.221  17.124  0.00  0.00    +0.000 C 
ATOM     12  O   UNL     1       4.057   4.076  16.751  0.00  0.00    +0.000 OA
ATOM     13  N   UNL     1       2.680   5.688  17.639  0.00  0.00    +0.000 N 
ATOM     14  H   UNL     1       4.300   8.404  17.604  0.00  0.00    +0.000 HD
ENDROOT
BRANCH  13  15
ATOM     15  C   UNL     1       1.567   4.837  18.013  0.00  0.00    +0.000 C 
BRANCH  15  16
ATOM     16  C   UNL     1       1.826   4.018  19.246  0.00  0.00    +0.000 A 
ATOM     17  C   UNL     1       2.062   2.642  19.120  0.00  0.00    +0.000 A 
ATOM     18  F   UNL     1       2.169   2.090  17.904  0.00  0.00    +0.000 F 
ATOM     19  C   UNL     1       2.229   1.814  20.225  0.00  0.00    +0.000 A 
ATOM     20  C   UNL     1       2.187   2.357  21.503  0.00  0.00    +0.000 A 
ATOM     21  C   UNL     1       2.004   3.729  21.657  0.00  0.00    +0.000 A 
ATOM     22  C   UNL     1       1.831   4.553  20.541  0.00  0.00    +0.000 A 
ATOM     23 CL   UNL     1       1.681   6.249  20.839  0.00  0.00    +0.000 Cl
ENDBRANCH  15  16
ENDBRANCH  13  15
TORSDOF 2
ENDMDL
MODEL 6
REMARK VINA RESULT:      -6.7      2.123      3.213
REMARK  Name = 
REMARK  2 active torsions:
REMARK  status: ('A' for Active; 'I' for Inactive)
REMARK    1  A    between atoms: N_13  and  C_14
REMARK    2  A    between atoms: C_14  and  C_15
REMARK                            x       y       z     vdW  Elec       q    Type
REMARK                         _______ _______ _______ _____ _____    ______ ____
ROOT
ATOM      1  O   UNL     1       5.220   3.650  15.440  0.00  0.00    +0.000 OA
ATOM      2  C   UNL     1       4.784   3.923  16.543  0.00  0.00    +0.000 C 
ATOM      3  N   UNL     1       3.451   3.796  16.883  0.00  0.00    +0.000 N 
ATOM      4  C   UNL     1       3.251   3.886  18.321  0.00  0.00    +0.000 C 
ATOM      5  C   UNL     1       3.254   2.457  18.901  0.00  0.00    +0.000 C 
ATOM      6  C   UNL     1       3.357   2.358  20.420  0.00  0.00    +0.000 C 
ATOM      7  C   UNL     1       2.228   3.027  21.198  0.00  0.00    +0.000 C 
ATOM      8  C   UNL     1       2.315   4.549  21.245  0.00  0.00    +0.000 C 
ATOM      9  C   UNL     1       1.832   5.303  20.006  0.00  0.00    +0.000 C 
ATOM     10  C   UNL     1       1.965   4.642  18.638  0.00  0.00    +0.000 C 
ATOM     11  C   UNL     1       4.588   4.568  18.666  0.00  0.00    +0.000 C 
ATOM     12  O   UNL     1       4.872   5.072  19.742  0.00  0.00    +0.000 OA
ATOM     13  N   UNL     1       5.460   4.368  17.635  0.00  0.00    +0.000 N 
ATOM     14  H   UNL     1       2.810   3.371  16.224  0.00  0.00    +0.000 HD
ENDROOT
BRANCH  13  15
ATOM     15  C   UNL     1       6.895   4.533  17.746  0.00  0.00    +0.000 C 
BRANCH  15  16
ATOM     16  C   UNL     1       7.322   5.960  17.951  0.00  0.00    +0.000 A 
ATOM     17  C   UNL     1       6.909   6.938  17.036  0.00  0.00    +0.000 A 
ATOM     18  F   UNL     1       6.052   6.621  16.057  0.00  0.00    +0.000 F 
ATOM     19  C   UNL     1       7.333   8.261  17.123  0.00  0.00    +0.000 A 
ATOM     20  C   UNL     1       8.173   8.646  18.159  0.00  0.00    +0.000 A 
ATOM     21  C   UNL     1       8.559   7.707  19.112  0.00  0.00    +0.000 A 
ATOM     22  C   UNL     1       8.133   6.378  19.013  0.00  0.00    +0.000 A 
ATOM     23 CL   UNL     1       8.612   5.309  20.284  0.00  0.00    +0.000 Cl
ENDBRANCH  15  16
ENDBRANCH  13  15
TORSDOF 2
ENDMDL
MODEL 7
REMARK VINA RESULT:      -6.6      2.562      3.649
REMARK  Name = 
REMARK  2 active torsions:
REMARK  status: ('A' for Active; 'I' for Inactive)
REMARK    1  A    between atoms: N_13  and  C_14
REMARK    2  A    between atoms: C_14  and  C_15
REMARK                            x       y       z     vdW  Elec       q    Type
REMARK                         _______ _______ _______ _____ _____    ______ ____
ROOT
ATOM      1  O   UNL     1       5.106   3.358  15.598  0.00  0.00    +0.000 OA
ATOM      2  C   UNL     1       4.675   3.714  16.679  0.00  0.00    +0.000 C 
ATOM      3  N   UNL     1       3.344   3.611  17.033  0.00  0.00    +0.000 N 
ATOM      4  C   UNL     1       3.149   3.810  18.461  0.00  0.00    +0.000 C 
ATOM      5  C   UNL     1       3.157   2.429  19.148  0.00  0.00    +0.000 C 
ATOM      6  C   UNL     1       3.267   2.445  20.670  0.00  0.00    +0.000 C 
ATOM      7  C   UNL     1       2.139   3.170  21.400  0.00  0.00    +0.000 C 
ATOM      8  C   UNL     1       2.225   4.691  21.331  0.00  0.00    +0.000 C 
ATOM      9  C   UNL     1       1.736   5.349  20.041  0.00  0.00    +0.000 C 
ATOM     10  C   UNL     1       1.864   4.586  18.726  0.00  0.00    +0.000 C 
ATOM     11  C   UNL     1       4.487   4.517  18.748  0.00  0.00    +0.000 C 
ATOM     12  O   UNL     1       4.775   5.102  19.782  0.00  0.00    +0.000 OA
ATOM     13  N   UNL     1       5.355   4.241  17.731  0.00  0.00    +0.000 N 
ATOM     14  H   UNL     1       2.701   3.137  16.412  0.00  0.00    +0.000 HD
ENDROOT
BRANCH  13  15
ATOM     15  C   UNL     1       6.791   4.415  17.823  0.00  0.00    +0.000 C 
BRANCH  15  16
ATOM     16  C   UNL     1       7.219   5.856  17.860  0.00  0.00    +0.000 A 
ATOM     17  C   UNL     1       8.115   6.280  18.851  0.00  0.00    +0.000 A 
ATOM     18  F   UNL     1       8.668   5.387  19.682  0.00  0.00    +0.000 F 
ATOM     19  C   UNL     1       8.491   7.613  18.990  0.00  0.00    +0.000 A 
ATOM     20  C   UNL     1       7.989   8.563  18.110  0.00  0.00    +0.000 A 
ATOM     21  C   UNL     1       7.136   8.162  17.084  0.00  0.00    +0.000 A 
ATOM     22  C   UNL     1       6.759   6.821  16.956  0.00  0.00    +0.000 A 
ATOM     23 CL   UNL     1       5.754   6.419  15.609  0.00  0.00    +0.000 Cl
ENDBRANCH  15  16
ENDBRANCH  13  15
TORSDOF 2
ENDMDL
MODEL 8
REMARK VINA RESULT:      -6.5      2.696      5.762
REMARK  Name = 
REMARK  2 active torsions:
REMARK  status: ('A' for Active; 'I' for Inactive)
REMARK    1  A    between atoms: N_13  and  C_14
REMARK    2  A    between atoms: C_14  and  C_15
REMARK                            x       y       z     vdW  Elec       q    Type
REMARK                         _______ _______ _______ _____ _____    ______ ____
ROOT
ATOM      1  O   UNL     1       4.178   3.410  15.300  0.00  0.00    +0.000 OA
ATOM      2  C   UNL     1       4.791   3.979  16.184  0.00  0.00    +0.000 C 
ATOM      3  N   UNL     1       6.170   4.049  16.224  0.00  0.00    +0.000 N 
ATOM      4  C   UNL     1       6.632   5.031  17.193  0.00  0.00    +0.000 C 
ATOM      5  C   UNL     1       6.857   6.368  16.457  0.00  0.00    +0.000 C 
ATOM      6  C   UNL     1       7.053   7.592  17.347  0.00  0.00    +0.000 C 
ATOM      7  C   UNL     1       8.250   7.529  18.291  0.00  0.00    +0.000 C 
ATOM      8  C   UNL     1       8.048   6.623  19.501  0.00  0.00    +0.000 C 
ATOM      9  C   UNL     1       8.222   5.122  19.272  0.00  0.00    +0.000 C 
ATOM     10  C   UNL     1       7.887   4.537  17.903  0.00  0.00    +0.000 C 
ATOM     11  C   UNL     1       5.333   5.128  18.014  0.00  0.00    +0.000 C 
ATOM     12  O   UNL     1       5.217   5.675  19.101  0.00  0.00    +0.000 OA
ATOM     13  N   UNL     1       4.300   4.653  17.257  0.00  0.00    +0.000 N 
ATOM     14  H   UNL     1       6.707   3.695  15.443  0.00  0.00    +0.000 HD
ENDROOT
BRANCH  13  15
ATOM     15  C   UNL     1       2.903   4.919  17.537  0.00  0.00    +0.000 C 
BRANCH  15  16
ATOM     16  C   UNL     1       2.385   4.193  18.747  0.00  0.00    +0.000 A 
ATOM     17  C   UNL     1       2.275   2.795  18.715  0.00  0.00    +0.000 A 
ATOM     18  F   UNL     1       2.735   2.111  17.660  0.00  0.00    +0.000 F 
ATOM     19  C   UNL     1       1.730   2.070  19.770  0.00  0.00    +0.000 A 
ATOM     20  C   UNL     1       1.297   2.735  20.910  0.00  0.00    +0.000 A 
ATOM     21  C   UNL     1       1.440   4.118  20.990  0.00  0.00    +0.000 A 
ATOM     22  C   UNL     1       1.984   4.840  19.923  0.00  0.00    +0.000 A 
ATOM     23 CL   UNL     1       2.181   6.541  20.152  0.00  0.00    +0.000 Cl
ENDBRANCH  15  16
ENDBRANCH  13  15
TORSDOF 2
ENDMDL
MODEL 9
REMARK VINA RESULT:      -6.5      2.001      2.847
REMARK  Name = 
REMARK  2 active torsions:
REMARK  status: ('A' for Active; 'I' for Inactive)
REMARK    1  A    between atoms: N_13  and  C_14
REMARK    2  A    between atoms: C_14  and  C_15
REMARK                            x       y       z     vdW  Elec       q    Type
REMARK                         _______ _______ _______ _____ _____    ______ ____
ROOT
ATOM      1  O   UNL     1       6.765   4.543  18.941  0.00  0.00    +0.000 OA
ATOM      2  C   UNL     1       5.600   4.213  18.821  0.00  0.00    +0.000 C 
ATOM      3  N   UNL     1       5.003   3.247  19.607  0.00  0.00    +0.000 N 
ATOM      4  C   UNL     1       3.554   3.263  19.474  0.00  0.00    +0.000 C 
ATOM      5  C   UNL     1       2.975   4.147  20.597  0.00  0.00    +0.000 C 
ATOM      6  C   UNL     1       1.505   4.531  20.449  0.00  0.00    +0.000 C 
ATOM      7  C   UNL     1       0.525   3.361  20.411  0.00  0.00    +0.000 C 
ATOM      8  C   UNL     1       0.508   2.601  19.089  0.00  0.00    +0.000 C 
ATOM      9  C   UNL     1       1.633   1.591  18.864  0.00  0.00    +0.000 C 
ATOM     10  C   UNL     1       2.996   1.845  19.501  0.00  0.00    +0.000 C 
ATOM     11  C   UNL     1       3.485   4.037  18.144  0.00  0.00    +0.000 C 
ATOM     12  O   UNL     1       2.490   4.164  17.446  0.00  0.00    +0.000 OA
ATOM     13  N   UNL     1       4.667   4.696  17.959  0.00  0.00    +0.000 N 
ATOM     14  H   UNL     1       5.518   2.851  20.383  0.00  0.00    +0.000 HD
ENDROOT
BRANCH  13  15
ATOM     15  C   UNL     1       4.842   5.797  17.034  0.00  0.00    +0.000 C 
BRANCH  15  16
ATOM     16  C   UNL     1       5.772   5.483  15.896  0.00  0.00    +0.000 A 
ATOM     17  C   UNL     1       5.352   4.603  14.889  0.00  0.00    +0.000 A 
ATOM     18  F   UNL     1       4.095   4.140  14.885  0.00  0.00    +0.000 F 
ATOM     19  C   UNL     1       6.190   4.209  13.850  0.00  0.00    +0.000 A 
ATOM     20  C   UNL     1       7.482   4.714  13.782  0.00  0.00    +0.000 A 
ATOM     21  C   UNL     1       7.911   5.630  14.740  0.00  0.00    +0.000 A 
ATOM     22  C   UNL     1       7.063   6.016  15.784  0.00  0.00    +0.000 A 
ATOM     23 CL   UNL     1       7.667   7.208  16.879  0.00  0.00    +0.000 Cl
ENDBRANCH  15  16
ENDBRANCH  13  15
TORSDOF 2
ENDMDL
