MODEL 1
REMARK VINA RESULT:      -7.8      0.000      0.000
REMARK  Name = 
REMARK  6 active torsions:
REMARK  status: ('A' for Active; 'I' for Inactive)
REMARK    1  A    between atoms: C_2  and  O_3
REMARK    2  A    between atoms: C_2  and  C_4
REMARK    3  A    between atoms: C_4  and  C_5
REMARK    4  A    between atoms: C_5  and  C_17
REMARK    5  A    between atoms: C_6  and  C_7
REMARK    6  A    between atoms: C_11  and  C_12
REMARK                            x       y       z     vdW  Elec       q    Type
REMARK                         _______ _______ _______ _____ _____    ______ ____
ROOT
ATOM      1  C   UNL     1       3.100   6.596  18.452  0.00  0.00    +0.000 C 
ATOM      2  C   UNL     1       4.319   6.974  17.992  0.00  0.00    +0.000 C 
ENDROOT
BRANCH   1   3
ATOM      3  C   UNL     1       2.272   7.690  18.902  0.00  0.00    +0.000 A 
ATOM      4  N   UNL     1       1.808   7.827  20.132  0.00  0.00    +0.000 NA
ATOM      5  C   UNL     1       1.057   8.978  20.258  0.00  0.00    +0.000 A 
ATOM      6  C   UNL     1       0.428   9.419  21.439  0.00  0.00    +0.000 A 
ATOM      7  C   UNL     1      -0.313  10.605  21.429  0.00  0.00    +0.000 A 
ATOM      8  C   UNL     1      -0.430  11.348  20.259  0.00  0.00    +0.000 A 
ATOM      9  C   UNL     1       0.188  10.930  19.075  0.00  0.00    +0.000 A 
ATOM     10  C   UNL     1       0.931   9.738  19.098  0.00  0.00    +0.000 A 
ATOM     11  S   UNL     1       1.802   8.966  17.831  0.00  0.00    +0.000 S 
ENDBRANCH   1   3
BRANCH   2  12
ATOM     12  C   UNL     1       5.361   6.090  17.470  0.00  0.00    +0.000 A 
ATOM     13  C   UNL     1       6.402   5.652  18.290  0.00  0.00    +0.000 A 
ATOM     14  C   UNL     1       7.389   4.811  17.774  0.00  0.00    +0.000 A 
ATOM     15  C   UNL     1       7.331   4.399  16.441  0.00  0.00    +0.000 A 
ATOM     16  C   UNL     1       6.291   4.829  15.605  0.00  0.00    +0.000 A 
ATOM     17  C   UNL     1       5.317   5.695  16.129  0.00  0.00    +0.000 A 
BRANCH  16  18
ATOM     18  C   UNL     1       6.196   4.384  14.167  0.00  0.00    +0.000 C 
ATOM     19  F   UNL     1       6.432   3.051  13.999  0.00  0.00    +0.000 F 
ATOM     20  F   UNL     1       4.968   4.610  13.627  0.00  0.00    +0.000 F 
ATOM     21  F   UNL     1       7.088   5.022  13.359  0.00  0.00    +0.000 F 
ENDBRANCH  16  18
ENDBRANCH   2  12
BRANCH   1  22
ATOM     22  C   UNL     1       2.713   5.131  18.578  0.00  0.00    +0.000 C 
BRANCH  22  24
ATOM     23  O   UNL     1       4.033   3.530  19.865  0.00  0.00    +0.000 OA
ATOM     24  C   UNL     1       3.231   4.449  19.833  0.00  0.00    +0.000 C 
BRANCH  24  25
ATOM     25  O   UNL     1       2.654   4.938  20.960  0.00  0.00    +0.000 OA
ATOM     26  H   UNL     1       2.144   4.283  21.476  0.00  0.00    +0.000 HD
ENDBRANCH  24  25
ENDBRANCH  22  24
ENDBRANCH   1  22
TORSDOF 6
ENDMDL
MODEL 2
REMARK VINA RESULT:      -7.8      1.011      1.443
REMARK  Name = 
REMARK  6 active torsions:
REMARK  status: ('A' for Active; 'I' for Inactive)
REMARK    1  A    between atoms: C_2  and  O_3
REMARK    2  A    between atoms: C_2  and  C_4
REMARK    3  A    between atoms: C_4  and  C_5
REMARK    4  A    between atoms: C_5  and  C_17
REMARK    5  A    between atoms: C_6  and  C_7
REMARK    6  A    between atoms: C_11  and  C_12
REMARK                            x       y       z     vdW  Elec       q    Type
REMARK                         _______ _______ _______ _____ _____    ______ ____
ROOT
ATOM      1  C   UNL     1       3.196   6.479  18.534  0.00  0.00    +0.000 C 
ATOM      2  C   UNL     1       4.326   6.879  17.899  0.00  0.00    +0.000 C 
ENDROOT
BRANCH   1   3
ATOM      3  C   UNL     1       2.336   7.562  18.949  0.00  0.00    +0.000 A 
ATOM      4  N   UNL     1       1.852   7.715  20.171  0.00  0.00    +0.000 NA
ATOM      5  C   UNL     1       1.073   8.850  20.262  0.00  0.00    +0.000 A 
ATOM      6  C   UNL     1       0.418   9.300  21.425  0.00  0.00    +0.000 A 
ATOM      7  C   UNL     1      -0.350  10.468  21.379  0.00  0.00    +0.000 A 
ATOM      8  C   UNL     1      -0.470  11.183  20.192  0.00  0.00    +0.000 A 
ATOM      9  C   UNL     1       0.174  10.755  19.026  0.00  0.00    +0.000 A 
ATOM     10  C   UNL     1       0.945   9.582  19.084  0.00  0.00    +0.000 A 
ATOM     11  S   UNL     1       1.850   8.804  17.846  0.00  0.00    +0.000 S 
ENDBRANCH   1   3
BRANCH   2  12
ATOM     12  C   UNL     1       5.373   6.009  17.364  0.00  0.00    +0.000 A 
ATOM     13  C   UNL     1       6.434   5.591  18.170  0.00  0.00    +0.000 A 
ATOM     14  C   UNL     1       7.427   4.763  17.642  0.00  0.00    +0.000 A 
ATOM     15  C   UNL     1       7.354   4.345  16.312  0.00  0.00    +0.000 A 
ATOM     16  C   UNL     1       6.294   4.754  15.490  0.00  0.00    +0.000 A 
ATOM     17  C   UNL     1       5.315   5.607  16.026  0.00  0.00    +0.000 A 
BRANCH  16  18
ATOM     18  C   UNL     1       6.184   4.301  14.056  0.00  0.00    +0.000 C 
ATOM     19  F   UNL     1       4.943   4.497  13.524  0.00  0.00    +0.000 F 
ATOM     20  F   UNL     1       7.045   4.955  13.231  0.00  0.00    +0.000 F 
ATOM     21  F   UNL     1       6.446   2.974  13.903  0.00  0.00    +0.000 F 
ENDBRANCH  16  18
ENDBRANCH   2  12
BRANCH   1  22
ATOM     22  C   UNL     1       2.940   5.018  18.867  0.00  0.00    +0.000 C 
BRANCH  22  24
ATOM     23  O   UNL     1       1.117   4.377  17.374  0.00  0.00    +0.000 OA
ATOM     24  C   UNL     1       2.266   4.229  17.757  0.00  0.00    +0.000 C 
BRANCH  24  25
ATOM     25  O   UNL     1       3.074   3.267  17.246  0.00  0.00    +0.000 OA
ATOM     26  H   UNL     1       3.826   3.016  17.819  0.00  0.00    +0.000 HD
ENDBRANCH  24  25
ENDBRANCH  22  24
ENDBRANCH   1  22
TORSDOF 6
ENDMDL
MODEL 3
REMARK VINA RESULT:      -7.8      1.808      2.494
REMARK  Name = 
REMARK  6 active torsions:
REMARK  status: ('A' for Active; 'I' for Inactive)
REMARK    1  A    between atoms: C_2  and  O_3
REMARK    2  A    between atoms: C_2  and  C_4
REMARK    3  A    between atoms: C_4  and  C_5
REMARK    4  A    between atoms: C_5  and  C_17
REMARK    5  A    between atoms: C_6  and  C_7
REMARK    6  A    between atoms: C_11  and  C_12
REMARK                            x       y       z     vdW  Elec       q    Type
REMARK                         _______ _______ _______ _____ _____    ______ ____
ROOT
ATOM      1  C   UNL     1       2.307   6.586  19.947  0.00  0.00    +0.000 C 
ATOM      2  C   UNL     1       2.707   6.668  18.654  0.00  0.00    +0.000 C 
ENDROOT
BRANCH   1   3
ATOM      3  C   UNL     1       1.554   7.728  20.407  0.00  0.00    +0.000 A 
ATOM      4  N   UNL     1       1.020   7.844  21.612  0.00  0.00    +0.000 NA
ATOM      5  C   UNL     1       0.372   9.054  21.758  0.00  0.00    +0.000 A 
ATOM      6  C   UNL     1      -0.293   9.489  22.921  0.00  0.00    +0.000 A 
ATOM      7  C   UNL     1      -0.918  10.739  22.934  0.00  0.00    +0.000 A 
ATOM      8  C   UNL     1      -0.886  11.552  21.806  0.00  0.00    +0.000 A 
ATOM      9  C   UNL     1      -0.228  11.141  20.641  0.00  0.00    +0.000 A 
ATOM     10  C   UNL     1       0.398   9.883  20.641  0.00  0.00    +0.000 A 
ATOM     11  S   UNL     1       1.279   9.099  19.388  0.00  0.00    +0.000 S 
ENDBRANCH   1   3
BRANCH   2  12
ATOM     12  C   UNL     1       3.475   5.664  17.918  0.00  0.00    +0.000 A 
ATOM     13  C   UNL     1       2.875   4.478  17.491  0.00  0.00    +0.000 A 
ATOM     14  C   UNL     1       3.622   3.530  16.792  0.00  0.00    +0.000 A 
ATOM     15  C   UNL     1       4.969   3.770  16.510  0.00  0.00    +0.000 A 
ATOM     16  C   UNL     1       5.586   4.957  16.930  0.00  0.00    +0.000 A 
ATOM     17  C   UNL     1       4.829   5.892  17.654  0.00  0.00    +0.000 A 
BRANCH  16  18
ATOM     18  C   UNL     1       7.034   5.248  16.622  0.00  0.00    +0.000 C 
ATOM     19  F   UNL     1       7.431   6.489  17.025  0.00  0.00    +0.000 F 
ATOM     20  F   UNL     1       7.885   4.376  17.226  0.00  0.00    +0.000 F 
ATOM     21  F   UNL     1       7.310   5.186  15.290  0.00  0.00    +0.000 F 
ENDBRANCH  16  18
ENDBRANCH   2  12
BRANCH   1  22
ATOM     22  C   UNL     1       2.726   5.430  20.841  0.00  0.00    +0.000 C 
BRANCH  22  24
ATOM     23  O   UNL     1       0.685   4.212  20.281  0.00  0.00    +0.000 OA
ATOM     24  C   UNL     1       1.700   4.315  20.951  0.00  0.00    +0.000 C 
BRANCH  24  25
ATOM     25  O   UNL     1       1.999   3.437  21.941  0.00  0.00    +0.000 OA
ATOM     26  H   UNL     1       1.336   2.730  22.075  0.00  0.00    +0.000 HD
ENDBRANCH  24  25
ENDBRANCH  22  24
ENDBRANCH   1  22
TORSDOF 6
ENDMDL
MODEL 4
REMARK VINA RESULT:      -7.8      0.948      1.258
REMARK  Name = 
REMARK  6 active torsions:
REMARK  status: ('A' for Active; 'I' for Inactive)
REMARK    1  A    between atoms: C_2  and  O_3
REMARK    2  A    between atoms: C_2  and  C_4
REMARK    3  A    between atoms: C_4  and  C_5
REMARK    4  A    between atoms: C_5  and  C_17
REMARK    5  A    between atoms: C_6  and  C_7
REMARK    6  A    between atoms: C_11  and  C_12
REMARK                            x       y       z     vdW  Elec       q    Type
REMARK                         _______ _______ _______ _____ _____    ______ ____
ROOT
ATOM      1  C   UNL     1       3.233   6.442  18.589  0.00  0.00    +0.000 C 
ATOM      2  C   UNL     1       4.317   6.842  17.879  0.00  0.00    +0.000 C 
ENDROOT
BRANCH   1   3
ATOM      3  C   UNL     1       2.365   7.520  19.000  0.00  0.00    +0.000 A 
ATOM      4  N   UNL     1       1.863   7.662  20.216  0.00  0.00    +0.000 NA
ATOM      5  C   UNL     1       1.079   8.795  20.304  0.00  0.00    +0.000 A 
ATOM      6  C   UNL     1       0.407   9.235  21.462  0.00  0.00    +0.000 A 
ATOM      7  C   UNL     1      -0.363  10.401  21.414  0.00  0.00    +0.000 A 
ATOM      8  C   UNL     1      -0.468  11.125  20.231  0.00  0.00    +0.000 A 
ATOM      9  C   UNL     1       0.193  10.707  19.070  0.00  0.00    +0.000 A 
ATOM     10  C   UNL     1       0.966   9.535  19.131  0.00  0.00    +0.000 A 
ATOM     11  S   UNL     1       1.891   8.769  17.899  0.00  0.00    +0.000 S 
ENDBRANCH   1   3
BRANCH   2  12
ATOM     12  C   UNL     1       5.361   5.977  17.329  0.00  0.00    +0.000 A 
ATOM     13  C   UNL     1       6.440   5.572  18.117  0.00  0.00    +0.000 A 
ATOM     14  C   UNL     1       7.428   4.748  17.575  0.00  0.00    +0.000 A 
ATOM     15  C   UNL     1       7.333   4.321  16.249  0.00  0.00    +0.000 A 
ATOM     16  C   UNL     1       6.254   4.718  15.446  0.00  0.00    +0.000 A 
ATOM     17  C   UNL     1       5.280   5.566  15.995  0.00  0.00    +0.000 A 
BRANCH  16  18
ATOM     18  C   UNL     1       6.120   4.255  14.016  0.00  0.00    +0.000 C 
ATOM     19  F   UNL     1       6.931   4.932  13.153  0.00  0.00    +0.000 F 
ATOM     20  F   UNL     1       6.430   2.940  13.859  0.00  0.00    +0.000 F 
ATOM     21  F   UNL     1       4.856   4.407  13.532  0.00  0.00    +0.000 F 
ENDBRANCH  16  18
ENDBRANCH   2  12
BRANCH   1  22
ATOM     22  C   UNL     1       3.036   4.992  18.999  0.00  0.00    +0.000 C 
BRANCH  22  24
ATOM     23  O   UNL     1       1.314   4.317  17.406  0.00  0.00    +0.000 OA
ATOM     24  C   UNL     1       1.716   4.386  18.556  0.00  0.00    +0.000 C 
BRANCH  24  25
ATOM     25  O   UNL     1       0.967   3.961  19.604  0.00  0.00    +0.000 OA
ATOM     26  H   UNL     1       0.018   4.191  19.550  0.00  0.00    +0.000 HD
ENDBRANCH  24  25
ENDBRANCH  22  24
ENDBRANCH   1  22
TORSDOF 6
ENDMDL
MODEL 5
REMARK VINA RESULT:      -7.5      1.280      1.751
REMARK  Name = 
REMARK  6 active torsions:
REMARK  status: ('A' for Active; 'I' for Inactive)
REMARK    1  A    between atoms: C_2  and  O_3
REMARK    2  A    between atoms: C_2  and  C_4
REMARK    3  A    between atoms: C_4  and  C_5
REMARK    4  A    between atoms: C_5  and  C_17
REMARK    5  A    between atoms: C_6  and  C_7
REMARK    6  A    between atoms: C_11  and  C_12
REMARK                            x       y       z     vdW  Elec       q    Type
REMARK                         _______ _______ _______ _____ _____    ______ ____
ROOT
ATOM      1  C   UNL     1       3.134   6.496  18.592  0.00  0.00    +0.000 C 
ATOM      2  C   UNL     1       4.270   6.902  17.973  0.00  0.00    +0.000 C 
ENDROOT
BRANCH   1   3
ATOM      3  C   UNL     1       2.266   7.575  19.003  0.00  0.00    +0.000 A 
ATOM      4  N   UNL     1       1.860   8.557  18.215  0.00  0.00    +0.000 NA
ATOM      5  C   UNL     1       1.031   9.429  18.891  0.00  0.00    +0.000 A 
ATOM      6  C   UNL     1       0.425  10.574  18.337  0.00  0.00    +0.000 A 
ATOM      7  C   UNL     1      -0.391  11.381  19.137  0.00  0.00    +0.000 A 
ATOM      8  C   UNL     1      -0.605  11.058  20.472  0.00  0.00    +0.000 A 
ATOM      9  C   UNL     1      -0.014   9.924  21.042  0.00  0.00    +0.000 A 
ATOM     10  C   UNL     1       0.802   9.120  20.228  0.00  0.00    +0.000 A 
ATOM     11  S   UNL     1       1.656   7.678  20.619  0.00  0.00    +0.000 S 
ENDBRANCH   1   3
BRANCH   2  12
ATOM     12  C   UNL     1       5.326   6.038  17.445  0.00  0.00    +0.000 A 
ATOM     13  C   UNL     1       6.379   5.619  18.260  0.00  0.00    +0.000 A 
ATOM     14  C   UNL     1       7.379   4.797  17.740  0.00  0.00    +0.000 A 
ATOM     15  C   UNL     1       7.323   4.385  16.407  0.00  0.00    +0.000 A 
ATOM     16  C   UNL     1       6.271   4.795  15.576  0.00  0.00    +0.000 A 
ATOM     17  C   UNL     1       5.284   5.642  16.105  0.00  0.00    +0.000 A 
BRANCH  16  18
ATOM     18  C   UNL     1       6.178   4.349  14.138  0.00  0.00    +0.000 C 
ATOM     19  F   UNL     1       6.434   3.020  13.970  0.00  0.00    +0.000 F 
ATOM     20  F   UNL     1       4.945   4.557  13.603  0.00  0.00    +0.000 F 
ATOM     21  F   UNL     1       7.058   5.001  13.328  0.00  0.00    +0.000 F 
ENDBRANCH  16  18
ENDBRANCH   2  12
BRANCH   1  22
ATOM     22  C   UNL     1       2.878   5.032  18.915  0.00  0.00    +0.000 C 
BRANCH  22  24
ATOM     23  O   UNL     1       1.109   4.416  17.349  0.00  0.00    +0.000 OA
ATOM     24  C   UNL     1       2.235   4.243  17.787  0.00  0.00    +0.000 C 
BRANCH  24  25
ATOM     25  O   UNL     1       3.039   3.251  17.329  0.00  0.00    +0.000 OA
ATOM     26  H   UNL     1       3.991   3.382  17.505  0.00  0.00    +0.000 HD
ENDBRANCH  24  25
ENDBRANCH  22  24
ENDBRANCH   1  22
TORSDOF 6
ENDMDL
MODEL 6
REMARK VINA RESULT:      -7.5      3.714      5.061
REMARK  Name = 
REMARK  6 active torsions:
REMARK  status: ('A' for Active; 'I' for Inactive)
REMARK    1  A    between atoms: C_2  and  O_3
REMARK    2  A    between atoms: C_2  and  C_4
REMARK    3  A    between atoms: C_4  and  C_5
REMARK    4  A    between atoms: C_5  and  C_17
REMARK    5  A    between atoms: C_6  and  C_7
REMARK    6  A    between atoms: C_11  and  C_12
REMARK                            x       y       z     vdW  Elec       q    Type
REMARK                         _______ _______ _______ _____ _____    ______ ____
ROOT
ATOM      1  C   UNL     1       5.787   4.299  16.867  0.00  0.00    +0.000 C 
ATOM      2  C   UNL     1       5.249   4.210  15.626  0.00  0.00    +0.000 C 
ENDROOT
BRANCH   1   3
ATOM      3  C   UNL     1       4.816   4.286  17.936  0.00  0.00    +0.000 A 
ATOM      4  N   UNL     1       4.617   3.272  18.761  0.00  0.00    +0.000 NA
ATOM      5  C   UNL     1       3.631   3.562  19.682  0.00  0.00    +0.000 A 
ATOM      6  C   UNL     1       3.185   2.698  20.701  0.00  0.00    +0.000 A 
ATOM      7  C   UNL     1       2.169   3.114  21.566  0.00  0.00    +0.000 A 
ATOM      8  C   UNL     1       1.598   4.375  21.424  0.00  0.00    +0.000 A 
ATOM      9  C   UNL     1       2.027   5.249  20.419  0.00  0.00    +0.000 A 
ATOM     10  C   UNL     1       3.050   4.821  19.557  0.00  0.00    +0.000 A 
ATOM     11  S   UNL     1       3.793   5.647  18.243  0.00  0.00    +0.000 S 
ENDBRANCH   1   3
BRANCH   2  12
ATOM     12  C   UNL     1       5.984   4.194  14.361  0.00  0.00    +0.000 A 
ATOM     13  C   UNL     1       6.957   5.157  14.089  0.00  0.00    +0.000 A 
ATOM     14  C   UNL     1       7.647   5.127  12.876  0.00  0.00    +0.000 A 
ATOM     15  C   UNL     1       7.372   4.130  11.938  0.00  0.00    +0.000 A 
ATOM     16  C   UNL     1       6.398   3.154  12.197  0.00  0.00    +0.000 A 
ATOM     17  C   UNL     1       5.694   3.210  13.411  0.00  0.00    +0.000 A 
BRANCH  16  18
ATOM     18  C   UNL     1       6.094   2.057  11.209  0.00  0.00    +0.000 C 
ATOM     19  F   UNL     1       7.115   1.822  10.335  0.00  0.00    +0.000 F 
ATOM     20  F   UNL     1       5.844   0.863  11.811  0.00  0.00    +0.000 F 
ATOM     21  F   UNL     1       5.004   2.329  10.440  0.00  0.00    +0.000 F 
ENDBRANCH  16  18
ENDBRANCH   2  12
BRANCH   1  22
ATOM     22  C   UNL     1       7.278   4.508  17.079  0.00  0.00    +0.000 C 
BRANCH  22  24
ATOM     23  O   UNL     1       7.881   5.181  19.347  0.00  0.00    +0.000 OA
ATOM     24  C   UNL     1       7.625   5.482  18.192  0.00  0.00    +0.000 C 
BRANCH  24  25
ATOM     25  O   UNL     1       7.567   6.774  17.783  0.00  0.00    +0.000 OA
ATOM     26  H   UNL     1       7.526   6.895  16.814  0.00  0.00    +0.000 HD
ENDBRANCH  24  25
ENDBRANCH  22  24
ENDBRANCH   1  22
TORSDOF 6
ENDMDL
MODEL 7
REMARK VINA RESULT:      -7.4      3.938      5.081
REMARK  Name = 
REMARK  6 active torsions:
REMARK  status: ('A' for Active; 'I' for Inactive)
REMARK    1  A    between atoms: C_2  and  O_3
REMARK    2  A    between atoms: C_2  and  C_4
REMARK    3  A    between atoms: C_4  and  C_5
REMARK    4  A    between atoms: C_5  and  C_17
REMARK    5  A    between atoms: C_6  and  C_7
REMARK    6  A    between atoms: C_11  and  C_12
REMARK                            x       y       z     vdW  Elec       q    Type
REMARK                         _______ _______ _______ _____ _____    ______ ____
ROOT
ATOM      1  C   UNL     1       5.391   4.570  16.967  0.00  0.00    +0.000 C 
ATOM      2  C   UNL     1       5.074   4.013  15.772  0.00  0.00    +0.000 C 
ENDROOT
BRANCH   1   3
ATOM      3  C   UNL     1       4.431   4.310  18.013  0.00  0.00    +0.000 A 
ATOM      4  N   UNL     1       4.558   3.371  18.937  0.00  0.00    +0.000 NA
ATOM      5  C   UNL     1       3.484   3.375  19.804  0.00  0.00    +0.000 A 
ATOM      6  C   UNL     1       3.317   2.506  20.901  0.00  0.00    +0.000 A 
ATOM      7  C   UNL     1       2.175   2.612  21.700  0.00  0.00    +0.000 A 
ATOM      8  C   UNL     1       1.205   3.568  21.416  0.00  0.00    +0.000 A 
ATOM      9  C   UNL     1       1.352   4.442  20.333  0.00  0.00    +0.000 A 
ATOM     10  C   UNL     1       2.505   4.328  19.539  0.00  0.00    +0.000 A 
ATOM     11  S   UNL     1       2.979   5.241  18.159  0.00  0.00    +0.000 S 
ENDBRANCH   1   3
BRANCH   2  12
ATOM     12  C   UNL     1       5.857   4.101  14.539  0.00  0.00    +0.000 A 
ATOM     13  C   UNL     1       6.814   5.104  14.371  0.00  0.00    +0.000 A 
ATOM     14  C   UNL     1       7.550   5.174  13.188  0.00  0.00    +0.000 A 
ATOM     15  C   UNL     1       7.338   4.237  12.175  0.00  0.00    +0.000 A 
ATOM     16  C   UNL     1       6.382   3.222  12.328  0.00  0.00    +0.000 A 
ATOM     17  C   UNL     1       5.630   3.177  13.514  0.00  0.00    +0.000 A 
BRANCH  16  18
ATOM     18  C   UNL     1       6.147   2.188  11.257  0.00  0.00    +0.000 C 
ATOM     19  F   UNL     1       5.779   0.972  11.754  0.00  0.00    +0.000 F 
ATOM     20  F   UNL     1       5.160   2.544  10.390  0.00  0.00    +0.000 F 
ATOM     21  F   UNL     1       7.253   1.957  10.497  0.00  0.00    +0.000 F 
ENDBRANCH  16  18
ENDBRANCH   2  12
BRANCH   1  22
ATOM     22  C   UNL     1       6.599   5.478  17.130  0.00  0.00    +0.000 C 
BRANCH  22  24
ATOM     23  O   UNL     1       7.820   5.461  19.245  0.00  0.00    +0.000 OA
ATOM     24  C   UNL     1       7.624   4.986  18.137  0.00  0.00    +0.000 C 
BRANCH  24  25
ATOM     25  O   UNL     1       8.371   3.962  17.653  0.00  0.00    +0.000 OA
ATOM     26  H   UNL     1       7.871   3.142  17.468  0.00  0.00    +0.000 HD
ENDBRANCH  24  25
ENDBRANCH  22  24
ENDBRANCH   1  22
TORSDOF 6
ENDMDL
MODEL 8
REMARK VINA RESULT:      -7.4      3.395      4.815
REMARK  Name = 
REMARK  6 active torsions:
REMARK  status: ('A' for Active; 'I' for Inactive)
REMARK    1  A    between atoms: C_2  and  O_3
REMARK    2  A    between atoms: C_2  and  C_4
REMARK    3  A    between atoms: C_4  and  C_5
REMARK    4  A    between atoms: C_5  and  C_17
REMARK    5  A    between atoms: C_6  and  C_7
REMARK    6  A    between atoms: C_11  and  C_12
REMARK                            x       y       z     vdW  Elec       q    Type
REMARK                         _______ _______ _______ _____ _____    ______ ____
ROOT
ATOM      1  C   UNL     1       5.735   4.531  16.654  0.00  0.00    +0.000 C 
ATOM      2  C   UNL     1       5.217   4.435  15.404  0.00  0.00    +0.000 C 
ENDROOT
BRANCH   1   3
ATOM      3  C   UNL     1       4.746   4.678  17.695  0.00  0.00    +0.000 A 
ATOM      4  N   UNL     1       4.404   3.728  18.549  0.00  0.00    +0.000 NA
ATOM      5  C   UNL     1       3.440   4.173  19.432  0.00  0.00    +0.000 A 
ATOM      6  C   UNL     1       2.868   3.410  20.469  0.00  0.00    +0.000 A 
ATOM      7  C   UNL     1       1.892   3.981  21.291  0.00  0.00    +0.000 A 
ATOM      8  C   UNL     1       1.485   5.295  21.089  0.00  0.00    +0.000 A 
ATOM      9  C   UNL     1       2.042   6.072  20.066  0.00  0.00    +0.000 A 
ATOM     10  C   UNL     1       3.024   5.488  19.248  0.00  0.00    +0.000 A 
ATOM     11  S   UNL     1       3.893   6.166  17.927  0.00  0.00    +0.000 S 
ENDBRANCH   1   3
BRANCH   2  12
ATOM     12  C   UNL     1       5.972   4.273  14.162  0.00  0.00    +0.000 A 
ATOM     13  C   UNL     1       7.002   5.155  13.833  0.00  0.00    +0.000 A 
ATOM     14  C   UNL     1       7.711   4.988  12.643  0.00  0.00    +0.000 A 
ATOM     15  C   UNL     1       7.397   3.932  11.785  0.00  0.00    +0.000 A 
ATOM     16  C   UNL     1       6.366   3.036  12.101  0.00  0.00    +0.000 A 
ATOM     17  C   UNL     1       5.644   3.230  13.290  0.00  0.00    +0.000 A 
BRANCH  16  18
ATOM     18  C   UNL     1       6.019   1.878  11.200  0.00  0.00    +0.000 C 
ATOM     19  F   UNL     1       5.892   0.695  11.867  0.00  0.00    +0.000 F 
ATOM     20  F   UNL     1       4.841   2.058  10.543  0.00  0.00    +0.000 F 
ATOM     21  F   UNL     1       6.959   1.660  10.238  0.00  0.00    +0.000 F 
ENDBRANCH  16  18
ENDBRANCH   2  12
BRANCH   1  22
ATOM     22  C   UNL     1       7.235   4.591  16.894  0.00  0.00    +0.000 C 
BRANCH  22  24
ATOM     23  O   UNL     1       7.694   6.753  17.933  0.00  0.00    +0.000 OA
ATOM     24  C   UNL     1       7.656   5.535  18.007  0.00  0.00    +0.000 C 
BRANCH  24  25
ATOM     25  O   UNL     1       8.056   4.872  19.121  0.00  0.00    +0.000 OA
ATOM     26  H   UNL     1       7.476   4.991  19.899  0.00  0.00    +0.000 HD
ENDBRANCH  24  25
ENDBRANCH  22  24
ENDBRANCH   1  22
TORSDOF 6
ENDMDL
MODEL 9
REMARK VINA RESULT:      -7.4      3.076      4.564
REMARK  Name = 
REMARK  6 active torsions:
REMARK  status: ('A' for Active; 'I' for Inactive)
REMARK    1  A    between atoms: C_2  and  O_3
REMARK    2  A    between atoms: C_2  and  C_4
REMARK    3  A    between atoms: C_4  and  C_5
REMARK    4  A    between atoms: C_5  and  C_17
REMARK    5  A    between atoms: C_6  and  C_7
REMARK    6  A    between atoms: C_11  and  C_12
REMARK                            x       y       z     vdW  Elec       q    Type
REMARK                         _______ _______ _______ _____ _____    ______ ____
ROOT
ATOM      1  C   UNL     1       5.715   4.714  16.656  0.00  0.00    +0.000 C 
ATOM      2  C   UNL     1       5.209   4.660  15.399  0.00  0.00    +0.000 C 
ENDROOT
BRANCH   1   3
ATOM      3  C   UNL     1       4.730   4.974  17.679  0.00  0.00    +0.000 A 
ATOM      4  N   UNL     1       4.152   6.145  17.888  0.00  0.00    +0.000 NA
ATOM      5  C   UNL     1       3.247   6.077  18.928  0.00  0.00    +0.000 A 
ATOM      6  C   UNL     1       2.461   7.148  19.398  0.00  0.00    +0.000 A 
ATOM      7  C   UNL     1       1.585   6.946  20.469  0.00  0.00    +0.000 A 
ATOM      8  C   UNL     1       1.489   5.695  21.071  0.00  0.00    +0.000 A 
ATOM      9  C   UNL     1       2.259   4.618  20.619  0.00  0.00    +0.000 A 
ATOM     10  C   UNL     1       3.134   4.832  19.541  0.00  0.00    +0.000 A 
ATOM     11  S   UNL     1       4.199   3.730  18.758  0.00  0.00    +0.000 S 
ENDBRANCH   1   3
BRANCH   2  12
ATOM     12  C   UNL     1       5.963   4.407  14.171  0.00  0.00    +0.000 A 
ATOM     13  C   UNL     1       7.043   5.218  13.817  0.00  0.00    +0.000 A 
ATOM     14  C   UNL     1       7.750   4.964  12.641  0.00  0.00    +0.000 A 
ATOM     15  C   UNL     1       7.383   3.894  11.822  0.00  0.00    +0.000 A 
ATOM     16  C   UNL     1       6.302   3.070  12.163  0.00  0.00    +0.000 A 
ATOM     17  C   UNL     1       5.584   3.351  13.337  0.00  0.00    +0.000 A 
BRANCH  16  18
ATOM     18  C   UNL     1       5.897   1.898  11.305  0.00  0.00    +0.000 C 
ATOM     19  F   UNL     1       5.814   0.726  11.998  0.00  0.00    +0.000 F 
ATOM     20  F   UNL     1       4.679   2.069  10.723  0.00  0.00    +0.000 F 
ATOM     21  F   UNL     1       6.773   1.664  10.288  0.00  0.00    +0.000 F 
ENDBRANCH  16  18
ENDBRANCH   2  12
BRANCH   1  22
ATOM     22  C   UNL     1       7.209   4.619  16.921  0.00  0.00    +0.000 C 
BRANCH  22  24
ATOM     23  O   UNL     1       7.928   4.904  19.237  0.00  0.00    +0.000 OA
ATOM     24  C   UNL     1       7.681   5.387  18.144  0.00  0.00    +0.000 C 
BRANCH  24  25
ATOM     25  O   UNL     1       7.753   6.722  17.917  0.00  0.00    +0.000 OA
ATOM     26  H   UNL     1       6.889   7.180  17.890  0.00  0.00    +0.000 HD
ENDBRANCH  24  25
ENDBRANCH  22  24
ENDBRANCH   1  22
TORSDOF 6
ENDMDL
