MODEL 1
REMARK VINA RESULT:      -6.5      0.000      0.000
REMARK  Name = 
REMARK  13 active torsions:
REMARK  status: ('A' for Active; 'I' for Inactive)
REMARK    1  A    between atoms: C_1  and  C_2
REMARK    2  A    between atoms: C_2  and  C_3
REMARK    3  A    between atoms: C_3  and  C_4
REMARK    4  A    between atoms: C_3  and  O_5
REMARK    5  A    between atoms: O_5  and  C_6
REMARK    6  A    between atoms: C_8  and  C_9
REMARK    7  A    between atoms: C_9  and  N_10
REMARK    8  A    between atoms: N_10  and  C_11
REMARK    9  A    between atoms: C_11  and  C_12
REMARK   10  A    between atoms: C_12  and  C_13
REMARK   11  A    between atoms: N_15  and  C_16
REMARK   12  A    between atoms: C_19  and  O_20
REMARK   13  A    between atoms: O_20  and  C_21
REMARK                            x       y       z     vdW  Elec       q    Type
REMARK                         _______ _______ _______ _____ _____    ______ ____
ROOT
ATOM      1  C   UNL     1       5.467   6.008  16.956  0.00  0.00    +0.000 A 
ATOM      2  C   UNL     1       4.479   6.518  17.821  0.00  0.00    +0.000 A 
ATOM      3  C   UNL     1       3.332   5.766  18.137  0.00  0.00    +0.000 A 
ATOM      4  C   UNL     1       3.152   4.532  17.502  0.00  0.00    +0.000 A 
ATOM      5  C   UNL     1       4.148   4.001  16.681  0.00  0.00    +0.000 A 
ATOM      6  C   UNL     1       5.340   4.698  16.464  0.00  0.00    +0.000 A 
ENDROOT
BRANCH   6   7
ATOM      7  O   UNL     1       6.451   4.124  15.901  0.00  0.00    +0.000 OA
ATOM      8  C   UNL     1       6.615   4.232  14.497  0.00  0.00    +0.000 C 
ENDBRANCH   6   7
BRANCH   1   9
ATOM      9  O   UNL     1       6.560   6.824  16.742  0.00  0.00    +0.000 OA
BRANCH   9  10
ATOM     10  C   UNL     1       7.106   7.497  17.896  0.00  0.00    +0.000 C 
ATOM     11  C   UNL     1       8.037   6.550  18.655  0.00  0.00    +0.000 C 
BRANCH  10  13
ATOM     12  C   UNL     1       8.714   9.389  18.560  0.00  0.00    +0.000 C 
ATOM     13  C   UNL     1       7.915   8.729  17.446  0.00  0.00    +0.000 C 
ENDBRANCH  10  13
ENDBRANCH   9  10
ENDBRANCH   1   9
BRANCH   3  14
ATOM     14  C   UNL     1       2.382   6.155  19.251  0.00  0.00    +0.000 C 
BRANCH  14  15
ATOM     15  N   UNL     1       2.249   5.153  20.310  0.00  0.00    +0.000 NA
ATOM     16  H   UNL     1       2.325   5.627  21.209  0.00  0.00    +0.000 HD
BRANCH  15  17
ATOM     17  C   UNL     1       0.924   4.514  20.203  0.00  0.00    +0.000 C 
BRANCH  17  18
ATOM     18  C   UNL     1       0.971   3.069  20.690  0.00  0.00    +0.000 C 
BRANCH  18  19
ATOM     19  C   UNL     1       2.388   2.647  21.032  0.00  0.00    +0.000 C 
ATOM     20  O   UNL     1       2.805   2.536  22.179  0.00  0.00    +0.000 OA
ATOM     21  N   UNL     1       3.160   2.430  19.915  0.00  0.00    +0.000 N 
ATOM     22  C   UNL     1       4.554   2.049  19.989  0.00  0.00    +0.000 C 
ATOM     23  H   UNL     1       2.761   2.584  19.000  0.00  0.00    +0.000 HD
ENDBRANCH  18  19
ENDBRANCH  17  18
ENDBRANCH  15  17
ENDBRANCH  14  15
ENDBRANCH   3  14
TORSDOF 9
ENDMDL
MODEL 2
REMARK VINA RESULT:      -6.4      1.493      4.033
REMARK  Name = 
REMARK  13 active torsions:
REMARK  status: ('A' for Active; 'I' for Inactive)
REMARK    1  A    between atoms: C_1  and  C_2
REMARK    2  A    between atoms: C_2  and  C_3
REMARK    3  A    between atoms: C_3  and  C_4
REMARK    4  A    between atoms: C_3  and  O_5
REMARK    5  A    between atoms: O_5  and  C_6
REMARK    6  A    between atoms: C_8  and  C_9
REMARK    7  A    between atoms: C_9  and  N_10
REMARK    8  A    between atoms: N_10  and  C_11
REMARK    9  A    between atoms: C_11  and  C_12
REMARK   10  A    between atoms: C_12  and  C_13
REMARK   11  A    between atoms: N_15  and  C_16
REMARK   12  A    between atoms: C_19  and  O_20
REMARK   13  A    between atoms: O_20  and  C_21
REMARK                            x       y       z     vdW  Elec       q    Type
REMARK                         _______ _______ _______ _____ _____    ______ ____
ROOT
ATOM      1  C   UNL     1       6.172   4.400  16.005  0.00  0.00    +0.000 A 
ATOM      2  C   UNL     1       4.945   3.712  16.081  0.00  0.00    +0.000 A 
ATOM      3  C   UNL     1       4.018   3.989  17.104  0.00  0.00    +0.000 A 
ATOM      4  C   UNL     1       4.383   4.902  18.099  0.00  0.00    +0.000 A 
ATOM      5  C   UNL     1       5.575   5.621  18.005  0.00  0.00    +0.000 A 
ATOM      6  C   UNL     1       6.439   5.431  16.922  0.00  0.00    +0.000 A 
ENDROOT
BRANCH   6   7
ATOM      7  O   UNL     1       7.473   6.283  16.630  0.00  0.00    +0.000 OA
ATOM      8  C   UNL     1       7.526   7.523  17.317  0.00  0.00    +0.000 C 
ENDBRANCH   6   7
BRANCH   1   9
ATOM      9  O   UNL     1       6.986   4.065  14.942  0.00  0.00    +0.000 OA
BRANCH   9  10
ATOM     10  C   UNL     1       6.590   4.547  13.641  0.00  0.00    +0.000 C 
ATOM     11  C   UNL     1       7.755   5.294  12.989  0.00  0.00    +0.000 C 
BRANCH  10  13
ATOM     12  C   UNL     1       4.871   3.530  12.023  0.00  0.00    +0.000 C 
ATOM     13  C   UNL     1       6.201   3.357  12.741  0.00  0.00    +0.000 C 
ENDBRANCH  10  13
ENDBRANCH   9  10
ENDBRANCH   1   9
BRANCH   3  14
ATOM     14  C   UNL     1       2.595   3.471  17.079  0.00  0.00    +0.000 C 
BRANCH  14  15
ATOM     15  N   UNL     1       2.396   2.218  17.810  0.00  0.00    +0.000 NA
ATOM     16  H   UNL     1       3.246   2.016  18.335  0.00  0.00    +0.000 HD
BRANCH  15  17
ATOM     17  C   UNL     1       1.268   2.381  18.746  0.00  0.00    +0.000 C 
BRANCH  17  18
ATOM     18  C   UNL     1       1.707   2.125  20.184  0.00  0.00    +0.000 C 
BRANCH  18  19
ATOM     19  C   UNL     1       1.882   3.424  20.948  0.00  0.00    +0.000 C 
ATOM     20  O   UNL     1       2.221   3.479  22.125  0.00  0.00    +0.000 OA
ATOM     21  N   UNL     1       1.595   4.531  20.184  0.00  0.00    +0.000 N 
ATOM     22  C   UNL     1       1.662   5.879  20.705  0.00  0.00    +0.000 C 
ATOM     23  H   UNL     1       1.279   4.407  19.233  0.00  0.00    +0.000 HD
ENDBRANCH  18  19
ENDBRANCH  17  18
ENDBRANCH  15  17
ENDBRANCH  14  15
ENDBRANCH   3  14
TORSDOF 9
ENDMDL
MODEL 3
REMARK VINA RESULT:      -6.2      3.478      7.182
REMARK  Name = 
REMARK  13 active torsions:
REMARK  status: ('A' for Active; 'I' for Inactive)
REMARK    1  A    between atoms: C_1  and  C_2
REMARK    2  A    between atoms: C_2  and  C_3
REMARK    3  A    between atoms: C_3  and  C_4
REMARK    4  A    between atoms: C_3  and  O_5
REMARK    5  A    between atoms: O_5  and  C_6
REMARK    6  A    between atoms: C_8  and  C_9
REMARK    7  A    between atoms: C_9  and  N_10
REMARK    8  A    between atoms: N_10  and  C_11
REMARK    9  A    between atoms: C_11  and  C_12
REMARK   10  A    between atoms: C_12  and  C_13
REMARK   11  A    between atoms: N_15  and  C_16
REMARK   12  A    between atoms: C_19  and  O_20
REMARK   13  A    between atoms: O_20  and  C_21
REMARK                            x       y       z     vdW  Elec       q    Type
REMARK                         _______ _______ _______ _____ _____    ______ ____
ROOT
ATOM      1  C   UNL     1       3.748   4.906  18.188  0.00  0.00    +0.000 A 
ATOM      2  C   UNL     1       4.795   4.508  17.334  0.00  0.00    +0.000 A 
ATOM      3  C   UNL     1       5.495   5.448  16.554  0.00  0.00    +0.000 A 
ATOM      4  C   UNL     1       5.067   6.780  16.580  0.00  0.00    +0.000 A 
ATOM      5  C   UNL     1       4.062   7.189  17.458  0.00  0.00    +0.000 A 
ATOM      6  C   UNL     1       3.451   6.273  18.320  0.00  0.00    +0.000 A 
ENDROOT
BRANCH   6   7
ATOM      7  O   UNL     1       2.665   6.650  19.378  0.00  0.00    +0.000 OA
ATOM      8  C   UNL     1       1.999   7.900  19.299  0.00  0.00    +0.000 C 
ENDBRANCH   6   7
BRANCH   1   9
ATOM      9  O   UNL     1       3.156   3.900  18.925  0.00  0.00    +0.000 OA
BRANCH   9  10
ATOM     10  C   UNL     1       2.540   2.826  18.183  0.00  0.00    +0.000 C 
ATOM     11  C   UNL     1       3.348   1.540  18.367  0.00  0.00    +0.000 C 
BRANCH  10  13
ATOM     12  C   UNL     1       0.890   3.023  20.144  0.00  0.00    +0.000 C 
ATOM     13  C   UNL     1       1.109   2.588  18.702  0.00  0.00    +0.000 C 
ENDBRANCH  10  13
ENDBRANCH   9  10
ENDBRANCH   1   9
BRANCH   3  14
ATOM     14  C   UNL     1       6.781   5.112  15.828  0.00  0.00    +0.000 C 
BRANCH  14  15
ATOM     15  N   UNL     1       6.677   5.143  14.369  0.00  0.00    +0.000 NA
ATOM     16  H   UNL     1       7.605   5.321  13.986  0.00  0.00    +0.000 HD
BRANCH  15  17
ATOM     17  C   UNL     1       6.192   3.834  13.893  0.00  0.00    +0.000 C 
BRANCH  17  18
ATOM     18  C   UNL     1       6.562   3.610  12.430  0.00  0.00    +0.000 C 
BRANCH  18  19
ATOM     19  C   UNL     1       5.496   2.806  11.708  0.00  0.00    +0.000 C 
ATOM     20  O   UNL     1       5.626   1.625  11.407  0.00  0.00    +0.000 OA
ATOM     21  N   UNL     1       4.383   3.553  11.405  0.00  0.00    +0.000 N 
ATOM     22  C   UNL     1       3.247   3.011  10.691  0.00  0.00    +0.000 C 
ATOM     23  H   UNL     1       4.365   4.534  11.646  0.00  0.00    +0.000 HD
ENDBRANCH  18  19
ENDBRANCH  17  18
ENDBRANCH  15  17
ENDBRANCH  14  15
ENDBRANCH   3  14
TORSDOF 9
ENDMDL
MODEL 4
REMARK VINA RESULT:      -6.2      2.831      6.931
REMARK  Name = 
REMARK  13 active torsions:
REMARK  status: ('A' for Active; 'I' for Inactive)
REMARK    1  A    between atoms: C_1  and  C_2
REMARK    2  A    between atoms: C_2  and  C_3
REMARK    3  A    between atoms: C_3  and  C_4
REMARK    4  A    between atoms: C_3  and  O_5
REMARK    5  A    between atoms: O_5  and  C_6
REMARK    6  A    between atoms: C_8  and  C_9
REMARK    7  A    between atoms: C_9  and  N_10
REMARK    8  A    between atoms: N_10  and  C_11
REMARK    9  A    between atoms: C_11  and  C_12
REMARK   10  A    between atoms: C_12  and  C_13
REMARK   11  A    between atoms: N_15  and  C_16
REMARK   12  A    between atoms: C_19  and  O_20
REMARK   13  A    between atoms: O_20  and  C_21
REMARK                            x       y       z     vdW  Elec       q    Type
REMARK                         _______ _______ _______ _____ _____    ______ ____
ROOT
ATOM      1  C   UNL     1       2.141   6.452  19.945  0.00  0.00    +0.000 A 
ATOM      2  C   UNL     1       3.025   6.041  18.929  0.00  0.00    +0.000 A 
ATOM      3  C   UNL     1       3.406   6.919  17.897  0.00  0.00    +0.000 A 
ATOM      4  C   UNL     1       2.816   8.187  17.854  0.00  0.00    +0.000 A 
ATOM      5  C   UNL     1       1.976   8.617  18.882  0.00  0.00    +0.000 A 
ATOM      6  C   UNL     1       1.694   7.784  19.970  0.00  0.00    +0.000 A 
ENDROOT
BRANCH   6   7
ATOM      7  O   UNL     1       1.109   8.233  21.125  0.00  0.00    +0.000 OA
ATOM      8  C   UNL     1       0.688   9.586  21.175  0.00  0.00    +0.000 C 
ENDBRANCH   6   7
BRANCH   1   9
ATOM      9  O   UNL     1       1.862   5.513  20.918  0.00  0.00    +0.000 OA
BRANCH   9  10
ATOM     10  C   UNL     1       2.012   4.126  20.547  0.00  0.00    +0.000 C 
ATOM     11  C   UNL     1       2.388   3.299  21.777  0.00  0.00    +0.000 C 
BRANCH  10  13
ATOM     12  C   UNL     1       0.844   2.617  18.825  0.00  0.00    +0.000 C 
ATOM     13  C   UNL     1       0.681   3.593  19.981  0.00  0.00    +0.000 C 
ENDBRANCH  10  13
ENDBRANCH   9  10
ENDBRANCH   1   9
BRANCH   3  14
ATOM     14  C   UNL     1       4.541   6.614  16.942  0.00  0.00    +0.000 C 
BRANCH  14  15
ATOM     15  N   UNL     1       5.299   5.405  17.271  0.00  0.00    +0.000 NA
ATOM     16  H   UNL     1       5.024   4.669  16.621  0.00  0.00    +0.000 HD
BRANCH  15  17
ATOM     17  C   UNL     1       6.739   5.683  17.116  0.00  0.00    +0.000 C 
BRANCH  17  18
ATOM     18  C   UNL     1       7.430   4.574  16.330  0.00  0.00    +0.000 C 
BRANCH  18  19
ATOM     19  C   UNL     1       7.127   4.677  14.846  0.00  0.00    +0.000 C 
ATOM     20  O   UNL     1       7.573   5.560  14.122  0.00  0.00    +0.000 OA
ATOM     21  N   UNL     1       6.277   3.689  14.409  0.00  0.00    +0.000 N 
ATOM     22  C   UNL     1       5.820   3.599  13.039  0.00  0.00    +0.000 C 
ATOM     23  H   UNL     1       5.914   3.020  15.073  0.00  0.00    +0.000 HD
ENDBRANCH  18  19
ENDBRANCH  17  18
ENDBRANCH  15  17
ENDBRANCH  14  15
ENDBRANCH   3  14
TORSDOF 9
ENDMDL
MODEL 5
REMARK VINA RESULT:      -6.1      2.962      6.108
REMARK  Name = 
REMARK  13 active torsions:
REMARK  status: ('A' for Active; 'I' for Inactive)
REMARK    1  A    between atoms: C_1  and  C_2
REMARK    2  A    between atoms: C_2  and  C_3
REMARK    3  A    between atoms: C_3  and  C_4
REMARK    4  A    between atoms: C_3  and  O_5
REMARK    5  A    between atoms: O_5  and  C_6
REMARK    6  A    between atoms: C_8  and  C_9
REMARK    7  A    between atoms: C_9  and  N_10
REMARK    8  A    between atoms: N_10  and  C_11
REMARK    9  A    between atoms: C_11  and  C_12
REMARK   10  A    between atoms: C_12  and  C_13
REMARK   11  A    between atoms: N_15  and  C_16
REMARK   12  A    between atoms: C_19  and  O_20
REMARK   13  A    between atoms: O_20  and  C_21
REMARK                            x       y       z     vdW  Elec       q    Type
REMARK                         _______ _______ _______ _____ _____    ______ ____
ROOT
ATOM      1  C   UNL     1       2.660   5.395  19.351  0.00  0.00    +0.000 A 
ATOM      2  C   UNL     1       4.005   5.810  19.403  0.00  0.00    +0.000 A 
ATOM      3  C   UNL     1       5.057   4.888  19.246  0.00  0.00    +0.000 A 
ATOM      4  C   UNL     1       4.737   3.531  19.123  0.00  0.00    +0.000 A 
ATOM      5  C   UNL     1       3.408   3.119  19.024  0.00  0.00    +0.000 A 
ATOM      6  C   UNL     1       2.366   4.052  19.060  0.00  0.00    +0.000 A 
ENDROOT
BRANCH   6   7
ATOM      7  O   UNL     1       1.078   3.751  18.700  0.00  0.00    +0.000 OA
ATOM      8  C   UNL     1       0.629   2.419  18.892  0.00  0.00    +0.000 C 
ENDBRANCH   6   7
BRANCH   1   9
ATOM      9  O   UNL     1       1.716   6.392  19.491  0.00  0.00    +0.000 OA
BRANCH   9  10
ATOM     10  C   UNL     1       2.190   7.753  19.415  0.00  0.00    +0.000 C 
ATOM     11  C   UNL     1       2.256   8.198  17.953  0.00  0.00    +0.000 C 
BRANCH  10  13
ATOM     12  C   UNL     1       1.214   8.481  21.679  0.00  0.00    +0.000 C 
ATOM     13  C   UNL     1       1.222   8.684  20.171  0.00  0.00    +0.000 C 
ENDBRANCH  10  13
ENDBRANCH   9  10
ENDBRANCH   1   9
BRANCH   3  14
ATOM     14  C   UNL     1       6.495   5.317  19.036  0.00  0.00    +0.000 C 
BRANCH  14  15
ATOM     15  N   UNL     1       7.316   4.344  18.314  0.00  0.00    +0.000 NA
ATOM     16  H   UNL     1       6.840   3.443  18.340  0.00  0.00    +0.000 HD
BRANCH  15  17
ATOM     17  C   UNL     1       7.462   4.782  16.913  0.00  0.00    +0.000 C 
BRANCH  17  18
ATOM     18  C   UNL     1       6.429   4.106  16.017  0.00  0.00    +0.000 C 
BRANCH  18  19
ATOM     19  C   UNL     1       6.688   4.406  14.552  0.00  0.00    +0.000 C 
ATOM     20  O   UNL     1       7.266   5.412  14.157  0.00  0.00    +0.000 OA
ATOM     21  N   UNL     1       6.181   3.440  13.715  0.00  0.00    +0.000 N 
ATOM     22  C   UNL     1       6.279   3.522  12.274  0.00  0.00    +0.000 C 
ATOM     23  H   UNL     1       5.677   2.658  14.110  0.00  0.00    +0.000 HD
ENDBRANCH  18  19
ENDBRANCH  17  18
ENDBRANCH  15  17
ENDBRANCH  14  15
ENDBRANCH   3  14
TORSDOF 9
ENDMDL
MODEL 6
REMARK VINA RESULT:      -6.1      1.597      2.482
REMARK  Name = 
REMARK  13 active torsions:
REMARK  status: ('A' for Active; 'I' for Inactive)
REMARK    1  A    between atoms: C_1  and  C_2
REMARK    2  A    between atoms: C_2  and  C_3
REMARK    3  A    between atoms: C_3  and  C_4
REMARK    4  A    between atoms: C_3  and  O_5
REMARK    5  A    between atoms: O_5  and  C_6
REMARK    6  A    between atoms: C_8  and  C_9
REMARK    7  A    between atoms: C_9  and  N_10
REMARK    8  A    between atoms: N_10  and  C_11
REMARK    9  A    between atoms: C_11  and  C_12
REMARK   10  A    between atoms: C_12  and  C_13
REMARK   11  A    between atoms: N_15  and  C_16
REMARK   12  A    between atoms: C_19  and  O_20
REMARK   13  A    between atoms: O_20  and  C_21
REMARK                            x       y       z     vdW  Elec       q    Type
REMARK                         _______ _______ _______ _____ _____    ______ ____
ROOT
ATOM      1  C   UNL     1       6.763   5.518  16.016  0.00  0.00    +0.000 A 
ATOM      2  C   UNL     1       5.823   5.000  16.929  0.00  0.00    +0.000 A 
ATOM      3  C   UNL     1       4.822   4.102  16.512  0.00  0.00    +0.000 A 
ATOM      4  C   UNL     1       4.727   3.803  15.149  0.00  0.00    +0.000 A 
ATOM      5  C   UNL     1       5.681   4.275  14.247  0.00  0.00    +0.000 A 
ATOM      6  C   UNL     1       6.745   5.070  14.684  0.00  0.00    +0.000 A 
ENDROOT
BRANCH   6   7
ATOM      7  O   UNL     1       7.848   5.335  13.914  0.00  0.00    +0.000 OA
ATOM      8  C   UNL     1       7.753   5.108  12.517  0.00  0.00    +0.000 C 
ENDBRANCH   6   7
BRANCH   1   9
ATOM      9  O   UNL     1       7.714   6.367  16.545  0.00  0.00    +0.000 OA
BRANCH   9  10
ATOM     10  C   UNL     1       7.346   7.094  17.737  0.00  0.00    +0.000 C 
ATOM     11  C   UNL     1       8.096   6.525  18.942  0.00  0.00    +0.000 C 
BRANCH  10  13
ATOM     12  C   UNL     1       8.696   9.091  18.630  0.00  0.00    +0.000 C 
ATOM     13  C   UNL     1       7.724   8.580  17.577  0.00  0.00    +0.000 C 
ENDBRANCH  10  13
ENDBRANCH   9  10
ENDBRANCH   1   9
BRANCH   3  14
ATOM     14  C   UNL     1       3.964   3.326  17.489  0.00  0.00    +0.000 C 
BRANCH  14  15
ATOM     15  N   UNL     1       2.559   3.207  17.095  0.00  0.00    +0.000 NA
ATOM     16  H   UNL     1       2.186   2.348  17.498  0.00  0.00    +0.000 HD
BRANCH  15  17
ATOM     17  C   UNL     1       1.811   4.363  17.627  0.00  0.00    +0.000 C 
BRANCH  17  18
ATOM     18  C   UNL     1       2.526   4.972  18.829  0.00  0.00    +0.000 C 
BRANCH  18  19
ATOM     19  C   UNL     1       1.855   4.573  20.131  0.00  0.00    +0.000 C 
ATOM     20  O   UNL     1       1.262   5.361  20.858  0.00  0.00    +0.000 OA
ATOM     21  N   UNL     1       2.008   3.237  20.418  0.00  0.00    +0.000 N 
ATOM     22  C   UNL     1       1.481   2.630  21.621  0.00  0.00    +0.000 C 
ATOM     23  H   UNL     1       2.548   2.655  19.792  0.00  0.00    +0.000 HD
ENDBRANCH  18  19
ENDBRANCH  17  18
ENDBRANCH  15  17
ENDBRANCH  14  15
ENDBRANCH   3  14
TORSDOF 9
ENDMDL
MODEL 7
REMARK VINA RESULT:      -6.1      1.487      2.633
REMARK  Name = 
REMARK  13 active torsions:
REMARK  status: ('A' for Active; 'I' for Inactive)
REMARK    1  A    between atoms: C_1  and  C_2
REMARK    2  A    between atoms: C_2  and  C_3
REMARK    3  A    between atoms: C_3  and  C_4
REMARK    4  A    between atoms: C_3  and  O_5
REMARK    5  A    between atoms: O_5  and  C_6
REMARK    6  A    between atoms: C_8  and  C_9
REMARK    7  A    between atoms: C_9  and  N_10
REMARK    8  A    between atoms: N_10  and  C_11
REMARK    9  A    between atoms: C_11  and  C_12
REMARK   10  A    between atoms: C_12  and  C_13
REMARK   11  A    between atoms: N_15  and  C_16
REMARK   12  A    between atoms: C_19  and  O_20
REMARK   13  A    between atoms: O_20  and  C_21
REMARK                            x       y       z     vdW  Elec       q    Type
REMARK                         _______ _______ _______ _____ _____    ______ ____
ROOT
ATOM      1  C   UNL     1       6.793   5.457  16.094  0.00  0.00    +0.000 A 
ATOM      2  C   UNL     1       5.864   4.901  16.996  0.00  0.00    +0.000 A 
ATOM      3  C   UNL     1       4.861   4.018  16.554  0.00  0.00    +0.000 A 
ATOM      4  C   UNL     1       4.752   3.773  15.180  0.00  0.00    +0.000 A 
ATOM      5  C   UNL     1       5.696   4.283  14.288  0.00  0.00    +0.000 A 
ATOM      6  C   UNL     1       6.763   5.062  14.746  0.00  0.00    +0.000 A 
ENDROOT
BRANCH   6   7
ATOM      7  O   UNL     1       7.856   5.361  13.975  0.00  0.00    +0.000 OA
ATOM      8  C   UNL     1       7.784   5.091  12.585  0.00  0.00    +0.000 C 
ENDBRANCH   6   7
BRANCH   1   9
ATOM      9  O   UNL     1       7.747   6.287  16.647  0.00  0.00    +0.000 OA
BRANCH   9  10
ATOM     10  C   UNL     1       7.357   7.043  17.813  0.00  0.00    +0.000 C 
ATOM     11  C   UNL     1       8.118   6.535  19.039  0.00  0.00    +0.000 C 
BRANCH  10  13
ATOM     12  C   UNL     1       8.654   9.103  18.637  0.00  0.00    +0.000 C 
ATOM     13  C   UNL     1       7.693   8.532  17.605  0.00  0.00    +0.000 C 
ENDBRANCH  10  13
ENDBRANCH   9  10
ENDBRANCH   1   9
BRANCH   3  14
ATOM     14  C   UNL     1       4.014   3.201  17.507  0.00  0.00    +0.000 C 
BRANCH  14  15
ATOM     15  N   UNL     1       4.584   3.055  18.848  0.00  0.00    +0.000 NA
ATOM     16  H   UNL     1       4.729   3.987  19.236  0.00  0.00    +0.000 HD
BRANCH  15  17
ATOM     17  C   UNL     1       3.634   2.312  19.696  0.00  0.00    +0.000 C 
BRANCH  17  18
ATOM     18  C   UNL     1       3.151   3.171  20.861  0.00  0.00    +0.000 C 
BRANCH  18  19
ATOM     19  C   UNL     1       2.301   4.331  20.377  0.00  0.00    +0.000 C 
ATOM     20  O   UNL     1       1.098   4.247  20.159  0.00  0.00    +0.000 OA
ATOM     21  N   UNL     1       3.033   5.479  20.183  0.00  0.00    +0.000 N 
ATOM     22  C   UNL     1       2.446   6.709  19.695  0.00  0.00    +0.000 C 
ATOM     23  H   UNL     1       4.031   5.463  20.341  0.00  0.00    +0.000 HD
ENDBRANCH  18  19
ENDBRANCH  17  18
ENDBRANCH  15  17
ENDBRANCH  14  15
ENDBRANCH   3  14
TORSDOF 9
ENDMDL
MODEL 8
REMARK VINA RESULT:      -6.0      2.769      6.862
REMARK  Name = 
REMARK  13 active torsions:
REMARK  status: ('A' for Active; 'I' for Inactive)
REMARK    1  A    between atoms: C_1  and  C_2
REMARK    2  A    between atoms: C_2  and  C_3
REMARK    3  A    between atoms: C_3  and  C_4
REMARK    4  A    between atoms: C_3  and  O_5
REMARK    5  A    between atoms: O_5  and  C_6
REMARK    6  A    between atoms: C_8  and  C_9
REMARK    7  A    between atoms: C_9  and  N_10
REMARK    8  A    between atoms: N_10  and  C_11
REMARK    9  A    between atoms: C_11  and  C_12
REMARK   10  A    between atoms: C_12  and  C_13
REMARK   11  A    between atoms: N_15  and  C_16
REMARK   12  A    between atoms: C_19  and  O_20
REMARK   13  A    between atoms: O_20  and  C_21
REMARK                            x       y       z     vdW  Elec       q    Type
REMARK                         _______ _______ _______ _____ _____    ______ ____
ROOT
ATOM      1  C   UNL     1       2.900   5.476  19.285  0.00  0.00    +0.000 A 
ATOM      2  C   UNL     1       3.675   5.387  18.113  0.00  0.00    +0.000 A 
ATOM      3  C   UNL     1       3.908   6.518  17.307  0.00  0.00    +0.000 A 
ATOM      4  C   UNL     1       3.276   7.718  17.652  0.00  0.00    +0.000 A 
ATOM      5  C   UNL     1       2.546   7.825  18.836  0.00  0.00    +0.000 A 
ATOM      6  C   UNL     1       2.417   6.730  19.696  0.00  0.00    +0.000 A 
ENDROOT
BRANCH   6   7
ATOM      7  O   UNL     1       1.954   6.838  20.982  0.00  0.00    +0.000 OA
ATOM      8  C   UNL     1       0.892   7.744  21.232  0.00  0.00    +0.000 C 
ENDBRANCH   6   7
BRANCH   1   9
ATOM      9  O   UNL     1       2.765   4.308  20.008  0.00  0.00    +0.000 OA
BRANCH   9  10
ATOM     10  C   UNL     1       1.816   3.340  19.511  0.00  0.00    +0.000 C 
ATOM     11  C   UNL     1       2.552   2.074  19.069  0.00  0.00    +0.000 C 
BRANCH  10  13
ATOM     12  C   UNL     1       1.454   2.801  21.998  0.00  0.00    +0.000 C 
ATOM     13  C   UNL     1       0.819   2.968  20.625  0.00  0.00    +0.000 C 
ENDBRANCH  10  13
ENDBRANCH   9  10
ENDBRANCH   1   9
BRANCH   3  14
ATOM     14  C   UNL     1       4.935   6.531  16.195  0.00  0.00    +0.000 C 
BRANCH  14  15
ATOM     15  N   UNL     1       6.307   6.780  16.642  0.00  0.00    +0.000 NA
ATOM     16  H   UNL     1       6.268   7.209  17.566  0.00  0.00    +0.000 HD
BRANCH  15  17
ATOM     17  C   UNL     1       7.026   5.495  16.727  0.00  0.00    +0.000 C 
BRANCH  17  18
ATOM     18  C   UNL     1       6.398   4.453  15.806  0.00  0.00    +0.000 C 
BRANCH  18  19
ATOM     19  C   UNL     1       6.934   4.571  14.392  0.00  0.00    +0.000 C 
ATOM     20  O   UNL     1       7.752   5.415  14.044  0.00  0.00    +0.000 OA
ATOM     21  N   UNL     1       6.383   3.646  13.537  0.00  0.00    +0.000 N 
ATOM     22  C   UNL     1       6.718   3.582  12.131  0.00  0.00    +0.000 C 
ATOM     23  H   UNL     1       5.681   3.008  13.884  0.00  0.00    +0.000 HD
ENDBRANCH  18  19
ENDBRANCH  17  18
ENDBRANCH  15  17
ENDBRANCH  14  15
ENDBRANCH   3  14
TORSDOF 9
ENDMDL
MODEL 9
REMARK VINA RESULT:      -6.0      1.695      4.176
REMARK  Name = 
REMARK  13 active torsions:
REMARK  status: ('A' for Active; 'I' for Inactive)
REMARK    1  A    between atoms: C_1  and  C_2
REMARK    2  A    between atoms: C_2  and  C_3
REMARK    3  A    between atoms: C_3  and  C_4
REMARK    4  A    between atoms: C_3  and  O_5
REMARK    5  A    between atoms: O_5  and  C_6
REMARK    6  A    between atoms: C_8  and  C_9
REMARK    7  A    between atoms: C_9  and  N_10
REMARK    8  A    between atoms: N_10  and  C_11
REMARK    9  A    between atoms: C_11  and  C_12
REMARK   10  A    between atoms: C_12  and  C_13
REMARK   11  A    between atoms: N_15  and  C_16
REMARK   12  A    between atoms: C_19  and  O_20
REMARK   13  A    between atoms: O_20  and  C_21
REMARK                            x       y       z     vdW  Elec       q    Type
REMARK                         _______ _______ _______ _____ _____    ______ ____
ROOT
ATOM      1  C   UNL     1       6.500   5.608  16.582  0.00  0.00    +0.000 A 
ATOM      2  C   UNL     1       5.737   4.582  17.172  0.00  0.00    +0.000 A 
ATOM      3  C   UNL     1       5.779   4.352  18.561  0.00  0.00    +0.000 A 
ATOM      4  C   UNL     1       6.666   5.110  19.332  0.00  0.00    +0.000 A 
ATOM      5  C   UNL     1       7.389   6.158  18.761  0.00  0.00    +0.000 A 
ATOM      6  C   UNL     1       7.255   6.463  17.403  0.00  0.00    +0.000 A 
ENDROOT
BRANCH   6   7
ATOM      7  O   UNL     1       7.717   7.628  16.847  0.00  0.00    +0.000 OA
ATOM      8  C   UNL     1       7.924   8.737  17.706  0.00  0.00    +0.000 C 
ENDBRANCH   6   7
BRANCH   1   9
ATOM      9  O   UNL     1       6.356   5.758  15.217  0.00  0.00    +0.000 OA
BRANCH   9  10
ATOM     10  C   UNL     1       6.814   4.667  14.391  0.00  0.00    +0.000 C 
ATOM     11  C   UNL     1       5.619   3.986  13.721  0.00  0.00    +0.000 C 
BRANCH  10  13
ATOM     12  C   UNL     1       7.395   4.747  11.888  0.00  0.00    +0.000 C 
ATOM     13  C   UNL     1       7.755   5.204  13.294  0.00  0.00    +0.000 C 
ENDBRANCH  10  13
ENDBRANCH   9  10
ENDBRANCH   1   9
BRANCH   3  14
ATOM     14  C   UNL     1       4.793   3.445  19.268  0.00  0.00    +0.000 C 
BRANCH  14  15
ATOM     15  N   UNL     1       4.095   2.507  18.387  0.00  0.00    +0.000 NA
ATOM     16  H   UNL     1       4.579   1.611  18.427  0.00  0.00    +0.000 HD
BRANCH  15  17
ATOM     17  C   UNL     1       2.710   2.339  18.864  0.00  0.00    +0.000 C 
BRANCH  17  18
ATOM     18  C   UNL     1       1.806   3.446  18.328  0.00  0.00    +0.000 C 
BRANCH  18  19
ATOM     19  C   UNL     1       1.667   4.578  19.329  0.00  0.00    +0.000 C 
ATOM     20  O   UNL     1       1.030   4.487  20.372  0.00  0.00    +0.000 OA
ATOM     21  N   UNL     1       2.311   5.724  18.926  0.00  0.00    +0.000 N 
ATOM     22  C   UNL     1       2.293   6.946  19.701  0.00  0.00    +0.000 C 
ATOM     23  H   UNL     1       2.781   5.739  18.032  0.00  0.00    +0.000 HD
ENDBRANCH  18  19
ENDBRANCH  17  18
ENDBRANCH  15  17
ENDBRANCH  14  15
ENDBRANCH   3  14
TORSDOF 9
ENDMDL
