MODEL 1
REMARK VINA RESULT:      -6.1      0.000      0.000
REMARK  Name = 
REMARK  2 active torsions:
REMARK  status: ('A' for Active; 'I' for Inactive)
REMARK    1  A    between atoms: C_1  and  C_2
REMARK    2  A    between atoms: C_2  and  C_4
REMARK                            x       y       z     vdW  Elec       q    Type
REMARK                         _______ _______ _______ _____ _____    ______ ____
ROOT
ATOM      1  C   UNL     1       5.664   4.978  19.014  0.00  0.00    +0.000 A 
ATOM      2  N   UNL     1       5.361   3.701  19.186  0.00  0.00    +0.000 NA
ATOM      3  C   UNL     1       4.048   3.639  18.818  0.00  0.00    +0.000 A 
ATOM      4  N   UNL     1       3.273   2.531  18.800  0.00  0.00    +0.000 NA
ATOM      5  C   UNL     1       2.011   2.758  18.361  0.00  0.00    +0.000 A 
ATOM      6  C   UNL     1       1.496   3.991  17.954  0.00  0.00    +0.000 A 
ATOM      7  C   UNL     1       2.306   5.126  17.988  0.00  0.00    +0.000 A 
ATOM      8  C   UNL     1       3.596   4.890  18.433  0.00  0.00    +0.000 A 
ATOM      9  O   UNL     1       4.628   5.767  18.568  0.00  0.00    +0.000 OA
ENDROOT
BRANCH   1  11
ATOM     10  C   UNL     1       7.470   6.458  18.115  0.00  0.00    +0.000 C 
ATOM     11  C   UNL     1       6.968   5.575  19.230  0.00  0.00    +0.000 C 
ATOM     12  O   UNL     1       7.644   5.412  20.247  0.00  0.00    +0.000 OA
ENDBRANCH   1  11
TORSDOF 1
ENDMDL
MODEL 2
REMARK VINA RESULT:      -6.0      1.533      1.606
REMARK  Name = 
REMARK  2 active torsions:
REMARK  status: ('A' for Active; 'I' for Inactive)
REMARK    1  A    between atoms: C_1  and  C_2
REMARK    2  A    between atoms: C_2  and  C_4
REMARK                            x       y       z     vdW  Elec       q    Type
REMARK                         _______ _______ _______ _____ _____    ______ ____
ROOT
ATOM      1  C   UNL     1       5.930   4.350  18.148  0.00  0.00    +0.000 A 
ATOM      2  N   UNL     1       5.547   3.895  19.331  0.00  0.00    +0.000 NA
ATOM      3  C   UNL     1       4.264   3.486  19.108  0.00  0.00    +0.000 A 
ATOM      4  N   UNL     1       3.434   2.922  20.015  0.00  0.00    +0.000 NA
ATOM      5  C   UNL     1       2.223   2.586  19.507  0.00  0.00    +0.000 A 
ATOM      6  C   UNL     1       1.807   2.779  18.188  0.00  0.00    +0.000 A 
ATOM      7  C   UNL     1       2.673   3.370  17.266  0.00  0.00    +0.000 A 
ATOM      8  C   UNL     1       3.910   3.708  17.787  0.00  0.00    +0.000 A 
ATOM      9  O   UNL     1       4.975   4.278  17.160  0.00  0.00    +0.000 OA
ENDROOT
BRANCH   1  11
ATOM     10  C   UNL     1       7.677   6.075  18.632  0.00  0.00    +0.000 C 
ATOM     11  C   UNL     1       7.245   4.873  17.828  0.00  0.00    +0.000 C 
ATOM     12  O   UNL     1       7.994   4.390  16.979  0.00  0.00    +0.000 OA
ENDBRANCH   1  11
TORSDOF 1
ENDMDL
MODEL 3
REMARK VINA RESULT:      -5.9      1.287      1.706
REMARK  Name = 
REMARK  2 active torsions:
REMARK  status: ('A' for Active; 'I' for Inactive)
REMARK    1  A    between atoms: C_1  and  C_2
REMARK    2  A    between atoms: C_2  and  C_4
REMARK                            x       y       z     vdW  Elec       q    Type
REMARK                         _______ _______ _______ _____ _____    ______ ____
ROOT
ATOM      1  C   UNL     1       5.706   4.997  18.938  0.00  0.00    +0.000 A 
ATOM      2  N   UNL     1       4.706   5.625  18.340  0.00  0.00    +0.000 NA
ATOM      3  C   UNL     1       3.709   4.691  18.334  0.00  0.00    +0.000 A 
ATOM      4  N   UNL     1       2.461   4.856  17.842  0.00  0.00    +0.000 NA
ATOM      5  C   UNL     1       1.668   3.768  17.997  0.00  0.00    +0.000 A 
ATOM      6  C   UNL     1       2.042   2.562  18.594  0.00  0.00    +0.000 A 
ATOM      7  C   UNL     1       3.338   2.405  19.089  0.00  0.00    +0.000 A 
ATOM      8  C   UNL     1       4.143   3.520  18.932  0.00  0.00    +0.000 A 
ATOM      9  O   UNL     1       5.437   3.701  19.315  0.00  0.00    +0.000 OA
ENDROOT
BRANCH   1  11
ATOM     10  C   UNL     1       7.561   6.497  18.184  0.00  0.00    +0.000 C 
ATOM     11  C   UNL     1       7.007   5.566  19.233  0.00  0.00    +0.000 C 
ATOM     12  O   UNL     1       7.641   5.345  20.266  0.00  0.00    +0.000 OA
ENDBRANCH   1  11
TORSDOF 1
ENDMDL
MODEL 4
REMARK VINA RESULT:      -5.9      1.264      1.264
REMARK  Name = 
REMARK  2 active torsions:
REMARK  status: ('A' for Active; 'I' for Inactive)
REMARK    1  A    between atoms: C_1  and  C_2
REMARK    2  A    between atoms: C_2  and  C_4
REMARK                            x       y       z     vdW  Elec       q    Type
REMARK                         _______ _______ _______ _____ _____    ______ ____
ROOT
ATOM      1  C   UNL     1       5.242   4.778  19.382  0.00  0.00    +0.000 A 
ATOM      2  N   UNL     1       4.979   3.487  19.254  0.00  0.00    +0.000 NA
ATOM      3  C   UNL     1       3.644   3.410  19.533  0.00  0.00    +0.000 A 
ATOM      4  N   UNL     1       2.886   2.291  19.520  0.00  0.00    +0.000 NA
ATOM      5  C   UNL     1       1.581   2.516  19.809  0.00  0.00    +0.000 A 
ATOM      6  C   UNL     1       1.011   3.756  20.106  0.00  0.00    +0.000 A 
ATOM      7  C   UNL     1       1.810   4.900  20.125  0.00  0.00    +0.000 A 
ATOM      8  C   UNL     1       3.141   4.667  19.824  0.00  0.00    +0.000 A 
ATOM      9  O   UNL     1       4.167   5.558  19.742  0.00  0.00    +0.000 OA
ENDROOT
BRANCH   1  11
ATOM     10  C   UNL     1       6.719   6.016  17.786  0.00  0.00    +0.000 C 
ATOM     11  C   UNL     1       6.529   5.405  19.152  0.00  0.00    +0.000 C 
ATOM     12  O   UNL     1       7.427   5.472  19.993  0.00  0.00    +0.000 OA
ENDBRANCH   1  11
TORSDOF 1
ENDMDL
MODEL 5
REMARK VINA RESULT:      -5.8      1.722      2.016
REMARK  Name = 
REMARK  2 active torsions:
REMARK  status: ('A' for Active; 'I' for Inactive)
REMARK    1  A    between atoms: C_1  and  C_2
REMARK    2  A    between atoms: C_2  and  C_4
REMARK                            x       y       z     vdW  Elec       q    Type
REMARK                         _______ _______ _______ _____ _____    ______ ____
ROOT
ATOM      1  C   UNL     1       5.867   4.392  18.081  0.00  0.00    +0.000 A 
ATOM      2  N   UNL     1       4.857   4.511  17.233  0.00  0.00    +0.000 NA
ATOM      3  C   UNL     1       3.810   3.961  17.915  0.00  0.00    +0.000 A 
ATOM      4  N   UNL     1       2.535   3.857  17.476  0.00  0.00    +0.000 NA
ATOM      5  C   UNL     1       1.695   3.293  18.378  0.00  0.00    +0.000 A 
ATOM      6  C   UNL     1       2.047   2.838  19.651  0.00  0.00    +0.000 A 
ATOM      7  C   UNL     1       3.369   2.944  20.084  0.00  0.00    +0.000 A 
ATOM      8  C   UNL     1       4.224   3.525  19.162  0.00  0.00    +0.000 A 
ATOM      9  O   UNL     1       5.554   3.786  19.276  0.00  0.00    +0.000 OA
ENDROOT
BRANCH   1  11
ATOM     10  C   UNL     1       7.652   6.030  18.709  0.00  0.00    +0.000 C 
ATOM     11  C   UNL     1       7.220   4.863  17.856  0.00  0.00    +0.000 C 
ATOM     12  O   UNL     1       8.001   4.362  17.046  0.00  0.00    +0.000 OA
ENDBRANCH   1  11
TORSDOF 1
ENDMDL
MODEL 6
REMARK VINA RESULT:      -5.7      3.641      4.817
REMARK  Name = 
REMARK  2 active torsions:
REMARK  status: ('A' for Active; 'I' for Inactive)
REMARK    1  A    between atoms: C_1  and  C_2
REMARK    2  A    between atoms: C_2  and  C_4
REMARK                            x       y       z     vdW  Elec       q    Type
REMARK                         _______ _______ _______ _____ _____    ______ ____
ROOT
ATOM      1  C   UNL     1       6.850   4.767  14.929  0.00  0.00    +0.000 A 
ATOM      2  N   UNL     1       5.867   4.120  15.536  0.00  0.00    +0.000 NA
ATOM      3  C   UNL     1       6.007   4.494  16.842  0.00  0.00    +0.000 A 
ATOM      4  N   UNL     1       5.221   4.110  17.873  0.00  0.00    +0.000 NA
ATOM      5  C   UNL     1       5.575   4.660  19.060  0.00  0.00    +0.000 A 
ATOM      6  C   UNL     1       6.638   5.542  19.267  0.00  0.00    +0.000 A 
ATOM      7  C   UNL     1       7.445   5.921  18.194  0.00  0.00    +0.000 A 
ATOM      8  C   UNL     1       7.078   5.360  16.983  0.00  0.00    +0.000 A 
ATOM      9  O   UNL     1       7.639   5.534  15.755  0.00  0.00    +0.000 OA
ENDROOT
BRANCH   1  11
ATOM     10  C   UNL     1       6.371   3.703  12.715  0.00  0.00    +0.000 C 
ATOM     11  C   UNL     1       7.125   4.744  13.505  0.00  0.00    +0.000 C 
ATOM     12  O   UNL     1       7.901   5.514  12.937  0.00  0.00    +0.000 OA
ENDBRANCH   1  11
TORSDOF 1
ENDMDL
MODEL 7
REMARK VINA RESULT:      -5.7      1.730      4.570
REMARK  Name = 
REMARK  2 active torsions:
REMARK  status: ('A' for Active; 'I' for Inactive)
REMARK    1  A    between atoms: C_1  and  C_2
REMARK    2  A    between atoms: C_2  and  C_4
REMARK                            x       y       z     vdW  Elec       q    Type
REMARK                         _______ _______ _______ _____ _____    ______ ____
ROOT
ATOM      1  C   UNL     1       4.333   3.876  18.113  0.00  0.00    +0.000 A 
ATOM      2  N   UNL     1       5.233   3.835  19.083  0.00  0.00    +0.000 NA
ATOM      3  C   UNL     1       6.097   4.839  18.750  0.00  0.00    +0.000 A 
ATOM      4  N   UNL     1       7.193   5.216  19.447  0.00  0.00    +0.000 NA
ATOM      5  C   UNL     1       7.851   6.266  18.898  0.00  0.00    +0.000 A 
ATOM      6  C   UNL     1       7.489   6.937  17.728  0.00  0.00    +0.000 A 
ATOM      7  C   UNL     1       6.360   6.529  17.015  0.00  0.00    +0.000 A 
ATOM      8  C   UNL     1       5.688   5.459  17.582  0.00  0.00    +0.000 A 
ATOM      9  O   UNL     1       4.556   4.837  17.153  0.00  0.00    +0.000 OA
ENDROOT
BRANCH   1  11
ATOM     10  C   UNL     1       1.851   3.755  17.825  0.00  0.00    +0.000 C 
ATOM     11  C   UNL     1       3.161   3.029  18.011  0.00  0.00    +0.000 C 
ATOM     12  O   UNL     1       3.190   1.799  18.051  0.00  0.00    +0.000 OA
ENDBRANCH   1  11
TORSDOF 1
ENDMDL
MODEL 8
REMARK VINA RESULT:      -5.7      1.741      4.613
REMARK  Name = 
REMARK  2 active torsions:
REMARK  status: ('A' for Active; 'I' for Inactive)
REMARK    1  A    between atoms: C_1  and  C_2
REMARK    2  A    between atoms: C_2  and  C_4
REMARK                            x       y       z     vdW  Elec       q    Type
REMARK                         _______ _______ _______ _____ _____    ______ ____
ROOT
ATOM      1  C   UNL     1       3.464   4.704  18.463  0.00  0.00    +0.000 A 
ATOM      2  N   UNL     1       4.357   4.412  19.395  0.00  0.00    +0.000 NA
ATOM      3  C   UNL     1       5.467   5.097  18.989  0.00  0.00    +0.000 A 
ATOM      4  N   UNL     1       6.660   5.136  19.624  0.00  0.00    +0.000 NA
ATOM      5  C   UNL     1       7.577   5.923  19.009  0.00  0.00    +0.000 A 
ATOM      6  C   UNL     1       7.375   6.645  17.831  0.00  0.00    +0.000 A 
ATOM      7  C   UNL     1       6.141   6.586  17.182  0.00  0.00    +0.000 A 
ATOM      8  C   UNL     1       5.206   5.785  17.816  0.00  0.00    +0.000 A 
ATOM      9  O   UNL     1       3.918   5.529  17.459  0.00  0.00    +0.000 OA
ENDROOT
BRANCH   1  11
ATOM     10  C   UNL     1       1.430   4.106  19.793  0.00  0.00    +0.000 C 
ATOM     11  C   UNL     1       2.085   4.253  18.442  0.00  0.00    +0.000 C 
ATOM     12  O   UNL     1       1.452   4.012  17.414  0.00  0.00    +0.000 OA
ENDBRANCH   1  11
TORSDOF 1
ENDMDL
MODEL 9
REMARK VINA RESULT:      -5.7      2.345      4.599
REMARK  Name = 
REMARK  2 active torsions:
REMARK  status: ('A' for Active; 'I' for Inactive)
REMARK    1  A    between atoms: C_1  and  C_2
REMARK    2  A    between atoms: C_2  and  C_4
REMARK                            x       y       z     vdW  Elec       q    Type
REMARK                         _______ _______ _______ _____ _____    ______ ____
ROOT
ATOM      1  C   UNL     1       3.066   3.644  18.532  0.00  0.00    +0.000 A 
ATOM      2  N   UNL     1       4.062   3.968  19.342  0.00  0.00    +0.000 NA
ATOM      3  C   UNL     1       5.110   4.158  18.487  0.00  0.00    +0.000 A 
ATOM      4  N   UNL     1       6.366   4.525  18.830  0.00  0.00    +0.000 NA
ATOM      5  C   UNL     1       7.197   4.669  17.769  0.00  0.00    +0.000 A 
ATOM      6  C   UNL     1       6.856   4.470  16.430  0.00  0.00    +0.000 A 
ATOM      7  C   UNL     1       5.558   4.082  16.094  0.00  0.00    +0.000 A 
ATOM      8  C   UNL     1       4.710   3.941  17.180  0.00  0.00    +0.000 A 
ATOM      9  O   UNL     1       3.394   3.595  17.197  0.00  0.00    +0.000 OA
ENDROOT
BRANCH   1  11
ATOM     10  C   UNL     1       1.338   3.817  20.334  0.00  0.00    +0.000 C 
ATOM     11  C   UNL     1       1.700   3.373  18.938  0.00  0.00    +0.000 C 
ATOM     12  O   UNL     1       0.858   2.836  18.218  0.00  0.00    +0.000 OA
ENDBRANCH   1  11
TORSDOF 1
ENDMDL
