MODEL 1
REMARK VINA RESULT:      -7.1      0.000      0.000
REMARK  Name = 
REMARK  6 active torsions:
REMARK  status: ('A' for Active; 'I' for Inactive)
REMARK    1  A    between atoms: C_1  and  C_2
REMARK    2  A    between atoms: C_8  and  C_10
REMARK    3  A    between atoms: C_10  and  C_11
REMARK    4  A    between atoms: C_10  and  N_12
REMARK    5  A    between atoms: C_13  and  C_14
REMARK    6  A    between atoms: C_14  and  C_15
REMARK                            x       y       z     vdW  Elec       q    Type
REMARK                         _______ _______ _______ _____ _____    ______ ____
ROOT
ATOM      1  N   UNL     1      -0.897  12.292  21.087  0.00  0.00    +0.000 N 
ATOM      2  C   UNL     1      -0.820  12.375  22.478  0.00  0.00    +0.000 A 
ATOM      3  N   UNL     1      -0.439  11.208  22.976  0.00  0.00    +0.000 NA
ATOM      4  C   UNL     1       0.008  10.464  21.929  0.00  0.00    +0.000 A 
ATOM      5  C   UNL     1       0.588   9.183  21.932  0.00  0.00    +0.000 A 
ATOM      6  C   UNL     1       1.057   8.644  20.729  0.00  0.00    +0.000 A 
ATOM      7 CL   UNL     1       1.720   7.046  20.766  0.00  0.00    +0.000 Cl
ATOM      8  C   UNL     1       0.996   9.391  19.553  0.00  0.00    +0.000 A 
ATOM      9 CL   UNL     1       1.605   8.802  18.044  0.00  0.00    +0.000 Cl
ATOM     10  C   UNL     1       0.416  10.668  19.546  0.00  0.00    +0.000 A 
ATOM     11  C   UNL     1      -0.139  11.168  20.737  0.00  0.00    +0.000 A 
ENDROOT
BRANCH   1  12
ATOM     12  C   UNL     1      -1.556  13.220  20.143  0.00  0.00    +0.000 C 
ATOM     13  C   UNL     1      -3.079  13.382  20.315  0.00  0.00    +0.000 C 
BRANCH  12  21
ATOM     14  C   UNL     1       4.728  14.949  17.948  0.00  0.00    +0.000 C 
ATOM     15  C   UNL     1       3.929  15.926  18.771  0.00  0.00    +0.000 C 
ATOM     16  O   UNL     1       4.192  17.127  18.729  0.00  0.00    +0.000 OA
ATOM     17  N   UNL     1       2.889  15.415  19.534  0.00  0.00    +0.000 N 
ATOM     18  C   UNL     1       1.959  16.358  20.176  0.00  0.00    +0.000 C 
ATOM     19  C   UNL     1       0.630  16.390  19.394  0.00  0.00    +0.000 C 
ATOM     20  N   UNL     1       0.080  15.013  19.240  0.00  0.00    +0.000 N 
ATOM     21  C   UNL     1      -1.041  14.663  19.973  0.00  0.00    +0.000 C 
ATOM     22  O   UNL     1      -1.585  15.525  20.681  0.00  0.00    +0.000 OA
ATOM     23  C   UNL     1       1.027  14.093  18.603  0.00  0.00    +0.000 C 
ATOM     24  C   UNL     1       2.346  14.056  19.396  0.00  0.00    +0.000 C 
ENDBRANCH  12  21
ENDBRANCH   1  12
BRANCH   2  25
ATOM     25  C   UNL     1      -1.191  13.538  23.357  0.00  0.00    +0.000 C 
BRANCH  25  26
ATOM     26  C   UNL     1      -2.673  13.682  23.697  0.00  0.00    +0.000 A 
ATOM     27  C   UNL     1      -3.501  12.537  23.753  0.00  0.00    +0.000 A 
ATOM     28  C   UNL     1      -4.901  12.646  23.846  0.00  0.00    +0.000 A 
ATOM     29  C   UNL     1      -5.505  13.895  23.881  0.00  0.00    +0.000 A 
ATOM     30  C   UNL     1      -4.713  15.037  23.858  0.00  0.00    +0.000 A 
ATOM     31  C   UNL     1      -3.307  14.934  23.780  0.00  0.00    +0.000 A 
ATOM     32 CL   UNL     1      -2.421  16.417  23.768  0.00  0.00    +0.000 Cl
ENDBRANCH  25  26
ENDBRANCH   2  25
TORSDOF 4
ENDMDL
MODEL 2
REMARK VINA RESULT:      -7.0      3.451      6.101
REMARK  Name = 
REMARK  6 active torsions:
REMARK  status: ('A' for Active; 'I' for Inactive)
REMARK    1  A    between atoms: C_1  and  C_2
REMARK    2  A    between atoms: C_8  and  C_10
REMARK    3  A    between atoms: C_10  and  C_11
REMARK    4  A    between atoms: C_10  and  N_12
REMARK    5  A    between atoms: C_13  and  C_14
REMARK    6  A    between atoms: C_14  and  C_15
REMARK                            x       y       z     vdW  Elec       q    Type
REMARK                         _______ _______ _______ _____ _____    ______ ____
ROOT
ATOM      1  N   UNL     1       0.027   9.841  20.369  0.00  0.00    +0.000 N 
ATOM      2  C   UNL     1      -0.228  10.440  19.135  0.00  0.00    +0.000 A 
ATOM      3  N   UNL     1       0.645  10.008  18.237  0.00  0.00    +0.000 NA
ATOM      4  C   UNL     1       1.270   8.933  18.788  0.00  0.00    +0.000 A 
ATOM      5  C   UNL     1       2.226   8.073  18.219  0.00  0.00    +0.000 A 
ATOM      6  C   UNL     1       2.672   6.968  18.952  0.00  0.00    +0.000 A 
ATOM      7 CL   UNL     1       3.883   5.961  18.236  0.00  0.00    +0.000 Cl
ATOM      8  C   UNL     1       2.136   6.698  20.211  0.00  0.00    +0.000 A 
ATOM      9 CL   UNL     1       2.608   5.320  21.147  0.00  0.00    +0.000 Cl
ATOM     10  C   UNL     1       1.185   7.555  20.783  0.00  0.00    +0.000 A 
ATOM     11  C   UNL     1       0.809   8.715  20.083  0.00  0.00    +0.000 A 
ENDROOT
BRANCH   1  12
ATOM     12  C   UNL     1      -0.472  10.231  21.705  0.00  0.00    +0.000 C 
ATOM     13  C   UNL     1       0.007   9.358  22.881  0.00  0.00    +0.000 C 
BRANCH  12  21
ATOM     14  C   UNL     1      -5.579  14.278  23.905  0.00  0.00    +0.000 C 
ATOM     15  C   UNL     1      -4.296  14.895  23.413  0.00  0.00    +0.000 C 
ATOM     16  O   UNL     1      -3.992  16.038  23.752  0.00  0.00    +0.000 OA
ATOM     17  N   UNL     1      -3.482  14.114  22.605  0.00  0.00    +0.000 N 
ATOM     18  C   UNL     1      -2.131  14.604  22.287  0.00  0.00    +0.000 C 
ATOM     19  C   UNL     1      -1.090  13.835  23.127  0.00  0.00    +0.000 C 
ATOM     20  N   UNL     1      -1.256  12.364  22.948  0.00  0.00    +0.000 N 
ATOM     21  C   UNL     1      -0.303  11.676  22.215  0.00  0.00    +0.000 C 
ATOM     22  O   UNL     1       0.685  12.294  21.790  0.00  0.00    +0.000 OA
ATOM     23  C   UNL     1      -2.611  11.904  23.266  0.00  0.00    +0.000 C 
ATOM     24  C   UNL     1      -3.643  12.666  22.416  0.00  0.00    +0.000 C 
ENDBRANCH  12  21
ENDBRANCH   1  12
BRANCH   2  25
ATOM     25  C   UNL     1      -1.249  11.497  18.814  0.00  0.00    +0.000 C 
BRANCH  25  26
ATOM     26  C   UNL     1      -2.324  11.113  17.800  0.00  0.00    +0.000 A 
ATOM     27  C   UNL     1      -1.970  10.404  16.629  0.00  0.00    +0.000 A 
ATOM     28  C   UNL     1      -2.884  10.223  15.574  0.00  0.00    +0.000 A 
ATOM     29  C   UNL     1      -4.165  10.747  15.661  0.00  0.00    +0.000 A 
ATOM     30  C   UNL     1      -4.550  11.423  16.814  0.00  0.00    +0.000 A 
ATOM     31  C   UNL     1      -3.642  11.594  17.881  0.00  0.00    +0.000 A 
ATOM     32 CL   UNL     1      -4.229  12.440  19.269  0.00  0.00    +0.000 Cl
ENDBRANCH  25  26
ENDBRANCH   2  25
TORSDOF 4
ENDMDL
MODEL 3
REMARK VINA RESULT:      -6.9      0.982      1.035
REMARK  Name = 
REMARK  6 active torsions:
REMARK  status: ('A' for Active; 'I' for Inactive)
REMARK    1  A    between atoms: C_1  and  C_2
REMARK    2  A    between atoms: C_8  and  C_10
REMARK    3  A    between atoms: C_10  and  C_11
REMARK    4  A    between atoms: C_10  and  N_12
REMARK    5  A    between atoms: C_13  and  C_14
REMARK    6  A    between atoms: C_14  and  C_15
REMARK                            x       y       z     vdW  Elec       q    Type
REMARK                         _______ _______ _______ _____ _____    ______ ____
ROOT
ATOM      1  N   UNL     1      -0.228  11.801  20.390  0.00  0.00    +0.000 N 
ATOM      2  C   UNL     1      -0.177  12.009  21.769  0.00  0.00    +0.000 A 
ATOM      3  N   UNL     1       0.142  10.879  22.382  0.00  0.00    +0.000 NA
ATOM      4  C   UNL     1       0.579  10.024  21.419  0.00  0.00    +0.000 A 
ATOM      5  C   UNL     1       1.102   8.726  21.555  0.00  0.00    +0.000 A 
ATOM      6  C   UNL     1       1.573   8.057  20.419  0.00  0.00    +0.000 A 
ATOM      7 CL   UNL     1       2.165   6.444  20.621  0.00  0.00    +0.000 Cl
ATOM      8  C   UNL     1       1.569   8.694  19.178  0.00  0.00    +0.000 A 
ATOM      9 CL   UNL     1       2.184   7.941  17.746  0.00  0.00    +0.000 Cl
ATOM     10  C   UNL     1       1.045   9.987  19.039  0.00  0.00    +0.000 A 
ATOM     11  C   UNL     1       0.488  10.618  20.165  0.00  0.00    +0.000 A 
ENDROOT
BRANCH   1  12
ATOM     12  C   UNL     1      -0.826  12.663  19.348  0.00  0.00    +0.000 C 
ATOM     13  C   UNL     1      -2.366  12.686  19.300  0.00  0.00    +0.000 C 
BRANCH  12  21
ATOM     14  C   UNL     1       5.530  14.951  18.058  0.00  0.00    +0.000 C 
ATOM     15  C   UNL     1       4.535  15.853  18.741  0.00  0.00    +0.000 C 
ATOM     16  O   UNL     1       4.692  17.074  18.717  0.00  0.00    +0.000 OA
ATOM     17  N   UNL     1       3.445  15.252  19.353  0.00  0.00    +0.000 N 
ATOM     18  C   UNL     1       2.351  16.109  19.839  0.00  0.00    +0.000 C 
ATOM     19  C   UNL     1       1.153  16.017  18.872  0.00  0.00    +0.000 C 
ATOM     20  N   UNL     1       0.757  14.595  18.662  0.00  0.00    +0.000 N 
ATOM     21  C   UNL     1      -0.423  14.147  19.231  0.00  0.00    +0.000 C 
ATOM     22  O   UNL     1      -1.139  14.957  19.839  0.00  0.00    +0.000 OA
ATOM     23  C   UNL     1       1.865  13.763  18.184  0.00  0.00    +0.000 C 
ATOM     24  C   UNL     1       3.053  13.849  19.160  0.00  0.00    +0.000 C 
ENDBRANCH  12  21
ENDBRANCH   1  12
BRANCH   2  25
ATOM     25  C   UNL     1      -0.516  13.264  22.527  0.00  0.00    +0.000 C 
BRANCH  25  26
ATOM     26  C   UNL     1      -1.886  13.297  23.201  0.00  0.00    +0.000 A 
ATOM     27  C   UNL     1      -2.914  12.432  22.758  0.00  0.00    +0.000 A 
ATOM     28  C   UNL     1      -4.241  12.581  23.200  0.00  0.00    +0.000 A 
ATOM     29  C   UNL     1      -4.574  13.594  24.088  0.00  0.00    +0.000 A 
ATOM     30  C   UNL     1      -3.578  14.439  24.564  0.00  0.00    +0.000 A 
ATOM     31  C   UNL     1      -2.241  14.285  24.136  0.00  0.00    +0.000 A 
ATOM     32 CL   UNL     1      -1.084  15.384  24.797  0.00  0.00    +0.000 Cl
ENDBRANCH  25  26
ENDBRANCH   2  25
TORSDOF 4
ENDMDL
MODEL 4
REMARK VINA RESULT:      -6.8      2.644      3.880
REMARK  Name = 
REMARK  6 active torsions:
REMARK  status: ('A' for Active; 'I' for Inactive)
REMARK    1  A    between atoms: C_1  and  C_2
REMARK    2  A    between atoms: C_8  and  C_10
REMARK    3  A    between atoms: C_10  and  C_11
REMARK    4  A    between atoms: C_10  and  N_12
REMARK    5  A    between atoms: C_13  and  C_14
REMARK    6  A    between atoms: C_14  and  C_15
REMARK                            x       y       z     vdW  Elec       q    Type
REMARK                         _______ _______ _______ _____ _____    ______ ____
ROOT
ATOM      1  N   UNL     1      -2.174  12.505  20.950  0.00  0.00    +0.000 N 
ATOM      2  C   UNL     1      -2.939  12.440  19.785  0.00  0.00    +0.000 A 
ATOM      3  N   UNL     1      -2.288  11.751  18.859  0.00  0.00    +0.000 NA
ATOM      4  C   UNL     1      -1.256  11.130  19.490  0.00  0.00    +0.000 A 
ATOM      5  C   UNL     1      -0.313  10.224  18.971  0.00  0.00    +0.000 A 
ATOM      6  C   UNL     1       0.618   9.638  19.836  0.00  0.00    +0.000 A 
ATOM      7 CL   UNL     1       1.790   8.566  19.151  0.00  0.00    +0.000 Cl
ATOM      8  C   UNL     1       0.575   9.911  21.202  0.00  0.00    +0.000 A 
ATOM      9 CL   UNL     1       1.665   9.180  22.331  0.00  0.00    +0.000 Cl
ATOM     10  C   UNL     1      -0.361  10.816  21.723  0.00  0.00    +0.000 A 
ATOM     11  C   UNL     1      -1.233  11.474  20.838  0.00  0.00    +0.000 A 
ENDROOT
BRANCH   1  12
ATOM     12  C   UNL     1      -2.342  13.400  22.115  0.00  0.00    +0.000 C 
ATOM     13  C   UNL     1      -2.696  12.709  23.446  0.00  0.00    +0.000 C 
BRANCH  12  21
ATOM     14  C   UNL     1       0.711  17.762  17.761  0.00  0.00    +0.000 C 
ATOM     15  C   UNL     1       1.409  17.367  19.037  0.00  0.00    +0.000 C 
ATOM     16  O   UNL     1       2.299  18.081  19.498  0.00  0.00    +0.000 OA
ATOM     17  N   UNL     1       0.984  16.204  19.662  0.00  0.00    +0.000 N 
ATOM     18  C   UNL     1       1.493  15.906  21.011  0.00  0.00    +0.000 C 
ATOM     19  C   UNL     1       0.398  16.207  22.056  0.00  0.00    +0.000 C 
ATOM     20  N   UNL     1      -0.863  15.488  21.714  0.00  0.00    +0.000 N 
ATOM     21  C   UNL     1      -1.240  14.409  22.496  0.00  0.00    +0.000 C 
ATOM     22  O   UNL     1      -0.553  14.119  23.487  0.00  0.00    +0.000 OA
ATOM     23  C   UNL     1      -1.344  15.798  20.365  0.00  0.00    +0.000 C 
ATOM     24  C   UNL     1      -0.251  15.484  19.327  0.00  0.00    +0.000 C 
ENDBRANCH  12  21
ENDBRANCH   1  12
BRANCH   2  25
ATOM     25  C   UNL     1      -4.260  13.104  19.507  0.00  0.00    +0.000 C 
BRANCH  25  26
ATOM     26  C   UNL     1      -5.504  12.239  19.694  0.00  0.00    +0.000 A 
ATOM     27  C   UNL     1      -6.205  12.263  20.923  0.00  0.00    +0.000 A 
ATOM     28  C   UNL     1      -7.217  11.329  21.210  0.00  0.00    +0.000 A 
ATOM     29  C   UNL     1      -7.549  10.350  20.285  0.00  0.00    +0.000 A 
ATOM     30  C   UNL     1      -6.898  10.322  19.057  0.00  0.00    +0.000 A 
ATOM     31  C   UNL     1      -5.893  11.266  18.756  0.00  0.00    +0.000 A 
ATOM     32 CL   UNL     1      -5.156  11.145  17.198  0.00  0.00    +0.000 Cl
ENDBRANCH  25  26
ENDBRANCH   2  25
TORSDOF 4
ENDMDL
MODEL 5
REMARK VINA RESULT:      -6.8      2.309      3.396
REMARK  Name = 
REMARK  6 active torsions:
REMARK  status: ('A' for Active; 'I' for Inactive)
REMARK    1  A    between atoms: C_1  and  C_2
REMARK    2  A    between atoms: C_8  and  C_10
REMARK    3  A    between atoms: C_10  and  C_11
REMARK    4  A    between atoms: C_10  and  N_12
REMARK    5  A    between atoms: C_13  and  C_14
REMARK    6  A    between atoms: C_14  and  C_15
REMARK                            x       y       z     vdW  Elec       q    Type
REMARK                         _______ _______ _______ _____ _____    ______ ____
ROOT
ATOM      1  N   UNL     1      -2.158  12.251  20.608  0.00  0.00    +0.000 N 
ATOM      2  C   UNL     1      -3.070  12.333  19.555  0.00  0.00    +0.000 A 
ATOM      3  N   UNL     1      -2.547  11.790  18.465  0.00  0.00    +0.000 NA
ATOM      4  C   UNL     1      -1.441  11.105  18.864  0.00  0.00    +0.000 A 
ATOM      5  C   UNL     1      -0.576  10.296  18.106  0.00  0.00    +0.000 A 
ATOM      6  C   UNL     1       0.459   9.612  18.752  0.00  0.00    +0.000 A 
ATOM      7 CL   UNL     1       1.530   8.665  17.779  0.00  0.00    +0.000 Cl
ATOM      8  C   UNL     1       0.597   9.694  20.138  0.00  0.00    +0.000 A 
ATOM      9 CL   UNL     1       1.825   8.833  21.002  0.00  0.00    +0.000 Cl
ATOM     10  C   UNL     1      -0.262  10.503  20.896  0.00  0.00    +0.000 A 
ATOM     11  C   UNL     1      -1.242  11.261  20.232  0.00  0.00    +0.000 A 
ENDROOT
BRANCH   1  12
ATOM     12  C   UNL     1      -2.171  12.974  21.898  0.00  0.00    +0.000 C 
ATOM     13  C   UNL     1      -2.437  12.112  23.147  0.00  0.00    +0.000 C 
BRANCH  12  21
ATOM     14  C   UNL     1       0.811  17.674  17.858  0.00  0.00    +0.000 C 
ATOM     15  C   UNL     1       1.575  17.093  19.019  0.00  0.00    +0.000 C 
ATOM     16  O   UNL     1       2.538  17.700  19.489  0.00  0.00    +0.000 OA
ATOM     17  N   UNL     1       1.129  15.885  19.535  0.00  0.00    +0.000 N 
ATOM     18  C   UNL     1       1.716  15.400  20.796  0.00  0.00    +0.000 C 
ATOM     19  C   UNL     1       0.719  15.626  21.952  0.00  0.00    +0.000 C 
ATOM     20  N   UNL     1      -0.603  15.018  21.629  0.00  0.00    +0.000 N 
ATOM     21  C   UNL     1      -0.986  13.873  22.306  0.00  0.00    +0.000 C 
ATOM     22  O   UNL     1      -0.247  13.430  23.199  0.00  0.00    +0.000 OA
ATOM     23  C   UNL     1      -1.162  15.514  20.368  0.00  0.00    +0.000 C 
ATOM     24  C   UNL     1      -0.168  15.273  19.217  0.00  0.00    +0.000 C 
ENDBRANCH  12  21
ENDBRANCH   1  12
BRANCH   2  25
ATOM     25  C   UNL     1      -4.415  13.007  19.547  0.00  0.00    +0.000 C 
BRANCH  25  26
ATOM     26  C   UNL     1      -5.539  12.280  20.282  0.00  0.00    +0.000 A 
ATOM     27  C   UNL     1      -6.159  11.155  19.691  0.00  0.00    +0.000 A 
ATOM     28  C   UNL     1      -7.333  10.595  20.229  0.00  0.00    +0.000 A 
ATOM     29  C   UNL     1      -7.915  11.145  21.362  0.00  0.00    +0.000 A 
ATOM     30  C   UNL     1      -7.310  12.233  21.981  0.00  0.00    +0.000 A 
ATOM     31  C   UNL     1      -6.124  12.789  21.454  0.00  0.00    +0.000 A 
ATOM     32 CL   UNL     1      -5.453  14.133  22.309  0.00  0.00    +0.000 Cl
ENDBRANCH  25  26
ENDBRANCH   2  25
TORSDOF 4
ENDMDL
MODEL 6
REMARK VINA RESULT:      -6.8      4.867      7.912
REMARK  Name = 
REMARK  6 active torsions:
REMARK  status: ('A' for Active; 'I' for Inactive)
REMARK    1  A    between atoms: C_1  and  C_2
REMARK    2  A    between atoms: C_8  and  C_10
REMARK    3  A    between atoms: C_10  and  C_11
REMARK    4  A    between atoms: C_10  and  N_12
REMARK    5  A    between atoms: C_13  and  C_14
REMARK    6  A    between atoms: C_14  and  C_15
REMARK                            x       y       z     vdW  Elec       q    Type
REMARK                         _______ _______ _______ _____ _____    ______ ____
ROOT
ATOM      1  N   UNL     1       0.626  10.764  18.879  0.00  0.00    +0.000 N 
ATOM      2  C   UNL     1      -0.698  11.074  19.191  0.00  0.00    +0.000 A 
ATOM      3  N   UNL     1      -0.765  12.296  19.699  0.00  0.00    +0.000 NA
ATOM      4  C   UNL     1       0.436  12.885  19.455  0.00  0.00    +0.000 A 
ATOM      5  C   UNL     1       0.852  14.201  19.725  0.00  0.00    +0.000 A 
ATOM      6  C   UNL     1       2.119  14.617  19.304  0.00  0.00    +0.000 A 
ATOM      7 CL   UNL     1       2.611  16.228  19.697  0.00  0.00    +0.000 Cl
ATOM      8  C   UNL     1       2.937  13.750  18.580  0.00  0.00    +0.000 A 
ATOM      9 CL   UNL     1       4.495  14.219  17.987  0.00  0.00    +0.000 Cl
ATOM     10  C   UNL     1       2.528  12.436  18.312  0.00  0.00    +0.000 A 
ATOM     11  C   UNL     1       1.293  11.993  18.818  0.00  0.00    +0.000 A 
ENDROOT
BRANCH   1  12
ATOM     12  C   UNL     1       1.219   9.441  18.586  0.00  0.00    +0.000 C 
ATOM     13  C   UNL     1       2.466   9.452  17.680  0.00  0.00    +0.000 C 
BRANCH  12  21
ATOM     14  C   UNL     1       3.187   2.902  17.769  0.00  0.00    +0.000 C 
ATOM     15  C   UNL     1       2.606   3.349  19.086  0.00  0.00    +0.000 C 
ATOM     16  O   UNL     1       2.833   2.705  20.110  0.00  0.00    +0.000 OA
ATOM     17  N   UNL     1       1.850   4.512  19.086  0.00  0.00    +0.000 N 
ATOM     18  C   UNL     1       1.451   5.090  20.380  0.00  0.00    +0.000 C 
ATOM     19  C   UNL     1       2.327   6.321  20.690  0.00  0.00    +0.000 C 
ATOM     20  N   UNL     1       2.286   7.291  19.558  0.00  0.00    +0.000 N 
ATOM     21  C   UNL     1       1.592   8.477  19.729  0.00  0.00    +0.000 C 
ATOM     22  O   UNL     1       1.086   8.719  20.836  0.00  0.00    +0.000 OA
ATOM     23  C   UNL     1       2.682   6.689  18.281  0.00  0.00    +0.000 C 
ATOM     24  C   UNL     1       1.795   5.469  17.973  0.00  0.00    +0.000 C 
ENDBRANCH  12  21
ENDBRANCH   1  12
BRANCH   2  25
ATOM     25  C   UNL     1      -1.905  10.182  19.090  0.00  0.00    +0.000 C 
BRANCH  25  26
ATOM     26  C   UNL     1      -2.707  10.272  17.794  0.00  0.00    +0.000 A 
ATOM     27  C   UNL     1      -2.229   9.642  16.621  0.00  0.00    +0.000 A 
ATOM     28  C   UNL     1      -2.818   9.880  15.366  0.00  0.00    +0.000 A 
ATOM     29  C   UNL     1      -3.891  10.753  15.251  0.00  0.00    +0.000 A 
ATOM     30  C   UNL     1      -4.401  11.362  16.391  0.00  0.00    +0.000 A 
ATOM     31  C   UNL     1      -3.823  11.115  17.656  0.00  0.00    +0.000 A 
ATOM     32 CL   UNL     1      -4.542  11.918  19.006  0.00  0.00    +0.000 Cl
ENDBRANCH  25  26
ENDBRANCH   2  25
TORSDOF 4
ENDMDL
MODEL 7
REMARK VINA RESULT:      -6.7      2.731      5.886
REMARK  Name = 
REMARK  6 active torsions:
REMARK  status: ('A' for Active; 'I' for Inactive)
REMARK    1  A    between atoms: C_1  and  C_2
REMARK    2  A    between atoms: C_8  and  C_10
REMARK    3  A    between atoms: C_10  and  C_11
REMARK    4  A    between atoms: C_10  and  N_12
REMARK    5  A    between atoms: C_13  and  C_14
REMARK    6  A    between atoms: C_14  and  C_15
REMARK                            x       y       z     vdW  Elec       q    Type
REMARK                         _______ _______ _______ _____ _____    ______ ____
ROOT
ATOM      1  N   UNL     1      -1.948  12.881  20.714  0.00  0.00    +0.000 N 
ATOM      2  C   UNL     1      -1.120  12.207  19.816  0.00  0.00    +0.000 A 
ATOM      3  N   UNL     1      -1.853  11.453  19.010  0.00  0.00    +0.000 NA
ATOM      4  C   UNL     1      -3.144  11.844  19.178  0.00  0.00    +0.000 A 
ATOM      5  C   UNL     1      -4.299  11.410  18.504  0.00  0.00    +0.000 A 
ATOM      6  C   UNL     1      -5.525  12.023  18.785  0.00  0.00    +0.000 A 
ATOM      7 CL   UNL     1      -6.930  11.428  17.970  0.00  0.00    +0.000 Cl
ATOM      8  C   UNL     1      -5.588  13.085  19.686  0.00  0.00    +0.000 A 
ATOM      9 CL   UNL     1      -7.064  13.918  20.040  0.00  0.00    +0.000 Cl
ATOM     10  C   UNL     1      -4.439  13.519  20.363  0.00  0.00    +0.000 A 
ATOM     11  C   UNL     1      -3.227  12.839  20.147  0.00  0.00    +0.000 A 
ENDROOT
BRANCH   1  12
ATOM     12  C   UNL     1      -1.577  13.579  21.965  0.00  0.00    +0.000 C 
ATOM     13  C   UNL     1      -1.314  12.674  23.184  0.00  0.00    +0.000 C 
BRANCH  12  21
ATOM     14  C   UNL     1      -0.250  18.200  17.048  0.00  0.00    +0.000 C 
ATOM     15  C   UNL     1       0.853  17.756  17.974  0.00  0.00    +0.000 C 
ATOM     16  O   UNL     1       1.849  18.463  18.129  0.00  0.00    +0.000 OA
ATOM     17  N   UNL     1       0.675  16.557  18.648  0.00  0.00    +0.000 N 
ATOM     18  C   UNL     1       1.625  16.203  19.715  0.00  0.00    +0.000 C 
ATOM     19  C   UNL     1       0.968  16.433  21.092  0.00  0.00    +0.000 C 
ATOM     20  N   UNL     1      -0.332  15.709  21.178  0.00  0.00    +0.000 N 
ATOM     21  C   UNL     1      -0.411  14.587  21.985  0.00  0.00    +0.000 C 
ATOM     22  O   UNL     1       0.581  14.261  22.656  0.00  0.00    +0.000 OA
ATOM     23  C   UNL     1      -1.258  16.076  20.102  0.00  0.00    +0.000 C 
ATOM     24  C   UNL     1      -0.600  15.832  18.732  0.00  0.00    +0.000 C 
ENDBRANCH  12  21
ENDBRANCH   1  12
BRANCH   2  25
ATOM     25  C   UNL     1       0.384  12.204  19.768  0.00  0.00    +0.000 C 
BRANCH  25  26
ATOM     26  C   UNL     1       1.048  10.857  19.490  0.00  0.00    +0.000 A 
ATOM     27  C   UNL     1       1.586  10.585  18.210  0.00  0.00    +0.000 A 
ATOM     28  C   UNL     1       2.007   9.291  17.850  0.00  0.00    +0.000 A 
ATOM     29  C   UNL     1       1.898   8.243  18.753  0.00  0.00    +0.000 A 
ATOM     30  C   UNL     1       1.402   8.489  20.028  0.00  0.00    +0.000 A 
ATOM     31  C   UNL     1       0.992   9.788  20.400  0.00  0.00    +0.000 A 
ATOM     32 CL   UNL     1       0.399   9.981  22.011  0.00  0.00    +0.000 Cl
ENDBRANCH  25  26
ENDBRANCH   2  25
TORSDOF 4
ENDMDL
MODEL 8
REMARK VINA RESULT:      -6.7      2.583      3.847
REMARK  Name = 
REMARK  6 active torsions:
REMARK  status: ('A' for Active; 'I' for Inactive)
REMARK    1  A    between atoms: C_1  and  C_2
REMARK    2  A    between atoms: C_8  and  C_10
REMARK    3  A    between atoms: C_10  and  C_11
REMARK    4  A    between atoms: C_10  and  N_12
REMARK    5  A    between atoms: C_13  and  C_14
REMARK    6  A    between atoms: C_14  and  C_15
REMARK                            x       y       z     vdW  Elec       q    Type
REMARK                         _______ _______ _______ _____ _____    ______ ____
ROOT
ATOM      1  N   UNL     1      -0.869  11.676  20.660  0.00  0.00    +0.000 N 
ATOM      2  C   UNL     1      -1.650  12.287  21.641  0.00  0.00    +0.000 A 
ATOM      3  N   UNL     1      -2.776  12.734  21.104  0.00  0.00    +0.000 NA
ATOM      4  C   UNL     1      -2.867  12.173  19.868  0.00  0.00    +0.000 A 
ATOM      5  C   UNL     1      -3.905  12.267  18.924  0.00  0.00    +0.000 A 
ATOM      6  C   UNL     1      -3.820  11.526  17.741  0.00  0.00    +0.000 A 
ATOM      7 CL   UNL     1      -5.094  11.704  16.584  0.00  0.00    +0.000 Cl
ATOM      8  C   UNL     1      -2.741  10.667  17.526  0.00  0.00    +0.000 A 
ATOM      9 CL   UNL     1      -2.603   9.686  16.106  0.00  0.00    +0.000 Cl
ATOM     10  C   UNL     1      -1.703  10.574  18.463  0.00  0.00    +0.000 A 
ATOM     11  C   UNL     1      -1.747  11.390  19.608  0.00  0.00    +0.000 A 
ENDROOT
BRANCH   1  12
ATOM     12  C   UNL     1       0.564  11.312  20.716  0.00  0.00    +0.000 C 
ATOM     13  C   UNL     1       0.876   9.806  20.620  0.00  0.00    +0.000 C 
BRANCH  12  21
ATOM     14  C   UNL     1       2.564  17.886  20.977  0.00  0.00    +0.000 C 
ATOM     15  C   UNL     1       2.696  17.116  19.689  0.00  0.00    +0.000 C 
ATOM     16  O   UNL     1       3.488  17.491  18.824  0.00  0.00    +0.000 OA
ATOM     17  N   UNL     1       1.920  15.974  19.548  0.00  0.00    +0.000 N 
ATOM     18  C   UNL     1       2.179  15.086  18.403  0.00  0.00    +0.000 C 
ATOM     19  C   UNL     1       2.943  13.834  18.881  0.00  0.00    +0.000 C 
ATOM     20  N   UNL     1       2.216  13.174  20.004  0.00  0.00    +0.000 N 
ATOM     21  C   UNL     1       1.579  11.970  19.760  0.00  0.00    +0.000 C 
ATOM     22  O   UNL     1       1.688  11.451  18.638  0.00  0.00    +0.000 OA
ATOM     23  C   UNL     1       1.966  14.082  21.128  0.00  0.00    +0.000 C 
ATOM     24  C   UNL     1       1.193  15.322  20.645  0.00  0.00    +0.000 C 
ENDBRANCH  12  21
ENDBRANCH   1  12
BRANCH   2  25
ATOM     25  C   UNL     1      -1.300  12.532  23.084  0.00  0.00    +0.000 C 
BRANCH  25  26
ATOM     26  C   UNL     1      -1.775  13.855  23.680  0.00  0.00    +0.000 A 
ATOM     27  C   UNL     1      -0.932  14.990  23.646  0.00  0.00    +0.000 A 
ATOM     28  C   UNL     1      -1.240  16.157  24.371  0.00  0.00    +0.000 A 
ATOM     29  C   UNL     1      -2.389  16.216  25.146  0.00  0.00    +0.000 A 
ATOM     30  C   UNL     1      -3.252  15.126  25.173  0.00  0.00    +0.000 A 
ATOM     31  C   UNL     1      -2.956  13.959  24.436  0.00  0.00    +0.000 A 
ATOM     32 CL   UNL     1      -4.101  12.669  24.535  0.00  0.00    +0.000 Cl
ENDBRANCH  25  26
ENDBRANCH   2  25
TORSDOF 4
ENDMDL
MODEL 9
REMARK VINA RESULT:      -6.6      3.245      6.590
REMARK  Name = 
REMARK  6 active torsions:
REMARK  status: ('A' for Active; 'I' for Inactive)
REMARK    1  A    between atoms: C_1  and  C_2
REMARK    2  A    between atoms: C_8  and  C_10
REMARK    3  A    between atoms: C_10  and  C_11
REMARK    4  A    between atoms: C_10  and  N_12
REMARK    5  A    between atoms: C_13  and  C_14
REMARK    6  A    between atoms: C_14  and  C_15
REMARK                            x       y       z     vdW  Elec       q    Type
REMARK                         _______ _______ _______ _____ _____    ______ ____
ROOT
ATOM      1  N   UNL     1      -0.791  10.639  19.221  0.00  0.00    +0.000 N 
ATOM      2  C   UNL     1       0.269   9.979  18.598  0.00  0.00    +0.000 A 
ATOM      3  N   UNL     1      -0.156   9.399  17.485  0.00  0.00    +0.000 NA
ATOM      4  C   UNL     1      -1.391   9.908  17.227  0.00  0.00    +0.000 A 
ATOM      5  C   UNL     1      -2.236   9.675  16.128  0.00  0.00    +0.000 A 
ATOM      6  C   UNL     1      -3.438  10.382  16.030  0.00  0.00    +0.000 A 
ATOM      7 CL   UNL     1      -4.472  10.033  14.687  0.00  0.00    +0.000 Cl
ATOM      8  C   UNL     1      -3.768  11.343  16.986  0.00  0.00    +0.000 A 
ATOM      9 CL   UNL     1      -5.216  12.287  16.894  0.00  0.00    +0.000 Cl
ATOM     10  C   UNL     1      -2.929  11.575  18.086  0.00  0.00    +0.000 A 
ATOM     11  C   UNL     1      -1.768  10.796  18.229  0.00  0.00    +0.000 A 
ENDROOT
BRANCH   1  12
ATOM     12  C   UNL     1      -0.872  11.154  20.605  0.00  0.00    +0.000 C 
ATOM     13  C   UNL     1      -0.824  10.091  21.719  0.00  0.00    +0.000 C 
BRANCH  12  21
ATOM     14  C   UNL     1      -0.379  17.466  17.918  0.00  0.00    +0.000 C 
ATOM     15  C   UNL     1       0.782  16.887  18.684  0.00  0.00    +0.000 C 
ATOM     16  O   UNL     1       1.634  17.632  19.167  0.00  0.00    +0.000 OA
ATOM     17  N   UNL     1       0.820  15.509  18.837  0.00  0.00    +0.000 N 
ATOM     18  C   UNL     1       1.815  14.931  19.756  0.00  0.00    +0.000 C 
ATOM     19  C   UNL     1       1.124  14.500  21.065  0.00  0.00    +0.000 C 
ATOM     20  N   UNL     1      -0.027  13.596  20.777  0.00  0.00    +0.000 N 
ATOM     21  C   UNL     1       0.095  12.253  21.090  0.00  0.00    +0.000 C 
ATOM     22  O   UNL     1       1.127  11.862  21.657  0.00  0.00    +0.000 OA
ATOM     23  C   UNL     1      -0.999  14.193  19.857  0.00  0.00    +0.000 C 
ATOM     24  C   UNL     1      -0.305  14.608  18.548  0.00  0.00    +0.000 C 
ENDBRANCH  12  21
ENDBRANCH   1  12
BRANCH   2  25
ATOM     25  C   UNL     1       1.679   9.819  19.096  0.00  0.00    +0.000 C 
BRANCH  25  26
ATOM     26  C   UNL     1       2.311   8.441  18.908  0.00  0.00    +0.000 A 
ATOM     27  C   UNL     1       3.040   8.153  17.731  0.00  0.00    +0.000 A 
ATOM     28  C   UNL     1       3.448   6.842  17.422  0.00  0.00    +0.000 A 
ATOM     29  C   UNL     1       3.135   5.792  18.275  0.00  0.00    +0.000 A 
ATOM     30  C   UNL     1       2.446   6.052  19.454  0.00  0.00    +0.000 A 
ATOM     31  C   UNL     1       2.047   7.368  19.776  0.00  0.00    +0.000 A 
ATOM     32 CL   UNL     1       1.204   7.578  21.270  0.00  0.00    +0.000 Cl
ENDBRANCH  25  26
ENDBRANCH   2  25
TORSDOF 4
ENDMDL
