MODEL 1
REMARK VINA RESULT:      -7.8      0.000      0.000
REMARK  Name = 
REMARK  4 active torsions:
REMARK  status: ('A' for Active; 'I' for Inactive)
REMARK    1  A    between atoms: C_2  and  C_3
REMARK    2  A    between atoms: C_3  and  N_4
REMARK    3  A    between atoms: N_7  and  C_8
REMARK    4  A    between atoms: C_14  and  C_15
REMARK                            x       y       z     vdW  Elec       q    Type
REMARK                         _______ _______ _______ _____ _____    ______ ____
ROOT
ATOM      1  C   UNL     1       1.443   7.596  21.247  0.00  0.00    +0.000 C 
ATOM      2  C   UNL     1       0.829   8.779  21.078  0.00  0.00    +0.000 C 
ATOM      3  N   UNL     1       0.316   9.154  19.863  0.00  0.00    +0.000 NA
ATOM      4  C   UNL     1      -0.259  10.290  20.083  0.00  0.00    +0.000 C 
ATOM      5  C   UNL     1      -1.066  10.962  19.023  0.00  0.00    +0.000 C 
ATOM      6  N   UNL     1      -0.359  12.162  18.623  0.00  0.00    +0.000 NA
ATOM      7  C   UNL     1      -0.244  13.126  19.469  0.00  0.00    +0.000 C 
ATOM      8  C   UNL     1      -0.846  13.117  20.842  0.00  0.00    +0.000 A 
ATOM      9  C   UNL     1      -1.576  14.263  21.203  0.00  0.00    +0.000 A 
ATOM     10  C   UNL     1      -2.153  14.344  22.462  0.00  0.00    +0.000 A 
ATOM     11 CL   UNL     1      -3.086  15.728  22.881  0.00  0.00    +0.000 Cl
ATOM     12  C   UNL     1      -1.988  13.310  23.379  0.00  0.00    +0.000 A 
ATOM     13  C   UNL     1      -1.256  12.164  23.028  0.00  0.00    +0.000 A 
ATOM     14  C   UNL     1      -0.718  12.025  21.740  0.00  0.00    +0.000 A 
ATOM     15  N   UNL     1      -0.149  10.790  21.336  0.00  0.00    +0.000 N 
ATOM     16  C   UNL     1       0.482   9.826  22.108  0.00  0.00    +0.000 C 
ATOM     17  O   UNL     1       0.722   9.792  23.302  0.00  0.00    +0.000 OA
ENDROOT
BRANCH   1  21
ATOM     18  N   UNL     1       2.713   4.517  18.344  0.00  0.00    +0.000 NA
ATOM     19  C   UNL     1       1.568   4.323  19.259  0.00  0.00    +0.000 C 
ATOM     20  C   UNL     1       1.579   5.179  20.542  0.00  0.00    +0.000 C 
ATOM     21  N   UNL     1       1.768   6.634  20.263  0.00  0.00    +0.000 N 
ATOM     22  C   UNL     1       2.901   6.883  19.347  0.00  0.00    +0.000 C 
ATOM     23  C   UNL     1       2.843   5.974  18.095  0.00  0.00    +0.000 C 
BRANCH  18  24
ATOM     24  C   UNL     1       3.966   3.947  18.855  0.00  0.00    +0.000 C 
BRANCH  24  26
ATOM     25  C   UNL     1       3.654   1.479  18.443  0.00  0.00    +0.000 C 
ATOM     26  C   UNL     1       3.819   2.511  19.283  0.00  0.00    +0.000 C 
ENDBRANCH  24  26
ENDBRANCH  18  24
ENDBRANCH   1  21
BRANCH   7  27
ATOM     27  C   UNL     1       0.526  14.320  18.997  0.00  0.00    +0.000 A 
ATOM     28  C   UNL     1       1.916  14.197  18.857  0.00  0.00    +0.000 A 
ATOM     29  C   UNL     1       2.687  15.289  18.463  0.00  0.00    +0.000 A 
ATOM     30  C   UNL     1       2.073  16.513  18.214  0.00  0.00    +0.000 A 
ATOM     31  C   UNL     1       0.691  16.647  18.361  0.00  0.00    +0.000 A 
ATOM     32  C   UNL     1      -0.087  15.554  18.757  0.00  0.00    +0.000 A 
ENDBRANCH   7  27
TORSDOF 4
ENDMDL
MODEL 2
REMARK VINA RESULT:      -7.7      1.017      1.418
REMARK  Name = 
REMARK  4 active torsions:
REMARK  status: ('A' for Active; 'I' for Inactive)
REMARK    1  A    between atoms: C_2  and  C_3
REMARK    2  A    between atoms: C_3  and  N_4
REMARK    3  A    between atoms: N_7  and  C_8
REMARK    4  A    between atoms: C_14  and  C_15
REMARK                            x       y       z     vdW  Elec       q    Type
REMARK                         _______ _______ _______ _____ _____    ______ ____
ROOT
ATOM      1  C   UNL     1       1.357   7.504  21.231  0.00  0.00    +0.000 C 
ATOM      2  C   UNL     1       1.042   8.793  21.028  0.00  0.00    +0.000 C 
ATOM      3  N   UNL     1       0.947   9.318  19.765  0.00  0.00    +0.000 NA
ATOM      4  C   UNL     1       0.559  10.538  19.941  0.00  0.00    +0.000 C 
ATOM      5  C   UNL     1       0.201  11.407  18.782  0.00  0.00    +0.000 C 
ATOM      6  N   UNL     1       1.200  12.451  18.687  0.00  0.00    +0.000 NA
ATOM      7  C   UNL     1       1.268  13.334  19.622  0.00  0.00    +0.000 C 
ATOM      8  C   UNL     1       0.336  13.390  20.795  0.00  0.00    +0.000 A 
ATOM      9  C   UNL     1      -0.235  14.645  21.070  0.00  0.00    +0.000 A 
ATOM     10  C   UNL     1      -1.096  14.790  22.147  0.00  0.00    +0.000 A 
ATOM     11 CL   UNL     1      -1.829  16.317  22.450  0.00  0.00    +0.000 Cl
ATOM     12  C   UNL     1      -1.375  13.705  22.974  0.00  0.00    +0.000 A 
ATOM     13  C   UNL     1      -0.806  12.449  22.710  0.00  0.00    +0.000 A 
ATOM     14  C   UNL     1       0.015  12.257  21.588  0.00  0.00    +0.000 A 
ATOM     15  N   UNL     1       0.428  10.950  21.224  0.00  0.00    +0.000 N 
ATOM     16  C   UNL     1       0.641   9.845  22.033  0.00  0.00    +0.000 C 
ATOM     17  O   UNL     1       0.547   9.711  23.241  0.00  0.00    +0.000 OA
ENDROOT
BRANCH   1  21
ATOM     18  N   UNL     1       2.804   4.414  18.423  0.00  0.00    +0.000 NA
ATOM     19  C   UNL     1       1.603   4.224  19.265  0.00  0.00    +0.000 C 
ATOM     20  C   UNL     1       1.534   5.084  20.543  0.00  0.00    +0.000 C 
ATOM     21  N   UNL     1       1.742   6.538  20.273  0.00  0.00    +0.000 N 
ATOM     22  C   UNL     1       2.931   6.783  19.430  0.00  0.00    +0.000 C 
ATOM     23  C   UNL     1       2.951   5.870  18.179  0.00  0.00    +0.000 C 
BRANCH  18  24
ATOM     24  C   UNL     1       4.021   3.844  19.014  0.00  0.00    +0.000 C 
BRANCH  24  26
ATOM     25  C   UNL     1       3.604   1.436  18.395  0.00  0.00    +0.000 C 
ATOM     26  C   UNL     1       3.890   2.374  19.309  0.00  0.00    +0.000 C 
ENDBRANCH  24  26
ENDBRANCH  18  24
ENDBRANCH   1  21
BRANCH   7  27
ATOM     27  C   UNL     1       2.345  14.362  19.472  0.00  0.00    +0.000 A 
ATOM     28  C   UNL     1       2.278  15.235  18.375  0.00  0.00    +0.000 A 
ATOM     29  C   UNL     1       3.277  16.182  18.163  0.00  0.00    +0.000 A 
ATOM     30  C   UNL     1       4.354  16.258  19.041  0.00  0.00    +0.000 A 
ATOM     31  C   UNL     1       4.434  15.386  20.129  0.00  0.00    +0.000 A 
ATOM     32  C   UNL     1       3.434  14.433  20.346  0.00  0.00    +0.000 A 
ENDBRANCH   7  27
TORSDOF 4
ENDMDL
MODEL 3
REMARK VINA RESULT:      -7.7      0.832      1.259
REMARK  Name = 
REMARK  4 active torsions:
REMARK  status: ('A' for Active; 'I' for Inactive)
REMARK    1  A    between atoms: C_2  and  C_3
REMARK    2  A    between atoms: C_3  and  N_4
REMARK    3  A    between atoms: N_7  and  C_8
REMARK    4  A    between atoms: C_14  and  C_15
REMARK                            x       y       z     vdW  Elec       q    Type
REMARK                         _______ _______ _______ _____ _____    ______ ____
ROOT
ATOM      1  C   UNL     1       1.229   7.809  21.325  0.00  0.00    +0.000 C 
ATOM      2  C   UNL     1       0.612   8.991  21.169  0.00  0.00    +0.000 C 
ATOM      3  N   UNL     1       0.183   9.420  19.941  0.00  0.00    +0.000 NA
ATOM      4  C   UNL     1      -0.423  10.539  20.172  0.00  0.00    +0.000 C 
ATOM      5  C   UNL     1      -1.161  11.253  19.090  0.00  0.00    +0.000 C 
ATOM      6  N   UNL     1      -0.445  12.478  18.802  0.00  0.00    +0.000 NA
ATOM      7  C   UNL     1      -0.405  13.401  19.699  0.00  0.00    +0.000 C 
ATOM      8  C   UNL     1      -1.104  13.318  21.023  0.00  0.00    +0.000 A 
ATOM      9  C   UNL     1      -1.875  14.436  21.385  0.00  0.00    +0.000 A 
ATOM     10  C   UNL     1      -2.542  14.450  22.601  0.00  0.00    +0.000 A 
ATOM     11 CL   UNL     1      -3.522  15.801  23.018  0.00  0.00    +0.000 Cl
ATOM     12  C   UNL     1      -2.428  13.373  23.477  0.00  0.00    +0.000 A 
ATOM     13  C   UNL     1      -1.656  12.254  23.125  0.00  0.00    +0.000 A 
ATOM     14  C   UNL     1      -1.025  12.184  21.874  0.00  0.00    +0.000 A 
ATOM     15  N   UNL     1      -0.411  10.977  21.453  0.00  0.00    +0.000 N 
ATOM     16  C   UNL     1       0.177   9.983  22.221  0.00  0.00    +0.000 C 
ATOM     17  O   UNL     1       0.331   9.893  23.426  0.00  0.00    +0.000 OA
ENDROOT
BRANCH   1  21
ATOM     18  N   UNL     1       2.787   4.955  18.334  0.00  0.00    +0.000 NA
ATOM     19  C   UNL     1       1.810   4.564  19.372  0.00  0.00    +0.000 C 
ATOM     20  C   UNL     1       1.781   5.447  20.636  0.00  0.00    +0.000 C 
ATOM     21  N   UNL     1       1.638   6.900  20.322  0.00  0.00    +0.000 N 
ATOM     22  C   UNL     1       2.593   7.342  19.284  0.00  0.00    +0.000 C 
ATOM     23  C   UNL     1       2.589   6.399  18.056  0.00  0.00    +0.000 C 
BRANCH  18  24
ATOM     24  C   UNL     1       4.177   4.667  18.709  0.00  0.00    +0.000 C 
BRANCH  24  26
ATOM     25  C   UNL     1       4.978   4.038  16.403  0.00  0.00    +0.000 C 
ATOM     26  C   UNL     1       5.121   4.736  17.538  0.00  0.00    +0.000 C 
ENDBRANCH  24  26
ENDBRANCH  18  24
ENDBRANCH   1  21
BRANCH   7  27
ATOM     27  C   UNL     1       0.380  14.626  19.342  0.00  0.00    +0.000 A 
ATOM     28  C   UNL     1      -0.296  15.685  18.718  0.00  0.00    +0.000 A 
ATOM     29  C   UNL     1       0.394  16.829  18.324  0.00  0.00    +0.000 A 
ATOM     30  C   UNL     1       1.765  16.919  18.547  0.00  0.00    +0.000 A 
ATOM     31  C   UNL     1       2.447  15.865  19.159  0.00  0.00    +0.000 A 
ATOM     32  C   UNL     1       1.759  14.713  19.554  0.00  0.00    +0.000 A 
ENDBRANCH   7  27
TORSDOF 4
ENDMDL
MODEL 4
REMARK VINA RESULT:      -7.6      2.036      2.712
REMARK  Name = 
REMARK  4 active torsions:
REMARK  status: ('A' for Active; 'I' for Inactive)
REMARK    1  A    between atoms: C_2  and  C_3
REMARK    2  A    between atoms: C_3  and  N_4
REMARK    3  A    between atoms: N_7  and  C_8
REMARK    4  A    between atoms: C_14  and  C_15
REMARK                            x       y       z     vdW  Elec       q    Type
REMARK                         _______ _______ _______ _____ _____    ______ ____
ROOT
ATOM      1  C   UNL     1       2.242   6.364  20.322  0.00  0.00    +0.000 C 
ATOM      2  C   UNL     1       1.833   7.624  20.104  0.00  0.00    +0.000 C 
ATOM      3  N   UNL     1       2.000   8.232  18.887  0.00  0.00    +0.000 NA
ATOM      4  C   UNL     1       1.431   9.386  19.011  0.00  0.00    +0.000 C 
ATOM      5  C   UNL     1       1.276  10.298  17.841  0.00  0.00    +0.000 C 
ATOM      6  N   UNL     1       2.129  11.448  18.061  0.00  0.00    +0.000 NA
ATOM      7  C   UNL     1       1.845  12.258  19.021  0.00  0.00    +0.000 C 
ATOM      8  C   UNL     1       0.644  12.122  19.908  0.00  0.00    +0.000 A 
ATOM      9  C   UNL     1      -0.129  13.283  20.082  0.00  0.00    +0.000 A 
ATOM     10  C   UNL     1      -1.249  13.250  20.900  0.00  0.00    +0.000 A 
ATOM     11 CL   UNL     1      -2.218  14.662  21.071  0.00  0.00    +0.000 Cl
ATOM     12  C   UNL     1      -1.593  12.081  21.573  0.00  0.00    +0.000 A 
ATOM     13  C   UNL     1      -0.823  10.918  21.409  0.00  0.00    +0.000 A 
ATOM     14  C   UNL     1       0.274  10.903  20.535  0.00  0.00    +0.000 A 
ATOM     15  N   UNL     1       0.926   9.681  20.232  0.00  0.00    +0.000 N 
ATOM     16  C   UNL     1       1.060   8.545  21.016  0.00  0.00    +0.000 C 
ATOM     17  O   UNL     1       0.678   8.309  22.149  0.00  0.00    +0.000 OA
ENDROOT
BRANCH   1  21
ATOM     18  N   UNL     1       4.579   3.985  17.423  0.00  0.00    +0.000 NA
ATOM     19  C   UNL     1       5.123   4.397  18.735  0.00  0.00    +0.000 C 
ATOM     20  C   UNL     1       4.464   5.635  19.378  0.00  0.00    +0.000 C 
ATOM     21  N   UNL     1       2.977   5.523  19.455  0.00  0.00    +0.000 N 
ATOM     22  C   UNL     1       2.383   5.109  18.166  0.00  0.00    +0.000 C 
ATOM     23  C   UNL     1       3.106   3.879  17.564  0.00  0.00    +0.000 C 
BRANCH  18  24
ATOM     24  C   UNL     1       4.949   4.894  16.332  0.00  0.00    +0.000 C 
BRANCH  24  26
ATOM     25  C   UNL     1       6.243   4.066  14.333  0.00  0.00    +0.000 C 
ATOM     26  C   UNL     1       6.199   4.461  15.614  0.00  0.00    +0.000 C 
ENDBRANCH  24  26
ENDBRANCH  18  24
ENDBRANCH   1  21
BRANCH   7  27
ATOM     27  C   UNL     1       2.789  13.405  19.208  0.00  0.00    +0.000 A 
ATOM     28  C   UNL     1       3.307  14.028  18.063  0.00  0.00    +0.000 A 
ATOM     29  C   UNL     1       4.222  15.071  18.178  0.00  0.00    +0.000 A 
ATOM     30  C   UNL     1       4.631  15.494  19.440  0.00  0.00    +0.000 A 
ATOM     31  C   UNL     1       4.128  14.872  20.585  0.00  0.00    +0.000 A 
ATOM     32  C   UNL     1       3.210  13.823  20.474  0.00  0.00    +0.000 A 
ENDBRANCH   7  27
TORSDOF 4
ENDMDL
MODEL 5
REMARK VINA RESULT:      -7.6      1.089      1.459
REMARK  Name = 
REMARK  4 active torsions:
REMARK  status: ('A' for Active; 'I' for Inactive)
REMARK    1  A    between atoms: C_2  and  C_3
REMARK    2  A    between atoms: C_3  and  N_4
REMARK    3  A    between atoms: N_7  and  C_8
REMARK    4  A    between atoms: C_14  and  C_15
REMARK                            x       y       z     vdW  Elec       q    Type
REMARK                         _______ _______ _______ _____ _____    ______ ____
ROOT
ATOM      1  C   UNL     1       1.447   7.433  21.200  0.00  0.00    +0.000 C 
ATOM      2  C   UNL     1       1.083   8.709  20.994  0.00  0.00    +0.000 C 
ATOM      3  N   UNL     1       0.933   9.218  19.731  0.00  0.00    +0.000 NA
ATOM      4  C   UNL     1       0.510  10.427  19.908  0.00  0.00    +0.000 C 
ATOM      5  C   UNL     1       0.088  11.272  18.753  0.00  0.00    +0.000 C 
ATOM      6  N   UNL     1       1.049  12.347  18.619  0.00  0.00    +0.000 NA
ATOM      7  C   UNL     1       1.115  13.241  19.544  0.00  0.00    +0.000 C 
ATOM      8  C   UNL     1       0.217  13.277  20.744  0.00  0.00    +0.000 A 
ATOM      9  C   UNL     1      -0.387  14.515  21.025  0.00  0.00    +0.000 A 
ATOM     10  C   UNL     1      -1.220  14.642  22.126  0.00  0.00    +0.000 A 
ATOM     11 CL   UNL     1      -1.994  16.147  22.438  0.00  0.00    +0.000 Cl
ATOM     12  C   UNL     1      -1.438  13.556  22.971  0.00  0.00    +0.000 A 
ATOM     13  C   UNL     1      -0.835  12.318  22.700  0.00  0.00    +0.000 A 
ATOM     14  C   UNL     1      -0.042  12.142  21.556  0.00  0.00    +0.000 A 
ATOM     15  N   UNL     1       0.403  10.846  21.190  0.00  0.00    +0.000 N 
ATOM     16  C   UNL     1       0.677   9.756  22.003  0.00  0.00    +0.000 C 
ATOM     17  O   UNL     1       0.624   9.631  23.213  0.00  0.00    +0.000 OA
ENDROOT
BRANCH   1  21
ATOM     18  N   UNL     1       2.920   4.377  18.368  0.00  0.00    +0.000 NA
ATOM     19  C   UNL     1       1.791   4.129  19.290  0.00  0.00    +0.000 C 
ATOM     20  C   UNL     1       1.745   5.014  20.552  0.00  0.00    +0.000 C 
ATOM     21  N   UNL     1       1.835   6.471  20.238  0.00  0.00    +0.000 N 
ATOM     22  C   UNL     1       2.949   6.774  19.315  0.00  0.00    +0.000 C 
ATOM     23  C   UNL     1       2.951   5.833  18.084  0.00  0.00    +0.000 C 
BRANCH  18  24
ATOM     24  C   UNL     1       4.209   3.905  18.889  0.00  0.00    +0.000 C 
BRANCH  24  26
ATOM     25  C   UNL     1       6.462   4.988  18.567  0.00  0.00    +0.000 C 
ATOM     26  C   UNL     1       5.377   4.381  18.068  0.00  0.00    +0.000 C 
ENDBRANCH  24  26
ENDBRANCH  18  24
ENDBRANCH   1  21
BRANCH   7  27
ATOM     27  C   UNL     1       2.153  14.303  19.352  0.00  0.00    +0.000 A 
ATOM     28  C   UNL     1       3.270  14.296  20.201  0.00  0.00    +0.000 A 
ATOM     29  C   UNL     1       4.244  15.287  20.096  0.00  0.00    +0.000 A 
ATOM     30  C   UNL     1       4.103  16.295  19.146  0.00  0.00    +0.000 A 
ATOM     31  C   UNL     1       2.988  16.315  18.305  0.00  0.00    +0.000 A 
ATOM     32  C   UNL     1       2.007  15.323  18.407  0.00  0.00    +0.000 A 
ENDBRANCH   7  27
TORSDOF 4
ENDMDL
MODEL 6
REMARK VINA RESULT:      -7.5      1.256      1.456
REMARK  Name = 
REMARK  4 active torsions:
REMARK  status: ('A' for Active; 'I' for Inactive)
REMARK    1  A    between atoms: C_2  and  C_3
REMARK    2  A    between atoms: C_3  and  N_4
REMARK    3  A    between atoms: N_7  and  C_8
REMARK    4  A    between atoms: C_14  and  C_15
REMARK                            x       y       z     vdW  Elec       q    Type
REMARK                         _______ _______ _______ _____ _____    ______ ____
ROOT
ATOM      1  C   UNL     1       1.834   7.123  20.501  0.00  0.00    +0.000 C 
ATOM      2  C   UNL     1       1.414   8.398  20.472  0.00  0.00    +0.000 C 
ATOM      3  N   UNL     1       1.265   9.077  19.291  0.00  0.00    +0.000 NA
ATOM      4  C   UNL     1       0.780  10.227  19.628  0.00  0.00    +0.000 C 
ATOM      5  C   UNL     1       0.342  11.211  18.596  0.00  0.00    +0.000 C 
ATOM      6  N   UNL     1       1.252  12.337  18.644  0.00  0.00    +0.000 NA
ATOM      7  C   UNL     1       1.255  13.089  19.689  0.00  0.00    +0.000 C 
ATOM      8  C   UNL     1       0.332  12.911  20.857  0.00  0.00    +0.000 A 
ATOM      9  C   UNL     1      -0.337  14.066  21.297  0.00  0.00    +0.000 A 
ATOM     10  C   UNL     1      -1.197  13.994  22.382  0.00  0.00    +0.000 A 
ATOM     11 CL   UNL     1      -2.050  15.402  22.886  0.00  0.00    +0.000 Cl
ATOM     12  C   UNL     1      -1.380  12.789  23.055  0.00  0.00    +0.000 A 
ATOM     13  C   UNL     1      -0.712  11.631  22.625  0.00  0.00    +0.000 A 
ATOM     14  C   UNL     1       0.112  11.660  21.490  0.00  0.00    +0.000 A 
ATOM     15  N   UNL     1       0.627  10.451  20.954  0.00  0.00    +0.000 N 
ATOM     16  C   UNL     1       0.937   9.269  21.609  0.00  0.00    +0.000 C 
ATOM     17  O   UNL     1       0.865   8.967  22.787  0.00  0.00    +0.000 OA
ENDROOT
BRANCH   1  21
ATOM     18  N   UNL     1       3.403   4.463  17.341  0.00  0.00    +0.000 NA
ATOM     19  C   UNL     1       1.986   4.449  17.761  0.00  0.00    +0.000 C 
ATOM     20  C   UNL     1       1.698   4.979  19.180  0.00  0.00    +0.000 C 
ATOM     21  N   UNL     1       2.288   6.329  19.422  0.00  0.00    +0.000 N 
ATOM     22  C   UNL     1       3.708   6.398  19.015  0.00  0.00    +0.000 C 
ATOM     23  C   UNL     1       3.929   5.827  17.592  0.00  0.00    +0.000 C 
BRANCH  18  24
ATOM     24  C   UNL     1       4.217   3.442  18.014  0.00  0.00    +0.000 C 
BRANCH  24  26
ATOM     25  C   UNL     1       3.666   1.125  18.841  0.00  0.00    +0.000 C 
ATOM     26  C   UNL     1       3.640   2.059  17.879  0.00  0.00    +0.000 C 
ENDBRANCH  24  26
ENDBRANCH  18  24
ENDBRANCH   1  21
BRANCH   7  27
ATOM     27  C   UNL     1       2.244  14.213  19.681  0.00  0.00    +0.000 A 
ATOM     28  C   UNL     1       3.274  14.195  20.633  0.00  0.00    +0.000 A 
ATOM     29  C   UNL     1       4.195  15.238  20.699  0.00  0.00    +0.000 A 
ATOM     30  C   UNL     1       4.088  16.310  19.817  0.00  0.00    +0.000 A 
ATOM     31  C   UNL     1       3.059  16.341  18.874  0.00  0.00    +0.000 A 
ATOM     32  C   UNL     1       2.131  15.297  18.805  0.00  0.00    +0.000 A 
ENDBRANCH   7  27
TORSDOF 4
ENDMDL
MODEL 7
REMARK VINA RESULT:      -7.5      0.710      1.115
REMARK  Name = 
REMARK  4 active torsions:
REMARK  status: ('A' for Active; 'I' for Inactive)
REMARK    1  A    between atoms: C_2  and  C_3
REMARK    2  A    between atoms: C_3  and  N_4
REMARK    3  A    between atoms: N_7  and  C_8
REMARK    4  A    between atoms: C_14  and  C_15
REMARK                            x       y       z     vdW  Elec       q    Type
REMARK                         _______ _______ _______ _____ _____    ______ ____
ROOT
ATOM      1  C   UNL     1       1.884   7.475  20.613  0.00  0.00    +0.000 C 
ATOM      2  C   UNL     1       1.212   8.637  20.583  0.00  0.00    +0.000 C 
ATOM      3  N   UNL     1       0.722   9.152  19.411  0.00  0.00    +0.000 NA
ATOM      4  C   UNL     1       0.077  10.217  19.761  0.00  0.00    +0.000 C 
ATOM      5  C   UNL     1      -0.729  10.989  18.771  0.00  0.00    +0.000 C 
ATOM      6  N   UNL     1      -0.076  12.266  18.571  0.00  0.00    +0.000 NA
ATOM      7  C   UNL     1      -0.045  13.108  19.545  0.00  0.00    +0.000 C 
ATOM      8  C   UNL     1      -0.692  12.876  20.877  0.00  0.00    +0.000 A 
ATOM      9  C   UNL     1      -1.497  13.922  21.362  0.00  0.00    +0.000 A 
ATOM     10  C   UNL     1      -2.121  13.798  22.595  0.00  0.00    +0.000 A 
ATOM     11 CL   UNL     1      -3.143  15.061  23.161  0.00  0.00    +0.000 Cl
ATOM     12  C   UNL     1      -1.930  12.654  23.366  0.00  0.00    +0.000 A 
ATOM     13  C   UNL     1      -1.124  11.608  22.892  0.00  0.00    +0.000 A 
ATOM     14  C   UNL     1      -0.535  11.677  21.620  0.00  0.00    +0.000 A 
ATOM     15  N   UNL     1       0.115  10.541  21.075  0.00  0.00    +0.000 N 
ATOM     16  C   UNL     1       0.772   9.512  21.732  0.00  0.00    +0.000 C 
ATOM     17  O   UNL     1       0.972   9.323  22.919  0.00  0.00    +0.000 OA
ENDROOT
BRANCH   1  21
ATOM     18  N   UNL     1       3.338   4.809  17.404  0.00  0.00    +0.000 NA
ATOM     19  C   UNL     1       1.948   4.764  17.906  0.00  0.00    +0.000 C 
ATOM     20  C   UNL     1       1.730   5.308  19.333  0.00  0.00    +0.000 C 
ATOM     21  N   UNL     1       2.296   6.677  19.520  0.00  0.00    +0.000 N 
ATOM     22  C   UNL     1       3.687   6.777  19.030  0.00  0.00    +0.000 C 
ATOM     23  C   UNL     1       3.841   6.190  17.605  0.00  0.00    +0.000 C 
BRANCH  18  24
ATOM     24  C   UNL     1       4.217   3.821  18.042  0.00  0.00    +0.000 C 
BRANCH  24  26
ATOM     25  C   UNL     1       3.528   1.481  18.678  0.00  0.00    +0.000 C 
ATOM     26  C   UNL     1       3.807   2.403  17.746  0.00  0.00    +0.000 C 
ENDBRANCH  24  26
ENDBRANCH  18  24
ENDBRANCH   1  21
BRANCH   7  27
ATOM     27  C   UNL     1       0.674  14.393  19.275  0.00  0.00    +0.000 A 
ATOM     28  C   UNL     1      -0.061  15.459  18.735  0.00  0.00    +0.000 A 
ATOM     29  C   UNL     1       0.567  16.663  18.423  0.00  0.00    +0.000 A 
ATOM     30  C   UNL     1       1.934  16.806  18.642  0.00  0.00    +0.000 A 
ATOM     31  C   UNL     1       2.674  15.746  19.170  0.00  0.00    +0.000 A 
ATOM     32  C   UNL     1       2.049  14.535  19.483  0.00  0.00    +0.000 A 
ENDBRANCH   7  27
TORSDOF 4
ENDMDL
MODEL 8
REMARK VINA RESULT:      -7.4      1.140      1.455
REMARK  Name = 
REMARK  4 active torsions:
REMARK  status: ('A' for Active; 'I' for Inactive)
REMARK    1  A    between atoms: C_2  and  C_3
REMARK    2  A    between atoms: C_3  and  N_4
REMARK    3  A    between atoms: N_7  and  C_8
REMARK    4  A    between atoms: C_14  and  C_15
REMARK                            x       y       z     vdW  Elec       q    Type
REMARK                         _______ _______ _______ _____ _____    ______ ____
ROOT
ATOM      1  C   UNL     1       1.334   8.113  21.444  0.00  0.00    +0.000 C 
ATOM      2  C   UNL     1       0.641   9.240  21.218  0.00  0.00    +0.000 C 
ATOM      3  N   UNL     1       0.350   9.661  19.946  0.00  0.00    +0.000 NA
ATOM      4  C   UNL     1      -0.380  10.716  20.104  0.00  0.00    +0.000 C 
ATOM      5  C   UNL     1      -1.022  11.390  18.938  0.00  0.00    +0.000 C 
ATOM      6  N   UNL     1      -0.385  12.680  18.769  0.00  0.00    +0.000 NA
ATOM      7  C   UNL     1      -0.554  13.580  19.675  0.00  0.00    +0.000 C 
ATOM      8  C   UNL     1      -1.420  13.403  20.886  0.00  0.00    +0.000 A 
ATOM      9  C   UNL     1      -2.332  14.440  21.150  0.00  0.00    +0.000 A 
ATOM     10  C   UNL     1      -3.160  14.364  22.260  0.00  0.00    +0.000 A 
ATOM     11 CL   UNL     1      -4.307  15.614  22.552  0.00  0.00    +0.000 Cl
ATOM     12  C   UNL     1      -3.073  13.279  23.129  0.00  0.00    +0.000 A 
ATOM     13  C   UNL     1      -2.162  12.242  22.875  0.00  0.00    +0.000 A 
ATOM     14  C   UNL     1      -1.360  12.259  21.724  0.00  0.00    +0.000 A 
ATOM     15  N   UNL     1      -0.586  11.121  21.379  0.00  0.00    +0.000 N 
ATOM     16  C   UNL     1      -0.024  10.164  22.210  0.00  0.00    +0.000 C 
ATOM     17  O   UNL     1      -0.032  10.057  23.423  0.00  0.00    +0.000 OA
ENDROOT
BRANCH   1  21
ATOM     18  N   UNL     1       3.000   5.373  18.403  0.00  0.00    +0.000 NA
ATOM     19  C   UNL     1       2.958   6.839  18.215  0.00  0.00    +0.000 C 
ATOM     20  C   UNL     1       1.897   7.595  19.041  0.00  0.00    +0.000 C 
ATOM     21  N   UNL     1       1.959   7.269  20.497  0.00  0.00    +0.000 N 
ATOM     22  C   UNL     1       2.005   5.811  20.739  0.00  0.00    +0.000 C 
ATOM     23  C   UNL     1       3.073   5.112  19.862  0.00  0.00    +0.000 C 
BRANCH  18  24
ATOM     24  C   UNL     1       1.860   4.679  17.791  0.00  0.00    +0.000 C 
BRANCH  24  26
ATOM     25  C   UNL     1       0.824   2.566  18.697  0.00  0.00    +0.000 C 
ATOM     26  C   UNL     1       1.842   3.207  18.103  0.00  0.00    +0.000 C 
ENDBRANCH  24  26
ENDBRANCH  18  24
ENDBRANCH   1  21
BRANCH   7  27
ATOM     27  C   UNL     1       0.159  14.877  19.448  0.00  0.00    +0.000 A 
ATOM     28  C   UNL     1       1.293  15.153  20.227  0.00  0.00    +0.000 A 
ATOM     29  C   UNL     1       1.969  16.363  20.089  0.00  0.00    +0.000 A 
ATOM     30  C   UNL     1       1.511  17.308  19.175  0.00  0.00    +0.000 A 
ATOM     31  C   UNL     1       0.377  17.046  18.403  0.00  0.00    +0.000 A 
ATOM     32  C   UNL     1      -0.306  15.833  18.540  0.00  0.00    +0.000 A 
ENDBRANCH   7  27
TORSDOF 4
ENDMDL
MODEL 9
REMARK VINA RESULT:      -7.4      1.875      2.205
REMARK  Name = 
REMARK  4 active torsions:
REMARK  status: ('A' for Active; 'I' for Inactive)
REMARK    1  A    between atoms: C_2  and  C_3
REMARK    2  A    between atoms: C_3  and  N_4
REMARK    3  A    between atoms: N_7  and  C_8
REMARK    4  A    between atoms: C_14  and  C_15
REMARK                            x       y       z     vdW  Elec       q    Type
REMARK                         _______ _______ _______ _____ _____    ______ ____
ROOT
ATOM      1  C   UNL     1       2.488   6.767  19.974  0.00  0.00    +0.000 C 
ATOM      2  C   UNL     1       1.835   7.936  20.064  0.00  0.00    +0.000 C 
ATOM      3  N   UNL     1       1.517   8.668  18.950  0.00  0.00    +0.000 NA
ATOM      4  C   UNL     1       0.837   9.673  19.395  0.00  0.00    +0.000 C 
ATOM      5  C   UNL     1       0.184  10.636  18.461  0.00  0.00    +0.000 C 
ATOM      6  N   UNL     1       0.868  11.906  18.587  0.00  0.00    +0.000 NA
ATOM      7  C   UNL     1       0.769  12.559  19.693  0.00  0.00    +0.000 C 
ATOM      8  C   UNL     1      -0.060  12.114  20.860  0.00  0.00    +0.000 A 
ATOM      9  C   UNL     1      -0.918  13.082  21.412  0.00  0.00    +0.000 A 
ATOM     10  C   UNL     1      -1.709  12.760  22.504  0.00  0.00    +0.000 A 
ATOM     11 CL   UNL     1      -2.791  13.934  23.146  0.00  0.00    +0.000 Cl
ATOM     12  C   UNL     1      -1.637  11.492  23.075  0.00  0.00    +0.000 A 
ATOM     13  C   UNL     1      -0.779  10.521  22.533  0.00  0.00    +0.000 A 
ATOM     14  C   UNL     1      -0.018  10.797  21.387  0.00  0.00    +0.000 A 
ATOM     15  N   UNL     1       0.694   9.757  20.738  0.00  0.00    +0.000 N 
ATOM     16  C   UNL     1       1.245   8.606  21.282  0.00  0.00    +0.000 C 
ATOM     17  O   UNL     1       1.275   8.202  22.431  0.00  0.00    +0.000 OA
ENDROOT
BRANCH   1  21
ATOM     18  N   UNL     1       4.472   4.803  16.549  0.00  0.00    +0.000 NA
ATOM     19  C   UNL     1       3.309   4.209  17.241  0.00  0.00    +0.000 C 
ATOM     20  C   UNL     1       3.078   4.677  18.693  0.00  0.00    +0.000 C 
ATOM     21  N   UNL     1       3.043   6.164  18.821  0.00  0.00    +0.000 N 
ATOM     22  C   UNL     1       4.186   6.808  18.142  0.00  0.00    +0.000 C 
ATOM     23  C   UNL     1       4.376   6.276  16.700  0.00  0.00    +0.000 C 
BRANCH  18  24
ATOM     24  C   UNL     1       5.760   4.297  17.040  0.00  0.00    +0.000 C 
BRANCH  24  26
ATOM     25  C   UNL     1       6.712   4.342  14.707  0.00  0.00    +0.000 C 
ATOM     26  C   UNL     1       6.867   4.453  16.034  0.00  0.00    +0.000 C 
ENDBRANCH  24  26
ENDBRANCH  18  24
ENDBRANCH   1  21
BRANCH   7  27
ATOM     27  C   UNL     1       1.527  13.848  19.760  0.00  0.00    +0.000 A 
ATOM     28  C   UNL     1       2.541  13.968  20.723  0.00  0.00    +0.000 A 
ATOM     29  C   UNL     1       3.249  15.160  20.859  0.00  0.00    +0.000 A 
ATOM     30  C   UNL     1       2.942  16.242  20.038  0.00  0.00    +0.000 A 
ATOM     31  C   UNL     1       1.927  16.134  19.086  0.00  0.00    +0.000 A 
ATOM     32  C   UNL     1       1.213  14.940  18.946  0.00  0.00    +0.000 A 
ENDBRANCH   7  27
TORSDOF 4
ENDMDL
