MODEL 1
REMARK VINA RESULT:      -8.4      0.000      0.000
REMARK  Name = 
REMARK  10 active torsions:
REMARK  status: ('A' for Active; 'I' for Inactive)
REMARK    1  A    between atoms: C_1  and  C_2
REMARK    2  A    between atoms: C_5  and  S_6
REMARK    3  A    between atoms: S_6  and  N_9
REMARK    4  A    between atoms: C_12  and  C_13
REMARK    5  A    between atoms: C_13  and  O_15
REMARK    6  A    between atoms: O_15  and  C_16
REMARK    7  A    between atoms: C_16  and  C_17
REMARK    8  A    between atoms: N_19  and  C_20
REMARK    9  A    between atoms: N_19  and  C_21
REMARK   10  A    between atoms: C_30  and  C_31
REMARK                            x       y       z     vdW  Elec       q    Type
REMARK                         _______ _______ _______ _____ _____    ______ ____
ROOT
ATOM      1  N   UNL     1       5.150   4.683  18.420  0.00  0.00    +0.000 NA
ATOM      2  C   UNL     1       5.640   4.811  17.026  0.00  0.00    +0.000 C 
ATOM      3  C   UNL     1       7.161   4.852  16.936  0.00  0.00    +0.000 C 
ATOM      4  C   UNL     1       7.779   5.853  17.905  0.00  0.00    +0.000 C 
ATOM      5  C   UNL     1       7.341   5.490  19.324  0.00  0.00    +0.000 C 
ATOM      6  C   UNL     1       5.825   5.454  19.492  0.00  0.00    +0.000 C 
ENDROOT
BRANCH   1   7
ATOM      7  S   UNL     1       3.442   4.540  18.577  0.00  0.00    +0.000 S 
ATOM      8  O   UNL     1       3.196   3.914  19.870  0.00  0.00    +0.000 OA
ATOM      9  O   UNL     1       2.918   3.970  17.365  0.00  0.00    +0.000 OA
BRANCH   7  14
ATOM     10  C   UNL     1       1.346  10.243  19.079  0.00  0.00    +0.000 C 
ATOM     11  C   UNL     1       1.820   8.822  18.976  0.00  0.00    +0.000 A 
ATOM     12  C   UNL     1       2.374   8.389  17.766  0.00  0.00    +0.000 A 
ATOM     13  C   UNL     1       2.858   7.092  17.625  0.00  0.00    +0.000 A 
ATOM     14  C   UNL     1       2.809   6.207  18.701  0.00  0.00    +0.000 A 
ATOM     15  C   UNL     1       2.233   6.615  19.910  0.00  0.00    +0.000 A 
ATOM     16  C   UNL     1       1.735   7.921  20.057  0.00  0.00    +0.000 A 
ATOM     17  C   UNL     1       1.127   8.333  21.366  0.00  0.00    +0.000 C 
ENDBRANCH   7  14
ENDBRANCH   1   7
BRANCH   4  18
ATOM     18  C   UNL     1       7.422   7.303  17.566  0.00  0.00    +0.000 C 
ATOM     19  O   UNL     1       6.644   7.638  16.702  0.00  0.00    +0.000 OA
BRANCH  18  20
ATOM     20  O   UNL     1       8.071   8.160  18.404  0.00  0.00    +0.000 OA
BRANCH  20  21
ATOM     21  C   UNL     1       8.201   9.467  17.851  0.00  0.00    +0.000 C 
BRANCH  21  22
ATOM     22  C   UNL     1       9.037  10.426  18.710  0.00  0.00    +0.000 C 
ATOM     23  O   UNL     1       9.739   9.988  19.625  0.00  0.00    +0.000 OA
ATOM     24  N   UNL     1       8.985  11.793  18.392  0.00  0.00    +0.000 N 
ATOM     25  C   UNL     1       8.131  12.313  17.328  0.00  0.00    +0.000 C 
BRANCH  24  26
ATOM     26  C   UNL     1       9.923  12.714  19.094  0.00  0.00    +0.000 C 
ATOM     27  C   UNL     1      11.367  12.768  18.539  0.00  0.00    +0.000 C 
ATOM     28  C   UNL     1      11.514  13.554  17.231  0.00  0.00    +0.000 C 
ATOM     29  C   UNL     1      10.840  14.922  17.276  0.00  0.00    +0.000 C 
ATOM     30  C   UNL     1       9.429  14.866  17.852  0.00  0.00    +0.000 C 
ATOM     31  C   UNL     1       9.407  14.164  19.204  0.00  0.00    +0.000 C 
ENDBRANCH  24  26
ENDBRANCH  21  22
ENDBRANCH  20  21
ENDBRANCH  18  20
ENDBRANCH   4  18
TORSDOF 7
ENDMDL
MODEL 2
REMARK VINA RESULT:      -8.4      0.827      1.664
REMARK  Name = 
REMARK  10 active torsions:
REMARK  status: ('A' for Active; 'I' for Inactive)
REMARK    1  A    between atoms: C_1  and  C_2
REMARK    2  A    between atoms: C_5  and  S_6
REMARK    3  A    between atoms: S_6  and  N_9
REMARK    4  A    between atoms: C_12  and  C_13
REMARK    5  A    between atoms: C_13  and  O_15
REMARK    6  A    between atoms: O_15  and  C_16
REMARK    7  A    between atoms: C_16  and  C_17
REMARK    8  A    between atoms: N_19  and  C_20
REMARK    9  A    between atoms: N_19  and  C_21
REMARK   10  A    between atoms: C_30  and  C_31
REMARK                            x       y       z     vdW  Elec       q    Type
REMARK                         _______ _______ _______ _____ _____    ______ ____
ROOT
ATOM      1  N   UNL     1       5.242   4.382  18.242  0.00  0.00    +0.000 NA
ATOM      2  C   UNL     1       5.848   4.548  16.898  0.00  0.00    +0.000 C 
ATOM      3  C   UNL     1       7.363   4.698  16.949  0.00  0.00    +0.000 C 
ATOM      4  C   UNL     1       7.817   5.739  17.965  0.00  0.00    +0.000 C 
ATOM      5  C   UNL     1       7.277   5.343  19.340  0.00  0.00    +0.000 C 
ATOM      6  C   UNL     1       5.758   5.198  19.367  0.00  0.00    +0.000 C 
ENDROOT
BRANCH   1   7
ATOM      7  S   UNL     1       3.541   4.117  18.242  0.00  0.00    +0.000 S 
ATOM      8  O   UNL     1       3.287   3.060  19.213  0.00  0.00    +0.000 OA
ATOM      9  O   UNL     1       3.097   3.996  16.879  0.00  0.00    +0.000 OA
BRANCH   7  14
ATOM     10  C   UNL     1       0.959   9.177  20.457  0.00  0.00    +0.000 C 
ATOM     11  C   UNL     1       1.635   7.958  19.896  0.00  0.00    +0.000 A 
ATOM     12  C   UNL     1       1.682   6.801  20.682  0.00  0.00    +0.000 A 
ATOM     13  C   UNL     1       2.267   5.634  20.201  0.00  0.00    +0.000 A 
ATOM     14  C   UNL     1       2.803   5.600  18.915  0.00  0.00    +0.000 A 
ATOM     15  C   UNL     1       2.788   6.756  18.125  0.00  0.00    +0.000 A 
ATOM     16  C   UNL     1       2.207   7.941  18.608  0.00  0.00    +0.000 A 
ATOM     17  C   UNL     1       2.200   9.165  17.739  0.00  0.00    +0.000 C 
ENDBRANCH   7  14
ENDBRANCH   1   7
BRANCH   4  18
ATOM     18  C   UNL     1       7.390   7.160  17.588  0.00  0.00    +0.000 C 
ATOM     19  O   UNL     1       6.550   7.431  16.760  0.00  0.00    +0.000 OA
BRANCH  18  20
ATOM     20  O   UNL     1       8.057   8.074  18.347  0.00  0.00    +0.000 OA
BRANCH  20  21
ATOM     21  C   UNL     1       8.026   9.381  17.778  0.00  0.00    +0.000 C 
BRANCH  21  22
ATOM     22  C   UNL     1       8.923  10.395  18.500  0.00  0.00    +0.000 C 
ATOM     23  O   UNL     1       9.722  10.016  19.360  0.00  0.00    +0.000 OA
ATOM     24  N   UNL     1       8.810  11.744  18.123  0.00  0.00    +0.000 N 
ATOM     25  C   UNL     1       7.843  12.195  17.127  0.00  0.00    +0.000 C 
BRANCH  24  26
ATOM     26  C   UNL     1       9.793  12.714  18.681  0.00  0.00    +0.000 C 
ATOM     27  C   UNL     1       9.946  14.047  17.910  0.00  0.00    +0.000 C 
ATOM     28  C   UNL     1       8.793  15.036  18.119  0.00  0.00    +0.000 C 
ATOM     29  C   UNL     1       8.434  15.234  19.589  0.00  0.00    +0.000 C 
ATOM     30  C   UNL     1       8.314  13.918  20.349  0.00  0.00    +0.000 C 
ATOM     31  C   UNL     1       9.557  13.056  20.167  0.00  0.00    +0.000 C 
ENDBRANCH  24  26
ENDBRANCH  21  22
ENDBRANCH  20  21
ENDBRANCH  18  20
ENDBRANCH   4  18
TORSDOF 7
ENDMDL
MODEL 3
REMARK VINA RESULT:      -8.2      0.944      1.500
REMARK  Name = 
REMARK  10 active torsions:
REMARK  status: ('A' for Active; 'I' for Inactive)
REMARK    1  A    between atoms: C_1  and  C_2
REMARK    2  A    between atoms: C_5  and  S_6
REMARK    3  A    between atoms: S_6  and  N_9
REMARK    4  A    between atoms: C_12  and  C_13
REMARK    5  A    between atoms: C_13  and  O_15
REMARK    6  A    between atoms: O_15  and  C_16
REMARK    7  A    between atoms: C_16  and  C_17
REMARK    8  A    between atoms: N_19  and  C_20
REMARK    9  A    between atoms: N_19  and  C_21
REMARK   10  A    between atoms: C_30  and  C_31
REMARK                            x       y       z     vdW  Elec       q    Type
REMARK                         _______ _______ _______ _____ _____    ______ ____
ROOT
ATOM      1  N   UNL     1       5.197   4.410  18.300  0.00  0.00    +0.000 NA
ATOM      2  C   UNL     1       5.652   4.581  16.898  0.00  0.00    +0.000 C 
ATOM      3  C   UNL     1       7.156   4.799  16.788  0.00  0.00    +0.000 C 
ATOM      4  C   UNL     1       7.665   5.874  17.741  0.00  0.00    +0.000 C 
ATOM      5  C   UNL     1       7.290   5.477  19.169  0.00  0.00    +0.000 C 
ATOM      6  C   UNL     1       5.790   5.265  19.356  0.00  0.00    +0.000 C 
ENDROOT
BRANCH   1   7
ATOM      7  S   UNL     1       3.519   4.071  18.481  0.00  0.00    +0.000 S 
ATOM      8  O   UNL     1       3.407   3.106  19.568  0.00  0.00    +0.000 OA
ATOM      9  O   UNL     1       2.967   3.792  17.183  0.00  0.00    +0.000 OA
BRANCH   7  14
ATOM     10  C   UNL     1       0.878   9.214  20.415  0.00  0.00    +0.000 C 
ATOM     11  C   UNL     1       1.568   7.974  19.923  0.00  0.00    +0.000 A 
ATOM     12  C   UNL     1       1.609   6.856  20.763  0.00  0.00    +0.000 A 
ATOM     13  C   UNL     1       2.208   5.671  20.346  0.00  0.00    +0.000 A 
ATOM     14  C   UNL     1       2.764   5.579  19.071  0.00  0.00    +0.000 A 
ATOM     15  C   UNL     1       2.755   6.696  18.228  0.00  0.00    +0.000 A 
ATOM     16  C   UNL     1       2.160   7.899  18.646  0.00  0.00    +0.000 A 
ATOM     17  C   UNL     1       2.160   9.080  17.719  0.00  0.00    +0.000 C 
ENDBRANCH   7  14
ENDBRANCH   1   7
BRANCH   4  18
ATOM     18  C   UNL     1       7.137   7.269  17.394  0.00  0.00    +0.000 C 
ATOM     19  O   UNL     1       5.971   7.591  17.418  0.00  0.00    +0.000 OA
BRANCH  18  20
ATOM     20  O   UNL     1       8.169   8.108  17.099  0.00  0.00    +0.000 OA
BRANCH  20  21
ATOM     21  C   UNL     1       7.921   9.447  17.523  0.00  0.00    +0.000 C 
BRANCH  21  22
ATOM     22  C   UNL     1       8.804   9.902  18.693  0.00  0.00    +0.000 C 
ATOM     23  O   UNL     1       9.207   9.083  19.523  0.00  0.00    +0.000 OA
ATOM     24  N   UNL     1       9.143  11.264  18.756  0.00  0.00    +0.000 N 
ATOM     25  C   UNL     1       8.641  12.237  17.791  0.00  0.00    +0.000 C 
BRANCH  24  26
ATOM     26  C   UNL     1      10.140  11.693  19.777  0.00  0.00    +0.000 C 
ATOM     27  C   UNL     1      11.628  11.581  19.363  0.00  0.00    +0.000 C 
ATOM     28  C   UNL     1      12.099  12.669  18.391  0.00  0.00    +0.000 C 
ATOM     29  C   UNL     1      11.704  14.076  18.831  0.00  0.00    +0.000 C 
ATOM     30  C   UNL     1      10.246  14.172  19.265  0.00  0.00    +0.000 C 
ATOM     31  C   UNL     1       9.908  13.120  20.315  0.00  0.00    +0.000 C 
ENDBRANCH  24  26
ENDBRANCH  21  22
ENDBRANCH  20  21
ENDBRANCH  18  20
ENDBRANCH   4  18
TORSDOF 7
ENDMDL
MODEL 4
REMARK VINA RESULT:      -8.1      0.610      1.090
REMARK  Name = 
REMARK  10 active torsions:
REMARK  status: ('A' for Active; 'I' for Inactive)
REMARK    1  A    between atoms: C_1  and  C_2
REMARK    2  A    between atoms: C_5  and  S_6
REMARK    3  A    between atoms: S_6  and  N_9
REMARK    4  A    between atoms: C_12  and  C_13
REMARK    5  A    between atoms: C_13  and  O_15
REMARK    6  A    between atoms: O_15  and  C_16
REMARK    7  A    between atoms: C_16  and  C_17
REMARK    8  A    between atoms: N_19  and  C_20
REMARK    9  A    between atoms: N_19  and  C_21
REMARK   10  A    between atoms: C_30  and  C_31
REMARK                            x       y       z     vdW  Elec       q    Type
REMARK                         _______ _______ _______ _____ _____    ______ ____
ROOT
ATOM      1  N   UNL     1       5.169   4.749  18.337  0.00  0.00    +0.000 NA
ATOM      2  C   UNL     1       5.533   5.023  16.925  0.00  0.00    +0.000 C 
ATOM      3  C   UNL     1       7.039   5.116  16.712  0.00  0.00    +0.000 C 
ATOM      4  C   UNL     1       7.719   6.038  17.717  0.00  0.00    +0.000 C 
ATOM      5  C   UNL     1       7.413   5.531  19.127  0.00  0.00    +0.000 C 
ATOM      6  C   UNL     1       5.918   5.435  19.417  0.00  0.00    +0.000 C 
ENDROOT
BRANCH   1   7
ATOM      7  S   UNL     1       3.484   4.543  18.623  0.00  0.00    +0.000 S 
ATOM      8  O   UNL     1       3.360   3.936  19.943  0.00  0.00    +0.000 OA
ATOM      9  O   UNL     1       2.896   3.926  17.465  0.00  0.00    +0.000 OA
BRANCH   7  14
ATOM     10  C   UNL     1       1.195  10.167  19.174  0.00  0.00    +0.000 C 
ATOM     11  C   UNL     1       1.718   8.763  19.060  0.00  0.00    +0.000 A 
ATOM     12  C   UNL     1       2.261   8.351  17.838  0.00  0.00    +0.000 A 
ATOM     13  C   UNL     1       2.788   7.072  17.686  0.00  0.00    +0.000 A 
ATOM     14  C   UNL     1       2.794   6.186  18.762  0.00  0.00    +0.000 A 
ATOM     15  C   UNL     1       2.230   6.573  19.983  0.00  0.00    +0.000 A 
ATOM     16  C   UNL     1       1.688   7.859  20.142  0.00  0.00    +0.000 A 
ATOM     17  C   UNL     1       1.094   8.250  21.464  0.00  0.00    +0.000 C 
ENDBRANCH   7  14
ENDBRANCH   1   7
BRANCH   4  18
ATOM     18  C   UNL     1       7.303   7.502  17.551  0.00  0.00    +0.000 C 
ATOM     19  O   UNL     1       6.351   7.881  16.908  0.00  0.00    +0.000 OA
BRANCH  18  20
ATOM     20  O   UNL     1       8.132   8.315  18.265  0.00  0.00    +0.000 OA
BRANCH  20  21
ATOM     21  C   UNL     1       8.204   9.631  17.723  0.00  0.00    +0.000 C 
BRANCH  21  22
ATOM     22  C   UNL     1       8.973  10.626  18.604  0.00  0.00    +0.000 C 
ATOM     23  O   UNL     1       9.699  10.218  19.514  0.00  0.00    +0.000 OA
ATOM     24  N   UNL     1       8.831  11.993  18.312  0.00  0.00    +0.000 N 
ATOM     25  C   UNL     1       7.949  12.476  17.254  0.00  0.00    +0.000 C 
BRANCH  24  26
ATOM     26  C   UNL     1       9.703  12.960  19.036  0.00  0.00    +0.000 C 
ATOM     27  C   UNL     1      10.111  14.229  18.250  0.00  0.00    +0.000 C 
ATOM     28  C   UNL     1       8.999  15.275  18.114  0.00  0.00    +0.000 C 
ATOM     29  C   UNL     1       8.308  15.589  19.438  0.00  0.00    +0.000 C 
ATOM     30  C   UNL     1       7.935  14.335  20.221  0.00  0.00    +0.000 C 
ATOM     31  C   UNL     1       9.136  13.413  20.398  0.00  0.00    +0.000 C 
ENDBRANCH  24  26
ENDBRANCH  21  22
ENDBRANCH  20  21
ENDBRANCH  18  20
ENDBRANCH   4  18
TORSDOF 7
ENDMDL
MODEL 5
REMARK VINA RESULT:      -7.9      5.271      8.016
REMARK  Name = 
REMARK  10 active torsions:
REMARK  status: ('A' for Active; 'I' for Inactive)
REMARK    1  A    between atoms: C_1  and  C_2
REMARK    2  A    between atoms: C_5  and  S_6
REMARK    3  A    between atoms: S_6  and  N_9
REMARK    4  A    between atoms: C_12  and  C_13
REMARK    5  A    between atoms: C_13  and  O_15
REMARK    6  A    between atoms: O_15  and  C_16
REMARK    7  A    between atoms: C_16  and  C_17
REMARK    8  A    between atoms: N_19  and  C_20
REMARK    9  A    between atoms: N_19  and  C_21
REMARK   10  A    between atoms: C_30  and  C_31
REMARK                            x       y       z     vdW  Elec       q    Type
REMARK                         _______ _______ _______ _____ _____    ______ ____
ROOT
ATOM      1  N   UNL     1       4.543   3.981  18.058  0.00  0.00    +0.000 NA
ATOM      2  C   UNL     1       4.727   3.299  19.362  0.00  0.00    +0.000 C 
ATOM      3  C   UNL     1       3.563   2.382  19.719  0.00  0.00    +0.000 C 
ATOM      4  C   UNL     1       2.209   3.064  19.562  0.00  0.00    +0.000 C 
ATOM      5  C   UNL     1       2.075   3.555  18.120  0.00  0.00    +0.000 C 
ATOM      6  C   UNL     1       3.199   4.499  17.703  0.00  0.00    +0.000 C 
ENDROOT
BRANCH   1   7
ATOM      7  S   UNL     1       5.867   4.961  17.558  0.00  0.00    +0.000 S 
ATOM      8  O   UNL     1       7.041   4.458  18.260  0.00  0.00    +0.000 OA
ATOM      9  O   UNL     1       5.477   6.342  17.659  0.00  0.00    +0.000 OA
BRANCH   7  14
ATOM     10  C   UNL     1       6.858   3.716  11.673  0.00  0.00    +0.000 C 
ATOM     11  C   UNL     1       6.617   4.072  13.112  0.00  0.00    +0.000 A 
ATOM     12  C   UNL     1       5.568   3.440  13.789  0.00  0.00    +0.000 A 
ATOM     13  C   UNL     1       5.319   3.708  15.131  0.00  0.00    +0.000 A 
ATOM     14  C   UNL     1       6.129   4.604  15.827  0.00  0.00    +0.000 A 
ATOM     15  C   UNL     1       7.167   5.265  15.159  0.00  0.00    +0.000 A 
ATOM     16  C   UNL     1       7.418   5.006  13.800  0.00  0.00    +0.000 A 
ATOM     17  C   UNL     1       8.541   5.724  13.110  0.00  0.00    +0.000 C 
ENDBRANCH   7  14
ENDBRANCH   1   7
BRANCH   4  18
ATOM     18  C   UNL     1       2.004   4.208  20.560  0.00  0.00    +0.000 C 
ATOM     19  O   UNL     1       2.238   4.139  21.745  0.00  0.00    +0.000 OA
BRANCH  18  20
ATOM     20  O   UNL     1       1.563   5.326  19.917  0.00  0.00    +0.000 OA
BRANCH  20  21
ATOM     21  C   UNL     1       1.707   6.502  20.710  0.00  0.00    +0.000 C 
BRANCH  21  22
ATOM     22  C   UNL     1       1.831   7.793  19.889  0.00  0.00    +0.000 C 
ATOM     23  O   UNL     1       2.518   7.815  18.865  0.00  0.00    +0.000 OA
ATOM     24  N   UNL     1       1.119   8.917  20.339  0.00  0.00    +0.000 N 
ATOM     25  C   UNL     1       0.331   8.898  21.568  0.00  0.00    +0.000 C 
BRANCH  24  26
ATOM     26  C   UNL     1       1.082  10.122  19.465  0.00  0.00    +0.000 C 
ATOM     27  C   UNL     1       0.077  10.079  18.288  0.00  0.00    +0.000 C 
ATOM     28  C   UNL     1      -1.386  10.285  18.698  0.00  0.00    +0.000 C 
ATOM     29  C   UNL     1      -1.588  11.490  19.613  0.00  0.00    +0.000 C 
ATOM     30  C   UNL     1      -0.575  11.542  20.751  0.00  0.00    +0.000 C 
ATOM     31  C   UNL     1       0.854  11.442  20.230  0.00  0.00    +0.000 C 
ENDBRANCH  24  26
ENDBRANCH  21  22
ENDBRANCH  20  21
ENDBRANCH  18  20
ENDBRANCH   4  18
TORSDOF 7
ENDMDL
MODEL 6
REMARK VINA RESULT:      -7.4      5.160      8.083
REMARK  Name = 
REMARK  10 active torsions:
REMARK  status: ('A' for Active; 'I' for Inactive)
REMARK    1  A    between atoms: C_1  and  C_2
REMARK    2  A    between atoms: C_5  and  S_6
REMARK    3  A    between atoms: S_6  and  N_9
REMARK    4  A    between atoms: C_12  and  C_13
REMARK    5  A    between atoms: C_13  and  O_15
REMARK    6  A    between atoms: O_15  and  C_16
REMARK    7  A    between atoms: C_16  and  C_17
REMARK    8  A    between atoms: N_19  and  C_20
REMARK    9  A    between atoms: N_19  and  C_21
REMARK   10  A    between atoms: C_30  and  C_31
REMARK                            x       y       z     vdW  Elec       q    Type
REMARK                         _______ _______ _______ _____ _____    ______ ____
ROOT
ATOM      1  N   UNL     1       4.901   5.061  18.194  0.00  0.00    +0.000 NA
ATOM      2  C   UNL     1       4.711   5.243  19.654  0.00  0.00    +0.000 C 
ATOM      3  C   UNL     1       3.286   4.947  20.105  0.00  0.00    +0.000 C 
ATOM      4  C   UNL     1       2.240   5.655  19.252  0.00  0.00    +0.000 C 
ATOM      5  C   UNL     1       2.434   5.232  17.795  0.00  0.00    +0.000 C 
ATOM      6  C   UNL     1       3.837   5.522  17.269  0.00  0.00    +0.000 C 
ENDROOT
BRANCH   1   7
ATOM      7  S   UNL     1       6.513   5.293  17.638  0.00  0.00    +0.000 S 
ATOM      8  O   UNL     1       7.342   4.336  18.359  0.00  0.00    +0.000 OA
ATOM      9  O   UNL     1       6.808   6.701  17.669  0.00  0.00    +0.000 OA
BRANCH   7  14
ATOM     10  C   UNL     1       6.677   3.525  11.806  0.00  0.00    +0.000 C 
ATOM     11  C   UNL     1       6.635   4.008  13.227  0.00  0.00    +0.000 A 
ATOM     12  C   UNL     1       5.755   3.383  14.118  0.00  0.00    +0.000 A 
ATOM     13  C   UNL     1       5.697   3.769  15.454  0.00  0.00    +0.000 A 
ATOM     14  C   UNL     1       6.532   4.781  15.926  0.00  0.00    +0.000 A 
ATOM     15  C   UNL     1       7.398   5.435  15.042  0.00  0.00    +0.000 A 
ATOM     16  C   UNL     1       7.456   5.057  13.690  0.00  0.00    +0.000 A 
ATOM     17  C   UNL     1       8.398   5.772  12.765  0.00  0.00    +0.000 C 
ENDBRANCH   7  14
ENDBRANCH   1   7
BRANCH   4  18
ATOM     18  C   UNL     1       2.289   7.178  19.399  0.00  0.00    +0.000 C 
ATOM     19  O   UNL     1       2.324   7.960  18.476  0.00  0.00    +0.000 OA
BRANCH  18  20
ATOM     20  O   UNL     1       2.242   7.529  20.715  0.00  0.00    +0.000 OA
BRANCH  20  21
ATOM     21  C   UNL     1       0.949   7.979  21.113  0.00  0.00    +0.000 C 
BRANCH  21  22
ATOM     22  C   UNL     1       0.920   9.432  21.607  0.00  0.00    +0.000 C 
ATOM     23  O   UNL     1       1.466   9.738  22.670  0.00  0.00    +0.000 OA
ATOM     24  N   UNL     1       0.277  10.379  20.794  0.00  0.00    +0.000 N 
ATOM     25  C   UNL     1      -0.395  10.011  19.551  0.00  0.00    +0.000 C 
BRANCH  24  26
ATOM     26  C   UNL     1       0.392  11.817  21.165  0.00  0.00    +0.000 C 
ATOM     27  C   UNL     1       0.385  12.826  19.990  0.00  0.00    +0.000 C 
ATOM     28  C   UNL     1      -0.995  13.059  19.364  0.00  0.00    +0.000 C 
ATOM     29  C   UNL     1      -2.082  13.338  20.398  0.00  0.00    +0.000 C 
ATOM     30  C   UNL     1      -2.050  12.359  21.567  0.00  0.00    +0.000 C 
ATOM     31  C   UNL     1      -0.661  12.284  22.191  0.00  0.00    +0.000 C 
ENDBRANCH  24  26
ENDBRANCH  21  22
ENDBRANCH  20  21
ENDBRANCH  18  20
ENDBRANCH   4  18
TORSDOF 7
ENDMDL
MODEL 7
REMARK VINA RESULT:      -7.4      1.292      1.829
REMARK  Name = 
REMARK  10 active torsions:
REMARK  status: ('A' for Active; 'I' for Inactive)
REMARK    1  A    between atoms: C_1  and  C_2
REMARK    2  A    between atoms: C_5  and  S_6
REMARK    3  A    between atoms: S_6  and  N_9
REMARK    4  A    between atoms: C_12  and  C_13
REMARK    5  A    between atoms: C_13  and  O_15
REMARK    6  A    between atoms: O_15  and  C_16
REMARK    7  A    between atoms: C_16  and  C_17
REMARK    8  A    between atoms: N_19  and  C_20
REMARK    9  A    between atoms: N_19  and  C_21
REMARK   10  A    between atoms: C_30  and  C_31
REMARK                            x       y       z     vdW  Elec       q    Type
REMARK                         _______ _______ _______ _____ _____    ______ ____
ROOT
ATOM      1  N   UNL     1       4.315   5.446  17.741  0.00  0.00    +0.000 NA
ATOM      2  C   UNL     1       4.536   6.770  17.109  0.00  0.00    +0.000 C 
ATOM      3  C   UNL     1       5.679   6.759  16.102  0.00  0.00    +0.000 C 
ATOM      4  C   UNL     1       6.945   6.118  16.657  0.00  0.00    +0.000 C 
ATOM      5  C   UNL     1       6.615   4.692  17.100  0.00  0.00    +0.000 C 
ATOM      6  C   UNL     1       5.491   4.631  18.130  0.00  0.00    +0.000 C 
ENDROOT
BRANCH   1   7
ATOM      7  S   UNL     1       2.977   5.374  18.822  0.00  0.00    +0.000 S 
ATOM      8  O   UNL     1       3.526   5.074  20.139  0.00  0.00    +0.000 OA
ATOM      9  O   UNL     1       1.960   4.542  18.236  0.00  0.00    +0.000 OA
BRANCH   7  14
ATOM     10  C   UNL     1       0.812  11.059  19.222  0.00  0.00    +0.000 C 
ATOM     11  C   UNL     1       1.307   9.642  19.152  0.00  0.00    +0.000 A 
ATOM     12  C   UNL     1       1.682   9.128  17.906  0.00  0.00    +0.000 A 
ATOM     13  C   UNL     1       2.178   7.833  17.788  0.00  0.00    +0.000 A 
ATOM     14  C   UNL     1       2.321   7.033  18.920  0.00  0.00    +0.000 A 
ATOM     15  C   UNL     1       1.925   7.522  20.170  0.00  0.00    +0.000 A 
ATOM     16  C   UNL     1       1.416   8.826  20.296  0.00  0.00    +0.000 A 
ATOM     17  C   UNL     1       1.004   9.328  21.650  0.00  0.00    +0.000 C 
ENDBRANCH   7  14
ENDBRANCH   1   7
BRANCH   4  18
ATOM     18  C   UNL     1       7.565   6.926  17.801  0.00  0.00    +0.000 C 
ATOM     19  O   UNL     1       7.870   6.472  18.880  0.00  0.00    +0.000 OA
BRANCH  18  20
ATOM     20  O   UNL     1       7.764   8.218  17.416  0.00  0.00    +0.000 OA
BRANCH  20  21
ATOM     21  C   UNL     1       8.421   8.990  18.419  0.00  0.00    +0.000 C 
BRANCH  21  22
ATOM     22  C   UNL     1       8.495  10.490  18.102  0.00  0.00    +0.000 C 
ATOM     23  O   UNL     1       7.815  10.966  17.189  0.00  0.00    +0.000 OA
ATOM     24  N   UNL     1       9.337  11.280  18.901  0.00  0.00    +0.000 N 
ATOM     25  C   UNL     1      10.164  10.710  19.961  0.00  0.00    +0.000 C 
BRANCH  24  26
ATOM     26  C   UNL     1       9.288  12.758  18.726  0.00  0.00    +0.000 C 
ATOM     27  C   UNL     1       9.713  13.604  19.951  0.00  0.00    +0.000 C 
ATOM     28  C   UNL     1      11.225  13.645  20.197  0.00  0.00    +0.000 C 
ATOM     29  C   UNL     1      12.028  13.969  18.940  0.00  0.00    +0.000 C 
ATOM     30  C   UNL     1      11.584  13.155  17.730  0.00  0.00    +0.000 C 
ATOM     31  C   UNL     1      10.080  13.269  17.505  0.00  0.00    +0.000 C 
ENDBRANCH  24  26
ENDBRANCH  21  22
ENDBRANCH  20  21
ENDBRANCH  18  20
ENDBRANCH   4  18
TORSDOF 7
ENDMDL
MODEL 8
REMARK VINA RESULT:      -7.4      5.129      7.880
REMARK  Name = 
REMARK  10 active torsions:
REMARK  status: ('A' for Active; 'I' for Inactive)
REMARK    1  A    between atoms: C_1  and  C_2
REMARK    2  A    between atoms: C_5  and  S_6
REMARK    3  A    between atoms: S_6  and  N_9
REMARK    4  A    between atoms: C_12  and  C_13
REMARK    5  A    between atoms: C_13  and  O_15
REMARK    6  A    between atoms: O_15  and  C_16
REMARK    7  A    between atoms: C_16  and  C_17
REMARK    8  A    between atoms: N_19  and  C_20
REMARK    9  A    between atoms: N_19  and  C_21
REMARK   10  A    between atoms: C_30  and  C_31
REMARK                            x       y       z     vdW  Elec       q    Type
REMARK                         _______ _______ _______ _____ _____    ______ ____
ROOT
ATOM      1  N   UNL     1       4.347   4.420  17.886  0.00  0.00    +0.000 NA
ATOM      2  C   UNL     1       4.250   3.365  18.924  0.00  0.00    +0.000 C 
ATOM      3  C   UNL     1       2.855   2.760  19.021  0.00  0.00    +0.000 C 
ATOM      4  C   UNL     1       1.760   3.817  19.107  0.00  0.00    +0.000 C 
ATOM      5  C   UNL     1       1.861   4.723  17.880  0.00  0.00    +0.000 C 
ATOM      6  C   UNL     1       3.230   5.382  17.734  0.00  0.00    +0.000 C 
ENDROOT
BRANCH   1   7
ATOM      7  S   UNL     1       5.922   5.079  17.667  0.00  0.00    +0.000 S 
ATOM      8  O   UNL     1       6.835   4.227  18.420  0.00  0.00    +0.000 OA
ATOM      9  O   UNL     1       5.862   6.496  17.907  0.00  0.00    +0.000 OA
BRANCH   7  14
ATOM     10  C   UNL     1       7.226   4.331  11.759  0.00  0.00    +0.000 C 
ATOM     11  C   UNL     1       6.890   4.467  13.217  0.00  0.00    +0.000 A 
ATOM     12  C   UNL     1       7.820   5.084  14.060  0.00  0.00    +0.000 A 
ATOM     13  C   UNL     1       7.548   5.265  15.413  0.00  0.00    +0.000 A 
ATOM     14  C   UNL     1       6.329   4.844  15.943  0.00  0.00    +0.000 A 
ATOM     15  C   UNL     1       5.399   4.201  15.118  0.00  0.00    +0.000 A 
ATOM     16  C   UNL     1       5.671   4.007  13.754  0.00  0.00    +0.000 A 
ATOM     17  C   UNL     1       4.652   3.319  12.891  0.00  0.00    +0.000 C 
ENDBRANCH   7  14
ENDBRANCH   1   7
BRANCH   4  18
ATOM     18  C   UNL     1       1.823   4.629  20.404  0.00  0.00    +0.000 C 
ATOM     19  O   UNL     1       2.471   4.323  21.379  0.00  0.00    +0.000 OA
BRANCH  18  20
ATOM     20  O   UNL     1       1.080   5.766  20.289  0.00  0.00    +0.000 OA
BRANCH  20  21
ATOM     21  C   UNL     1       1.782   6.922  20.739  0.00  0.00    +0.000 C 
BRANCH  21  22
ATOM     22  C   UNL     1       1.594   8.153  19.840  0.00  0.00    +0.000 C 
ATOM     23  O   UNL     1       2.234   8.259  18.791  0.00  0.00    +0.000 OA
ATOM     24  N   UNL     1       0.660   9.118  20.251  0.00  0.00    +0.000 N 
ATOM     25  C   UNL     1      -0.074   9.005  21.508  0.00  0.00    +0.000 C 
BRANCH  24  26
ATOM     26  C   UNL     1       0.334  10.225  19.310  0.00  0.00    +0.000 C 
ATOM     27  C   UNL     1      -1.093  10.817  19.422  0.00  0.00    +0.000 C 
ATOM     28  C   UNL     1      -1.305  11.732  20.633  0.00  0.00    +0.000 C 
ATOM     29  C   UNL     1      -0.208  12.783  20.789  0.00  0.00    +0.000 C 
ATOM     30  C   UNL     1       1.193  12.198  20.647  0.00  0.00    +0.000 C 
ATOM     31  C   UNL     1       1.334  11.399  19.357  0.00  0.00    +0.000 C 
ENDBRANCH  24  26
ENDBRANCH  21  22
ENDBRANCH  20  21
ENDBRANCH  18  20
ENDBRANCH   4  18
TORSDOF 7
ENDMDL
MODEL 9
REMARK VINA RESULT:      -7.3      1.078      1.670
REMARK  Name = 
REMARK  10 active torsions:
REMARK  status: ('A' for Active; 'I' for Inactive)
REMARK    1  A    between atoms: C_1  and  C_2
REMARK    2  A    between atoms: C_5  and  S_6
REMARK    3  A    between atoms: S_6  and  N_9
REMARK    4  A    between atoms: C_12  and  C_13
REMARK    5  A    between atoms: C_13  and  O_15
REMARK    6  A    between atoms: O_15  and  C_16
REMARK    7  A    between atoms: C_16  and  C_17
REMARK    8  A    between atoms: N_19  and  C_20
REMARK    9  A    between atoms: N_19  and  C_21
REMARK   10  A    between atoms: C_30  and  C_31
REMARK                            x       y       z     vdW  Elec       q    Type
REMARK                         _______ _______ _______ _____ _____    ______ ____
ROOT
ATOM      1  N   UNL     1       4.443   5.160  17.703  0.00  0.00    +0.000 NA
ATOM      2  C   UNL     1       4.561   6.448  16.976  0.00  0.00    +0.000 C 
ATOM      3  C   UNL     1       5.692   6.449  15.955  0.00  0.00    +0.000 C 
ATOM      4  C   UNL     1       7.007   5.943  16.535  0.00  0.00    +0.000 C 
ATOM      5  C   UNL     1       6.787   4.532  17.081  0.00  0.00    +0.000 C 
ATOM      6  C   UNL     1       5.680   4.462  18.130  0.00  0.00    +0.000 C 
ENDROOT
BRANCH   1   7
ATOM      7  S   UNL     1       3.126   5.068  18.806  0.00  0.00    +0.000 S 
ATOM      8  O   UNL     1       3.699   4.761  20.111  0.00  0.00    +0.000 OA
ATOM      9  O   UNL     1       2.105   4.235  18.230  0.00  0.00    +0.000 OA
BRANCH   7  14
ATOM     10  C   UNL     1       0.926  10.733  19.296  0.00  0.00    +0.000 C 
ATOM     11  C   UNL     1       1.430   9.321  19.204  0.00  0.00    +0.000 A 
ATOM     12  C   UNL     1       1.789   8.821  17.947  0.00  0.00    +0.000 A 
ATOM     13  C   UNL     1       2.292   7.531  17.808  0.00  0.00    +0.000 A 
ATOM     14  C   UNL     1       2.459   6.722  18.931  0.00  0.00    +0.000 A 
ATOM     15  C   UNL     1       2.080   7.196  20.192  0.00  0.00    +0.000 A 
ATOM     16  C   UNL     1       1.563   8.495  20.338  0.00  0.00    +0.000 A 
ATOM     17  C   UNL     1       1.169   8.980  21.703  0.00  0.00    +0.000 C 
ENDBRANCH   7  14
ENDBRANCH   1   7
BRANCH   4  18
ATOM     18  C   UNL     1       7.576   6.873  17.609  0.00  0.00    +0.000 C 
ATOM     19  O   UNL     1       7.691   6.586  18.779  0.00  0.00    +0.000 OA
BRANCH  18  20
ATOM     20  O   UNL     1       7.975   8.052  17.055  0.00  0.00    +0.000 OA
BRANCH  20  21
ATOM     21  C   UNL     1       7.576   9.180  17.828  0.00  0.00    +0.000 C 
BRANCH  21  22
ATOM     22  C   UNL     1       8.738   9.893  18.535  0.00  0.00    +0.000 C 
ATOM     23  O   UNL     1       9.453   9.278  19.330  0.00  0.00    +0.000 OA
ATOM     24  N   UNL     1       8.957  11.244  18.218  0.00  0.00    +0.000 N 
ATOM     25  C   UNL     1       8.092  11.979  17.299  0.00  0.00    +0.000 C 
BRANCH  24  26
ATOM     26  C   UNL     1      10.182  11.901  18.753  0.00  0.00    +0.000 C 
ATOM     27  C   UNL     1      10.383  13.386  18.365  0.00  0.00    +0.000 C 
ATOM     28  C   UNL     1       9.480  14.367  19.121  0.00  0.00    +0.000 C 
ATOM     29  C   UNL     1       9.480  14.139  20.630  0.00  0.00    +0.000 C 
ATOM     30  C   UNL     1       9.312  12.671  21.005  0.00  0.00    +0.000 C 
ATOM     31  C   UNL     1      10.329  11.793  20.285  0.00  0.00    +0.000 C 
ENDBRANCH  24  26
ENDBRANCH  21  22
ENDBRANCH  20  21
ENDBRANCH  18  20
ENDBRANCH   4  18
TORSDOF 7
ENDMDL
