MODEL 1
REMARK VINA RESULT:      -8.1      0.000      0.000
REMARK  Name = 
REMARK  7 active torsions:
REMARK  status: ('A' for Active; 'I' for Inactive)
REMARK    1  A    between atoms: C_1  and  C_2
REMARK    2  A    between atoms: C_6  and  C_7
REMARK    3  A    between atoms: C_8  and  N_9
REMARK    4  A    between atoms: C_13  and  S_14
REMARK    5  A    between atoms: S_14  and  C_15
REMARK    6  A    between atoms: C_15  and  C_16
REMARK    7  A    between atoms: C_18  and  O_19
REMARK                            x       y       z     vdW  Elec       q    Type
REMARK                         _______ _______ _______ _____ _____    ______ ____
ROOT
ATOM      1  N   UNL     1       1.781   7.415  20.513  0.00  0.00    +0.000 N 
ATOM      2  C   UNL     1       1.831   6.196  19.924  0.00  0.00    +0.000 A 
ATOM      3  N   UNL     1       1.619   5.892  18.667  0.00  0.00    +0.000 NA
ATOM      4  N   UNL     1       1.625   4.561  18.394  0.00  0.00    +0.000 NA
ATOM      5  C   UNL     1       2.019   3.861  19.426  0.00  0.00    +0.000 A 
ATOM      6  S   UNL     1       2.226   4.779  20.857  0.00  0.00    +0.000 S 
ATOM      7  H   UNL     1       2.039   7.407  21.490  0.00  0.00    +0.000 HD
ENDROOT
BRANCH   1  15
ATOM      8  C   UNL     1       2.538   8.893  17.808  0.00  0.00    +0.000 C 
ATOM      9  C   UNL     1       1.578   9.351  18.873  0.00  0.00    +0.000 A 
ATOM     10  C   UNL     1       0.964  10.588  18.577  0.00  0.00    +0.000 A 
ATOM     11  C   UNL     1       0.041  11.172  19.425  0.00  0.00    +0.000 A 
ATOM     12  C   UNL     1      -0.289  10.530  20.604  0.00  0.00    +0.000 A 
ATOM     13  C   UNL     1       0.305   9.299  20.947  0.00  0.00    +0.000 A 
ATOM     14  C   UNL     1      -0.141   8.688  22.255  0.00  0.00    +0.000 C 
ATOM     15  C   UNL     1       1.259   8.669  20.082  0.00  0.00    +0.000 A 
ENDBRANCH   1  15
BRANCH   5  16
ATOM     16  S   UNL     1       2.309   2.147  19.269  0.00  0.00    +0.000 S 
BRANCH  16  17
ATOM     17  C   UNL     1       4.120   2.135  19.594  0.00  0.00    +0.000 C 
BRANCH  17  18
ATOM     18  C   UNL     1       4.870   3.136  18.741  0.00  0.00    +0.000 A 
ATOM     19  N   UNL     1       4.555   3.214  17.435  0.00  0.00    +0.000 NA
ATOM     20  C   UNL     1       5.133   4.209  16.758  0.00  0.00    +0.000 A 
ATOM     21  C   UNL     1       6.038   5.116  17.282  0.00  0.00    +0.000 A 
ATOM     22  C   UNL     1       6.634   6.172  16.562  0.00  0.00    +0.000 A 
ATOM     23  C   UNL     1       7.535   7.027  17.195  0.00  0.00    +0.000 A 
ATOM     24  C   UNL     1       7.840   6.816  18.535  0.00  0.00    +0.000 A 
ATOM     25  C   UNL     1       7.233   5.771  19.239  0.00  0.00    +0.000 A 
ATOM     26  C   UNL     1       6.325   4.915  18.631  0.00  0.00    +0.000 A 
ATOM     27  N   UNL     1       5.750   3.948  19.359  0.00  0.00    +0.000 NA
BRANCH  20  28
ATOM     28  O   UNL     1       4.713   4.277  15.465  0.00  0.00    +0.000 OA
ATOM     29  H   UNL     1       5.388   3.713  15.038  0.00  0.00    +0.000 HD
ENDBRANCH  20  28
ENDBRANCH  17  18
ENDBRANCH  16  17
ENDBRANCH   5  16
TORSDOF 5
ENDMDL
MODEL 2
REMARK VINA RESULT:      -7.8      4.885      7.060
REMARK  Name = 
REMARK  7 active torsions:
REMARK  status: ('A' for Active; 'I' for Inactive)
REMARK    1  A    between atoms: C_1  and  C_2
REMARK    2  A    between atoms: C_6  and  C_7
REMARK    3  A    between atoms: C_8  and  N_9
REMARK    4  A    between atoms: C_13  and  S_14
REMARK    5  A    between atoms: S_14  and  C_15
REMARK    6  A    between atoms: C_15  and  C_16
REMARK    7  A    between atoms: C_18  and  O_19
REMARK                            x       y       z     vdW  Elec       q    Type
REMARK                         _______ _______ _______ _____ _____    ______ ____
ROOT
ATOM      1  N   UNL     1       4.419   4.296  19.527  0.00  0.00    +0.000 N 
ATOM      2  C   UNL     1       5.017   5.237  18.757  0.00  0.00    +0.000 A 
ATOM      3  N   UNL     1       4.470   6.020  17.860  0.00  0.00    +0.000 NA
ATOM      4  N   UNL     1       5.349   6.785  17.161  0.00  0.00    +0.000 NA
ATOM      5  C   UNL     1       6.556   6.705  17.657  0.00  0.00    +0.000 A 
ATOM      6  S   UNL     1       6.727   5.538  18.898  0.00  0.00    +0.000 S 
ATOM      7  H   UNL     1       5.042   3.855  20.190  0.00  0.00    +0.000 HD
ENDROOT
BRANCH   1  15
ATOM      8  C   UNL     1       3.791   1.522  18.117  0.00  0.00    +0.000 C 
ATOM      9  C   UNL     1       2.831   2.430  18.839  0.00  0.00    +0.000 A 
ATOM     10  C   UNL     1       1.508   1.934  18.868  0.00  0.00    +0.000 A 
ATOM     11  C   UNL     1       0.482   2.615  19.496  0.00  0.00    +0.000 A 
ATOM     12  C   UNL     1       0.754   3.824  20.109  0.00  0.00    +0.000 A 
ATOM     13  C   UNL     1       2.055   4.363  20.098  0.00  0.00    +0.000 A 
ATOM     14  C   UNL     1       2.234   5.685  20.808  0.00  0.00    +0.000 C 
ATOM     15  C   UNL     1       3.139   3.673  19.460  0.00  0.00    +0.000 A 
ENDBRANCH   1  15
BRANCH   5  16
ATOM     16  S   UNL     1       7.823   7.751  17.066  0.00  0.00    +0.000 S 
BRANCH  16  17
ATOM     17  C   UNL     1       8.358   8.481  18.667  0.00  0.00    +0.000 C 
BRANCH  17  18
ATOM     18  C   UNL     1       8.776   9.931  18.533  0.00  0.00    +0.000 A 
ATOM     19  N   UNL     1       8.123  10.695  17.640  0.00  0.00    +0.000 NA
ATOM     20  C   UNL     1       8.421  11.997  17.662  0.00  0.00    +0.000 A 
ATOM     21  C   UNL     1       9.358  12.590  18.491  0.00  0.00    +0.000 A 
ATOM     22  C   UNL     1       9.657  13.968  18.516  0.00  0.00    +0.000 A 
ATOM     23  C   UNL     1      10.623  14.455  19.396  0.00  0.00    +0.000 A 
ATOM     24  C   UNL     1      11.286  13.565  20.233  0.00  0.00    +0.000 A 
ATOM     25  C   UNL     1      10.971  12.204  20.204  0.00  0.00    +0.000 A 
ATOM     26  C   UNL     1      10.005  11.698  19.345  0.00  0.00    +0.000 A 
ATOM     27  N   UNL     1       9.721  10.389  19.378  0.00  0.00    +0.000 NA
BRANCH  20  28
ATOM     28  O   UNL     1       7.671  12.722  16.788  0.00  0.00    +0.000 OA
ATOM     29  H   UNL     1       6.996  12.057  16.552  0.00  0.00    +0.000 HD
ENDBRANCH  20  28
ENDBRANCH  17  18
ENDBRANCH  16  17
ENDBRANCH   5  16
TORSDOF 5
ENDMDL
MODEL 3
REMARK VINA RESULT:      -7.8      1.145      1.872
REMARK  Name = 
REMARK  7 active torsions:
REMARK  status: ('A' for Active; 'I' for Inactive)
REMARK    1  A    between atoms: C_1  and  C_2
REMARK    2  A    between atoms: C_6  and  C_7
REMARK    3  A    between atoms: C_8  and  N_9
REMARK    4  A    between atoms: C_13  and  S_14
REMARK    5  A    between atoms: S_14  and  C_15
REMARK    6  A    between atoms: C_15  and  C_16
REMARK    7  A    between atoms: C_18  and  O_19
REMARK                            x       y       z     vdW  Elec       q    Type
REMARK                         _______ _______ _______ _____ _____    ______ ____
ROOT
ATOM      1  N   UNL     1       1.773   7.369  20.520  0.00  0.00    +0.000 N 
ATOM      2  C   UNL     1       1.791   6.136  19.957  0.00  0.00    +0.000 A 
ATOM      3  N   UNL     1       1.597   5.813  18.702  0.00  0.00    +0.000 NA
ATOM      4  N   UNL     1       1.559   4.477  18.458  0.00  0.00    +0.000 NA
ATOM      5  C   UNL     1       1.903   3.786  19.514  0.00  0.00    +0.000 A 
ATOM      6  S   UNL     1       2.111   4.727  20.929  0.00  0.00    +0.000 S 
ATOM      7  H   UNL     1       2.008   7.373  21.502  0.00  0.00    +0.000 HD
ENDROOT
BRANCH   1  15
ATOM      8  C   UNL     1       2.629   8.748  17.792  0.00  0.00    +0.000 C 
ATOM      9  C   UNL     1       1.672   9.270  18.830  0.00  0.00    +0.000 A 
ATOM     10  C   UNL     1       1.113  10.523  18.494  0.00  0.00    +0.000 A 
ATOM     11  C   UNL     1       0.201  11.164  19.313  0.00  0.00    +0.000 A 
ATOM     12  C   UNL     1      -0.173  10.565  20.501  0.00  0.00    +0.000 A 
ATOM     13  C   UNL     1       0.366   9.320  20.883  0.00  0.00    +0.000 A 
ATOM     14  C   UNL     1      -0.123   8.760  22.199  0.00  0.00    +0.000 C 
ATOM     15  C   UNL     1       1.308   8.632  20.049  0.00  0.00    +0.000 A 
ENDBRANCH   1  15
BRANCH   5  16
ATOM     16  S   UNL     1       2.132   2.060  19.400  0.00  0.00    +0.000 S 
BRANCH  16  17
ATOM     17  C   UNL     1       3.949   1.995  19.682  0.00  0.00    +0.000 C 
BRANCH  17  18
ATOM     18  C   UNL     1       4.690   3.092  18.946  0.00  0.00    +0.000 A 
ATOM     19  N   UNL     1       5.492   3.900  19.662  0.00  0.00    +0.000 NA
ATOM     20  C   UNL     1       6.238   4.753  18.954  0.00  0.00    +0.000 A 
ATOM     21  C   UNL     1       6.212   4.886  17.577  0.00  0.00    +0.000 A 
ATOM     22  C   UNL     1       7.013   5.781  16.836  0.00  0.00    +0.000 A 
ATOM     23  C   UNL     1       6.902   5.828  15.447  0.00  0.00    +0.000 A 
ATOM     24  C   UNL     1       5.992   4.993  14.812  0.00  0.00    +0.000 A 
ATOM     25  C   UNL     1       5.213   4.103  15.558  0.00  0.00    +0.000 A 
ATOM     26  C   UNL     1       5.314   4.031  16.940  0.00  0.00    +0.000 A 
ATOM     27  N   UNL     1       4.565   3.140  17.605  0.00  0.00    +0.000 NA
BRANCH  20  28
ATOM     28  O   UNL     1       7.080   5.485  19.733  0.00  0.00    +0.000 OA
ATOM     29  H   UNL     1       6.555   5.528  20.556  0.00  0.00    +0.000 HD
ENDBRANCH  20  28
ENDBRANCH  17  18
ENDBRANCH  16  17
ENDBRANCH   5  16
TORSDOF 5
ENDMDL
MODEL 4
REMARK VINA RESULT:      -7.7      0.947      1.061
REMARK  Name = 
REMARK  7 active torsions:
REMARK  status: ('A' for Active; 'I' for Inactive)
REMARK    1  A    between atoms: C_1  and  C_2
REMARK    2  A    between atoms: C_6  and  C_7
REMARK    3  A    between atoms: C_8  and  N_9
REMARK    4  A    between atoms: C_13  and  S_14
REMARK    5  A    between atoms: S_14  and  C_15
REMARK    6  A    between atoms: C_15  and  C_16
REMARK    7  A    between atoms: C_18  and  O_19
REMARK                            x       y       z     vdW  Elec       q    Type
REMARK                         _______ _______ _______ _____ _____    ______ ____
ROOT
ATOM      1  N   UNL     1       1.837   7.732  20.472  0.00  0.00    +0.000 N 
ATOM      2  C   UNL     1       2.050   6.536  19.872  0.00  0.00    +0.000 A 
ATOM      3  N   UNL     1       1.832   6.203  18.624  0.00  0.00    +0.000 NA
ATOM      4  N   UNL     1       2.033   4.890  18.341  0.00  0.00    +0.000 NA
ATOM      5  C   UNL     1       2.576   4.259  19.350  0.00  0.00    +0.000 A 
ATOM      6  S   UNL     1       2.701   5.197  20.777  0.00  0.00    +0.000 S 
ATOM      7  H   UNL     1       2.136   7.764  21.437  0.00  0.00    +0.000 HD
ENDROOT
BRANCH   1  15
ATOM      8  C   UNL     1       2.257   9.330  17.763  0.00  0.00    +0.000 C 
ATOM      9  C   UNL     1       1.273   9.622  18.864  0.00  0.00    +0.000 A 
ATOM     10  C   UNL     1       0.461  10.748  18.603  0.00  0.00    +0.000 A 
ATOM     11  C   UNL     1      -0.515  11.171  19.487  0.00  0.00    +0.000 A 
ATOM     12  C   UNL     1      -0.698  10.477  20.668  0.00  0.00    +0.000 A 
ATOM     13  C   UNL     1       0.095   9.354  20.976  0.00  0.00    +0.000 A 
ATOM     14  C   UNL     1      -0.203   8.670  22.291  0.00  0.00    +0.000 C 
ATOM     15  C   UNL     1       1.108   8.890  20.073  0.00  0.00    +0.000 A 
ENDBRANCH   1  15
BRANCH   5  16
ATOM     16  S   UNL     1       3.121   2.611  19.168  0.00  0.00    +0.000 S 
BRANCH  16  17
ATOM     17  C   UNL     1       3.839   2.734  17.479  0.00  0.00    +0.000 C 
BRANCH  17  18
ATOM     18  C   UNL     1       4.810   3.888  17.342  0.00  0.00    +0.000 A 
ATOM     19  N   UNL     1       4.673   4.705  16.283  0.00  0.00    +0.000 NA
ATOM     20  C   UNL     1       5.452   5.790  16.283  0.00  0.00    +0.000 A 
ATOM     21  C   UNL     1       6.393   6.100  17.251  0.00  0.00    +0.000 A 
ATOM     22  C   UNL     1       7.202   7.255  17.249  0.00  0.00    +0.000 A 
ATOM     23  C   UNL     1       8.118   7.466  18.279  0.00  0.00    +0.000 A 
ATOM     24  C   UNL     1       8.225   6.521  19.292  0.00  0.00    +0.000 A 
ATOM     25  C   UNL     1       7.407   5.387  19.287  0.00  0.00    +0.000 A 
ATOM     26  C   UNL     1       6.481   5.163  18.278  0.00  0.00    +0.000 A 
ATOM     27  N   UNL     1       5.702   4.074  18.335  0.00  0.00    +0.000 NA
BRANCH  20  28
ATOM     28  O   UNL     1       5.209   6.610  15.225  0.00  0.00    +0.000 OA
ATOM     29  H   UNL     1       4.289   6.354  15.020  0.00  0.00    +0.000 HD
ENDBRANCH  20  28
ENDBRANCH  17  18
ENDBRANCH  16  17
ENDBRANCH   5  16
TORSDOF 5
ENDMDL
MODEL 5
REMARK VINA RESULT:      -7.6      4.213      8.746
REMARK  Name = 
REMARK  7 active torsions:
REMARK  status: ('A' for Active; 'I' for Inactive)
REMARK    1  A    between atoms: C_1  and  C_2
REMARK    2  A    between atoms: C_6  and  C_7
REMARK    3  A    between atoms: C_8  and  N_9
REMARK    4  A    between atoms: C_13  and  S_14
REMARK    5  A    between atoms: S_14  and  C_15
REMARK    6  A    between atoms: C_15  and  C_16
REMARK    7  A    between atoms: C_18  and  O_19
REMARK                            x       y       z     vdW  Elec       q    Type
REMARK                         _______ _______ _______ _____ _____    ______ ____
ROOT
ATOM      1  N   UNL     1       2.367   6.662  20.590  0.00  0.00    +0.000 N 
ATOM      2  C   UNL     1       1.357   7.414  21.091  0.00  0.00    +0.000 A 
ATOM      3  N   UNL     1       0.081   7.122  21.155  0.00  0.00    +0.000 NA
ATOM      4  N   UNL     1      -0.711   8.129  21.607  0.00  0.00    +0.000 NA
ATOM      5  C   UNL     1      -0.003   9.134  22.053  0.00  0.00    +0.000 A 
ATOM      6  S   UNL     1       1.679   8.984  21.773  0.00  0.00    +0.000 S 
ATOM      7  H   UNL     1       3.281   7.078  20.703  0.00  0.00    +0.000 HD
ENDROOT
BRANCH   1  15
ATOM      8  C   UNL     1       1.860   3.696  21.601  0.00  0.00    +0.000 C 
ATOM      9  C   UNL     1       2.152   4.156  20.198  0.00  0.00    +0.000 A 
ATOM     10  C   UNL     1       2.184   3.100  19.260  0.00  0.00    +0.000 A 
ATOM     11  C   UNL     1       2.423   3.320  17.916  0.00  0.00    +0.000 A 
ATOM     12  C   UNL     1       2.645   4.610  17.474  0.00  0.00    +0.000 A 
ATOM     13  C   UNL     1       2.632   5.694  18.374  0.00  0.00    +0.000 A 
ATOM     14  C   UNL     1       2.878   7.059  17.774  0.00  0.00    +0.000 C 
ATOM     15  C   UNL     1       2.379   5.495  19.772  0.00  0.00    +0.000 A 
ENDBRANCH   1  15
BRANCH   5  16
ATOM     16  S   UNL     1      -0.781  10.463  22.874  0.00  0.00    +0.000 S 
BRANCH  16  17
ATOM     17  C   UNL     1      -0.565  11.759  21.586  0.00  0.00    +0.000 C 
BRANCH  17  18
ATOM     18  C   UNL     1      -1.569  11.631  20.459  0.00  0.00    +0.000 A 
ATOM     19  N   UNL     1      -2.687  12.375  20.524  0.00  0.00    +0.000 NA
ATOM     20  C   UNL     1      -3.468  12.343  19.441  0.00  0.00    +0.000 A 
ATOM     21  C   UNL     1      -3.234  11.586  18.306  0.00  0.00    +0.000 A 
ATOM     22  C   UNL     1      -4.059  11.568  17.162  0.00  0.00    +0.000 A 
ATOM     23  C   UNL     1      -3.723  10.764  16.073  0.00  0.00    +0.000 A 
ATOM     24  C   UNL     1      -2.576   9.982  16.139  0.00  0.00    +0.000 A 
ATOM     25  C   UNL     1      -1.762  10.019  17.275  0.00  0.00    +0.000 A 
ATOM     26  C   UNL     1      -2.071  10.819  18.366  0.00  0.00    +0.000 A 
ATOM     27  N   UNL     1      -1.242  10.839  19.418  0.00  0.00    +0.000 NA
BRANCH  20  28
ATOM     28  O   UNL     1      -4.541  13.175  19.543  0.00  0.00    +0.000 OA
ATOM     29  H   UNL     1      -4.613  13.472  18.615  0.00  0.00    +0.000 HD
ENDBRANCH  20  28
ENDBRANCH  17  18
ENDBRANCH  16  17
ENDBRANCH   5  16
TORSDOF 5
ENDMDL
MODEL 6
REMARK VINA RESULT:      -7.6      0.190      1.694
REMARK  Name = 
REMARK  7 active torsions:
REMARK  status: ('A' for Active; 'I' for Inactive)
REMARK    1  A    between atoms: C_1  and  C_2
REMARK    2  A    between atoms: C_6  and  C_7
REMARK    3  A    between atoms: C_8  and  N_9
REMARK    4  A    between atoms: C_13  and  S_14
REMARK    5  A    between atoms: S_14  and  C_15
REMARK    6  A    between atoms: C_15  and  C_16
REMARK    7  A    between atoms: C_18  and  O_19
REMARK                            x       y       z     vdW  Elec       q    Type
REMARK                         _______ _______ _______ _____ _____    ______ ____
ROOT
ATOM      1  N   UNL     1       1.891   7.345  20.452  0.00  0.00    +0.000 N 
ATOM      2  C   UNL     1       1.873   6.117  19.880  0.00  0.00    +0.000 A 
ATOM      3  N   UNL     1       1.486   5.788  18.673  0.00  0.00    +0.000 NA
ATOM      4  N   UNL     1       1.472   4.453  18.423  0.00  0.00    +0.000 NA
ATOM      5  C   UNL     1       2.022   3.776  19.397  0.00  0.00    +0.000 A 
ATOM      6  S   UNL     1       2.421   4.722  20.768  0.00  0.00    +0.000 S 
ATOM      7  H   UNL     1       2.288   7.358  21.381  0.00  0.00    +0.000 HD
ENDROOT
BRANCH   1  15
ATOM      8  C   UNL     1      -0.257   8.939  22.160  0.00  0.00    +0.000 C 
ATOM      9  C   UNL     1       0.332   9.322  20.829  0.00  0.00    +0.000 A 
ATOM     10  C   UNL     1      -0.159  10.550  20.332  0.00  0.00    +0.000 A 
ATOM     11  C   UNL     1       0.270  11.081  19.130  0.00  0.00    +0.000 A 
ATOM     12  C   UNL     1       1.205  10.387  18.384  0.00  0.00    +0.000 A 
ATOM     13  C   UNL     1       1.717   9.154  18.834  0.00  0.00    +0.000 A 
ATOM     14  C   UNL     1       2.740   8.493  17.940  0.00  0.00    +0.000 C 
ATOM     15  C   UNL     1       1.294   8.585  20.081  0.00  0.00    +0.000 A 
ENDBRANCH   1  15
BRANCH   5  16
ATOM     16  S   UNL     1       2.312   2.064  19.227  0.00  0.00    +0.000 S 
BRANCH  16  17
ATOM     17  C   UNL     1       4.127   2.051  19.527  0.00  0.00    +0.000 C 
BRANCH  17  18
ATOM     18  C   UNL     1       4.862   3.075  18.688  0.00  0.00    +0.000 A 
ATOM     19  N   UNL     1       4.536   3.174  17.387  0.00  0.00    +0.000 NA
ATOM     20  C   UNL     1       5.100   4.187  16.724  0.00  0.00    +0.000 A 
ATOM     21  C   UNL     1       6.003   5.091  17.258  0.00  0.00    +0.000 A 
ATOM     22  C   UNL     1       6.584   6.165  16.552  0.00  0.00    +0.000 A 
ATOM     23  C   UNL     1       7.483   7.015  17.195  0.00  0.00    +0.000 A 
ATOM     24  C   UNL     1       7.801   6.781  18.527  0.00  0.00    +0.000 A 
ATOM     25  C   UNL     1       7.208   5.719  19.216  0.00  0.00    +0.000 A 
ATOM     26  C   UNL     1       6.302   4.867  18.600  0.00  0.00    +0.000 A 
ATOM     27  N   UNL     1       5.741   3.882  19.315  0.00  0.00    +0.000 NA
BRANCH  20  28
ATOM     28  O   UNL     1       4.670   4.275  15.435  0.00  0.00    +0.000 OA
ATOM     29  H   UNL     1       4.248   3.399  15.337  0.00  0.00    +0.000 HD
ENDBRANCH  20  28
ENDBRANCH  17  18
ENDBRANCH  16  17
ENDBRANCH   5  16
TORSDOF 5
ENDMDL
MODEL 7
REMARK VINA RESULT:      -7.6      4.937      7.224
REMARK  Name = 
REMARK  7 active torsions:
REMARK  status: ('A' for Active; 'I' for Inactive)
REMARK    1  A    between atoms: C_1  and  C_2
REMARK    2  A    between atoms: C_6  and  C_7
REMARK    3  A    between atoms: C_8  and  N_9
REMARK    4  A    between atoms: C_13  and  S_14
REMARK    5  A    between atoms: S_14  and  C_15
REMARK    6  A    between atoms: C_15  and  C_16
REMARK    7  A    between atoms: C_18  and  O_19
REMARK                            x       y       z     vdW  Elec       q    Type
REMARK                         _______ _______ _______ _____ _____    ______ ____
ROOT
ATOM      1  N   UNL     1       3.691   4.940  18.086  0.00  0.00    +0.000 N 
ATOM      2  C   UNL     1       4.946   5.330  18.417  0.00  0.00    +0.000 A 
ATOM      3  N   UNL     1       5.710   4.878  19.380  0.00  0.00    +0.000 NA
ATOM      4  N   UNL     1       6.880   5.549  19.542  0.00  0.00    +0.000 NA
ATOM      5  C   UNL     1       7.078   6.409  18.577  0.00  0.00    +0.000 A 
ATOM      6  S   UNL     1       5.750   6.581  17.509  0.00  0.00    +0.000 S 
ATOM      7  H   UNL     1       3.324   5.399  17.264  0.00  0.00    +0.000 HD
ENDROOT
BRANCH   1  15
ATOM      8  C   UNL     1       3.178   1.841  17.633  0.00  0.00    +0.000 C 
ATOM      9  C   UNL     1       2.471   2.763  18.589  0.00  0.00    +0.000 A 
ATOM     10  C   UNL     1       1.476   2.117  19.356  0.00  0.00    +0.000 A 
ATOM     11  C   UNL     1       0.725   2.791  20.301  0.00  0.00    +0.000 A 
ATOM     12  C   UNL     1       0.946   4.141  20.500  0.00  0.00    +0.000 A 
ATOM     13  C   UNL     1       1.921   4.830  19.751  0.00  0.00    +0.000 A 
ATOM     14  C   UNL     1       2.080   6.301  20.061  0.00  0.00    +0.000 C 
ATOM     15  C   UNL     1       2.719   4.153  18.770  0.00  0.00    +0.000 A 
ENDBRANCH   1  15
BRANCH   5  16
ATOM     16  S   UNL     1       8.602   7.249  18.444  0.00  0.00    +0.000 S 
BRANCH  16  17
ATOM     17  C   UNL     1       7.971   8.909  17.965  0.00  0.00    +0.000 C 
BRANCH  17  18
ATOM     18  C   UNL     1       8.810  10.035  18.531  0.00  0.00    +0.000 A 
ATOM     19  N   UNL     1       8.795  10.225  19.863  0.00  0.00    +0.000 NA
ATOM     20  C   UNL     1       9.661  11.127  20.330  0.00  0.00    +0.000 A 
ATOM     21  C   UNL     1      10.520  11.889  19.556  0.00  0.00    +0.000 A 
ATOM     22  C   UNL     1      11.440  12.832  20.059  0.00  0.00    +0.000 A 
ATOM     23  C   UNL     1      12.258  13.544  19.183  0.00  0.00    +0.000 A 
ATOM     24  C   UNL     1      12.144  13.317  17.817  0.00  0.00    +0.000 A 
ATOM     25  C   UNL     1      11.235  12.371  17.333  0.00  0.00    +0.000 A 
ATOM     26  C   UNL     1      10.419  11.643  18.188  0.00  0.00    +0.000 A 
ATOM     27  N   UNL     1       9.586  10.729  17.674  0.00  0.00    +0.000 NA
BRANCH  20  28
ATOM     28  O   UNL     1       9.648  11.213  21.688  0.00  0.00    +0.000 OA
ATOM     29  H   UNL     1      10.100  10.378  21.915  0.00  0.00    +0.000 HD
ENDBRANCH  20  28
ENDBRANCH  17  18
ENDBRANCH  16  17
ENDBRANCH   5  16
TORSDOF 5
ENDMDL
MODEL 8
REMARK VINA RESULT:      -7.5      4.722      7.448
REMARK  Name = 
REMARK  7 active torsions:
REMARK  status: ('A' for Active; 'I' for Inactive)
REMARK    1  A    between atoms: C_1  and  C_2
REMARK    2  A    between atoms: C_6  and  C_7
REMARK    3  A    between atoms: C_8  and  N_9
REMARK    4  A    between atoms: C_13  and  S_14
REMARK    5  A    between atoms: S_14  and  C_15
REMARK    6  A    between atoms: C_15  and  C_16
REMARK    7  A    between atoms: C_18  and  O_19
REMARK                            x       y       z     vdW  Elec       q    Type
REMARK                         _______ _______ _______ _____ _____    ______ ____
ROOT
ATOM      1  N   UNL     1       9.527   9.886  19.687  0.00  0.00    +0.000 N 
ATOM      2  C   UNL     1       8.710   9.238  18.822  0.00  0.00    +0.000 A 
ATOM      3  N   UNL     1       8.025   9.736  17.823  0.00  0.00    +0.000 NA
ATOM      4  N   UNL     1       7.199   8.853  17.203  0.00  0.00    +0.000 NA
ATOM      5  C   UNL     1       7.392   7.633  17.630  0.00  0.00    +0.000 A 
ATOM      6  S   UNL     1       8.470   7.517  18.956  0.00  0.00    +0.000 S 
ATOM      7  H   UNL     1       9.992   9.277  20.345  0.00  0.00    +0.000 HD
ENDROOT
BRANCH   1  15
ATOM      8  C   UNL     1       8.369  11.416  22.216  0.00  0.00    +0.000 C 
ATOM      9  C   UNL     1       9.211  11.978  21.103  0.00  0.00    +0.000 A 
ATOM     10  C   UNL     1       9.495  13.354  21.257  0.00  0.00    +0.000 A 
ATOM     11  C   UNL     1      10.266  14.051  20.346  0.00  0.00    +0.000 A 
ATOM     12  C   UNL     1      10.771  13.387  19.244  0.00  0.00    +0.000 A 
ATOM     13  C   UNL     1      10.505  12.018  19.042  0.00  0.00    +0.000 A 
ATOM     14  C   UNL     1      11.117  11.398  17.807  0.00  0.00    +0.000 C 
ATOM     15  C   UNL     1       9.715  11.270  19.976  0.00  0.00    +0.000 A 
ENDBRANCH   1  15
BRANCH   5  16
ATOM     16  S   UNL     1       6.601   6.289  16.846  0.00  0.00    +0.000 S 
BRANCH  16  17
ATOM     17  C   UNL     1       6.613   5.096  18.246  0.00  0.00    +0.000 C 
BRANCH  17  18
ATOM     18  C   UNL     1       5.221   4.786  18.757  0.00  0.00    +0.000 A 
ATOM     19  N   UNL     1       4.565   5.751  19.426  0.00  0.00    +0.000 NA
ATOM     20  C   UNL     1       3.291   5.487  19.725  0.00  0.00    +0.000 A 
ATOM     21  C   UNL     1       2.630   4.304  19.439  0.00  0.00    +0.000 A 
ATOM     22  C   UNL     1       1.280   4.038  19.749  0.00  0.00    +0.000 A 
ATOM     23  C   UNL     1       0.718   2.808  19.412  0.00  0.00    +0.000 A 
ATOM     24  C   UNL     1       1.506   1.854  18.780  0.00  0.00    +0.000 A 
ATOM     25  C   UNL     1       2.840   2.137  18.469  0.00  0.00    +0.000 A 
ATOM     26  C   UNL     1       3.417   3.358  18.785  0.00  0.00    +0.000 A 
ATOM     27  N   UNL     1       4.691   3.588  18.440  0.00  0.00    +0.000 NA
BRANCH  20  28
ATOM     28  O   UNL     1       2.666   6.533  20.331  0.00  0.00    +0.000 OA
ATOM     29  H   UNL     1       2.308   6.993  19.548  0.00  0.00    +0.000 HD
ENDBRANCH  20  28
ENDBRANCH  17  18
ENDBRANCH  16  17
ENDBRANCH   5  16
TORSDOF 5
ENDMDL
MODEL 9
REMARK VINA RESULT:      -7.5      1.063      2.086
REMARK  Name = 
REMARK  7 active torsions:
REMARK  status: ('A' for Active; 'I' for Inactive)
REMARK    1  A    between atoms: C_1  and  C_2
REMARK    2  A    between atoms: C_6  and  C_7
REMARK    3  A    between atoms: C_8  and  N_9
REMARK    4  A    between atoms: C_13  and  S_14
REMARK    5  A    between atoms: S_14  and  C_15
REMARK    6  A    between atoms: C_15  and  C_16
REMARK    7  A    between atoms: C_18  and  O_19
REMARK                            x       y       z     vdW  Elec       q    Type
REMARK                         _______ _______ _______ _____ _____    ______ ____
ROOT
ATOM      1  N   UNL     1       2.166   7.588  20.117  0.00  0.00    +0.000 N 
ATOM      2  C   UNL     1       2.264   6.369  19.535  0.00  0.00    +0.000 A 
ATOM      3  N   UNL     1       1.690   5.945  18.436  0.00  0.00    +0.000 NA
ATOM      4  N   UNL     1       1.884   4.629  18.163  0.00  0.00    +0.000 NA
ATOM      5  C   UNL     1       2.760   4.094  18.974  0.00  0.00    +0.000 A 
ATOM      6  S   UNL     1       3.260   5.128  20.245  0.00  0.00    +0.000 S 
ATOM      7  H   UNL     1       2.750   7.698  20.935  0.00  0.00    +0.000 HD
ENDROOT
BRANCH   1  15
ATOM      8  C   UNL     1      -0.087   8.514  22.152  0.00  0.00    +0.000 C 
ATOM      9  C   UNL     1       0.253   9.115  20.816  0.00  0.00    +0.000 A 
ATOM     10  C   UNL     1      -0.553  10.227  20.482  0.00  0.00    +0.000 A 
ATOM     11  C   UNL     1      -0.387  10.926  19.301  0.00  0.00    +0.000 A 
ATOM     12  C   UNL     1       0.593  10.524  18.412  0.00  0.00    +0.000 A 
ATOM     13  C   UNL     1       1.414   9.415  18.698  0.00  0.00    +0.000 A 
ATOM     14  C   UNL     1       2.457   9.075  17.657  0.00  0.00    +0.000 C 
ATOM     15  C   UNL     1       1.268   8.678  19.919  0.00  0.00    +0.000 A 
ENDBRANCH   1  15
BRANCH   5  16
ATOM     16  S   UNL     1       3.336   2.470  18.702  0.00  0.00    +0.000 S 
BRANCH  16  17
ATOM     17  C   UNL     1       4.123   2.718  17.058  0.00  0.00    +0.000 C 
BRANCH  17  18
ATOM     18  C   UNL     1       4.988   3.960  17.010  0.00  0.00    +0.000 A 
ATOM     19  N   UNL     1       4.728   4.874  16.058  0.00  0.00    +0.000 NA
ATOM     20  C   UNL     1       5.414   6.015  16.146  0.00  0.00    +0.000 A 
ATOM     21  C   UNL     1       6.378   6.299  17.099  0.00  0.00    +0.000 A 
ATOM     22  C   UNL     1       7.089   7.513  17.192  0.00  0.00    +0.000 A 
ATOM     23  C   UNL     1       8.040   7.689  18.197  0.00  0.00    +0.000 A 
ATOM     24  C   UNL     1       8.278   6.652  19.091  0.00  0.00    +0.000 A 
ATOM     25  C   UNL     1       7.556   5.459  18.993  0.00  0.00    +0.000 A 
ATOM     26  C   UNL     1       6.598   5.266  18.008  0.00  0.00    +0.000 A 
ATOM     27  N   UNL     1       5.915   4.114  17.977  0.00  0.00    +0.000 NA
BRANCH  20  28
ATOM     28  O   UNL     1       5.048   6.923  15.200  0.00  0.00    +0.000 OA
ATOM     29  H   UNL     1       5.329   6.449  14.394  0.00  0.00    +0.000 HD
ENDBRANCH  20  28
ENDBRANCH  17  18
ENDBRANCH  16  17
ENDBRANCH   5  16
TORSDOF 5
ENDMDL
