MODEL 1
REMARK VINA RESULT:      -8.4      0.000      0.000
REMARK  Name = 
REMARK  7 active torsions:
REMARK  status: ('A' for Active; 'I' for Inactive)
REMARK    1  A    between atoms: C_1  and  S_2
REMARK    2  A    between atoms: S_2  and  C_5
REMARK    3  A    between atoms: C_8  and  C_9
REMARK    4  A    between atoms: C_14  and  C_15
REMARK    5  A    between atoms: C_20  and  C_21
REMARK    6  A    between atoms: N_23  and  C_24
REMARK    7  A    between atoms: C_24  and  C_25
REMARK                            x       y       z     vdW  Elec       q    Type
REMARK                         _______ _______ _______ _____ _____    ______ ____
ROOT
ATOM      1  C   UNL     1       3.092   5.858  19.419  0.00  0.00    +0.000 A 
ATOM      2  C   UNL     1       2.468   4.952  20.342  0.00  0.00    +0.000 A 
ATOM      3  C   UNL     1       2.854   3.624  20.507  0.00  0.00    +0.000 A 
ATOM      4  C   UNL     1       3.914   3.146  19.779  0.00  0.00    +0.000 A 
ATOM      5  C   UNL     1       4.572   4.008  18.908  0.00  0.00    +0.000 A 
ATOM      6  C   UNL     1       4.211   5.366  18.685  0.00  0.00    +0.000 A 
ENDROOT
BRANCH   1  10
ATOM      7  C   UNL     1       0.947   9.606  19.090  0.00  0.00    +0.000 A 
ATOM      8  C   UNL     1       1.641   9.120  17.987  0.00  0.00    +0.000 A 
ATOM      9  C   UNL     1       2.395   7.943  18.099  0.00  0.00    +0.000 A 
ATOM     10  C   UNL     1       2.429   7.200  19.286  0.00  0.00    +0.000 A 
ATOM     11  C   UNL     1       1.800   7.800  20.410  0.00  0.00    +0.000 A 
ATOM     12  C   UNL     1       1.089   9.001  20.329  0.00  0.00    +0.000 A 
BRANCH   7  14
ATOM     13  C   UNL     1      -0.767  11.154  20.588  0.00  0.00    +0.000 C 
ATOM     14  S   UNL     1      -0.214  10.933  18.909  0.00  0.00    +0.000 S 
ATOM     15  O   UNL     1      -1.331  10.445  18.126  0.00  0.00    +0.000 OA
ATOM     16  O   UNL     1       0.522  12.118  18.510  0.00  0.00    +0.000 OA
ENDBRANCH   7  14
ENDBRANCH   1  10
BRANCH   6  17
ATOM     17  C   UNL     1       5.086   6.164  17.667  0.00  0.00    +0.000 C 
ATOM     18  C   UNL     1       4.953   5.673  16.201  0.00  0.00    +0.000 C 
ATOM     19  C   UNL     1       5.734   4.411  15.838  0.00  0.00    +0.000 C 
ATOM     20  C   UNL     1       7.137   4.327  16.439  0.00  0.00    +0.000 C 
ATOM     21  C   UNL     1       7.316   4.876  17.859  0.00  0.00    +0.000 C 
ATOM     22  C   UNL     1       6.582   6.208  18.106  0.00  0.00    +0.000 C 
BRANCH  22  23
ATOM     23  C   UNL     1       7.447   7.305  17.450  0.00  0.00    +0.000 C 
ATOM     24  O   UNL     1       7.982   7.208  16.352  0.00  0.00    +0.000 OA
ATOM     25  N   UNL     1       7.662   8.384  18.288  0.00  0.00    +0.000 N 
ATOM     26  H   UNL     1       7.242   8.371  19.211  0.00  0.00    +0.000 HD
BRANCH  25  27
ATOM     27  C   UNL     1       8.721   9.361  18.049  0.00  0.00    +0.000 C 
BRANCH  27  28
ATOM     28  C   UNL     1       9.059  10.109  19.329  0.00  0.00    +0.000 C 
ATOM     29  N   UNL     1       9.339  10.730  20.389  0.00  0.00    +0.000 NA
ENDBRANCH  27  28
ENDBRANCH  25  27
ENDBRANCH  22  23
ENDBRANCH   6  17
TORSDOF 6
ENDMDL
MODEL 2
REMARK VINA RESULT:      -8.4      0.601      1.100
REMARK  Name = 
REMARK  7 active torsions:
REMARK  status: ('A' for Active; 'I' for Inactive)
REMARK    1  A    between atoms: C_1  and  S_2
REMARK    2  A    between atoms: S_2  and  C_5
REMARK    3  A    between atoms: C_8  and  C_9
REMARK    4  A    between atoms: C_14  and  C_15
REMARK    5  A    between atoms: C_20  and  C_21
REMARK    6  A    between atoms: N_23  and  C_24
REMARK    7  A    between atoms: C_24  and  C_25
REMARK                            x       y       z     vdW  Elec       q    Type
REMARK                         _______ _______ _______ _____ _____    ______ ____
ROOT
ATOM      1  C   UNL     1       3.105   5.720  19.501  0.00  0.00    +0.000 A 
ATOM      2  C   UNL     1       2.542   4.817  20.464  0.00  0.00    +0.000 A 
ATOM      3  C   UNL     1       2.965   3.501  20.634  0.00  0.00    +0.000 A 
ATOM      4  C   UNL     1       4.005   3.035  19.870  0.00  0.00    +0.000 A 
ATOM      5  C   UNL     1       4.606   3.897  18.958  0.00  0.00    +0.000 A 
ATOM      6  C   UNL     1       4.204   5.242  18.729  0.00  0.00    +0.000 A 
ENDROOT
BRANCH   1  10
ATOM      7  C   UNL     1       1.328   9.648  19.082  0.00  0.00    +0.000 A 
ATOM      8  C   UNL     1       1.224   8.980  20.297  0.00  0.00    +0.000 A 
ATOM      9  C   UNL     1       1.735   7.680  20.426  0.00  0.00    +0.000 A 
ATOM     10  C   UNL     1       2.406   7.044  19.374  0.00  0.00    +0.000 A 
ATOM     11  C   UNL     1       2.382   7.723  18.125  0.00  0.00    +0.000 A 
ATOM     12  C   UNL     1       1.830   8.997  17.965  0.00  0.00    +0.000 A 
BRANCH   7  14
ATOM     13  C   UNL     1       0.925  11.852  20.682  0.00  0.00    +0.000 C 
ATOM     14  S   UNL     1       0.931  11.372  18.966  0.00  0.00    +0.000 S 
ATOM     15  O   UNL     1      -0.423  11.485  18.462  0.00  0.00    +0.000 OA
ATOM     16  O   UNL     1       2.036  12.041  18.307  0.00  0.00    +0.000 OA
ENDBRANCH   7  14
ENDBRANCH   1  10
BRANCH   6  17
ATOM     17  C   UNL     1       5.016   6.042  17.662  0.00  0.00    +0.000 C 
ATOM     18  C   UNL     1       4.806   5.546  16.207  0.00  0.00    +0.000 C 
ATOM     19  C   UNL     1       5.575   4.288  15.805  0.00  0.00    +0.000 C 
ATOM     20  C   UNL     1       7.009   4.215  16.328  0.00  0.00    +0.000 C 
ATOM     21  C   UNL     1       7.262   4.769  17.734  0.00  0.00    +0.000 C 
ATOM     22  C   UNL     1       6.534   6.098  18.018  0.00  0.00    +0.000 C 
BRANCH  22  23
ATOM     23  C   UNL     1       7.355   7.197  17.312  0.00  0.00    +0.000 C 
ATOM     24  O   UNL     1       8.053   7.020  16.322  0.00  0.00    +0.000 OA
ATOM     25  N   UNL     1       7.317   8.404  17.988  0.00  0.00    +0.000 N 
ATOM     26  H   UNL     1       6.769   8.465  18.839  0.00  0.00    +0.000 HD
BRANCH  25  27
ATOM     27  C   UNL     1       8.279   9.472  17.734  0.00  0.00    +0.000 C 
BRANCH  27  28
ATOM     28  C   UNL     1       8.893   9.962  19.036  0.00  0.00    +0.000 C 
ATOM     29  N   UNL     1       9.401  10.368  20.116  0.00  0.00    +0.000 NA
ENDBRANCH  27  28
ENDBRANCH  25  27
ENDBRANCH  22  23
ENDBRANCH   6  17
TORSDOF 6
ENDMDL
MODEL 3
REMARK VINA RESULT:      -8.3      1.677      1.978
REMARK  Name = 
REMARK  7 active torsions:
REMARK  status: ('A' for Active; 'I' for Inactive)
REMARK    1  A    between atoms: C_1  and  S_2
REMARK    2  A    between atoms: S_2  and  C_5
REMARK    3  A    between atoms: C_8  and  C_9
REMARK    4  A    between atoms: C_14  and  C_15
REMARK    5  A    between atoms: C_20  and  C_21
REMARK    6  A    between atoms: N_23  and  C_24
REMARK    7  A    between atoms: C_24  and  C_25
REMARK                            x       y       z     vdW  Elec       q    Type
REMARK                         _______ _______ _______ _____ _____    ______ ____
ROOT
ATOM      1  C   UNL     1       2.364   5.284  18.510  0.00  0.00    +0.000 A 
ATOM      2  C   UNL     1       1.267   4.363  18.613  0.00  0.00    +0.000 A 
ATOM      3  C   UNL     1       1.306   3.054  18.138  0.00  0.00    +0.000 A 
ATOM      4  C   UNL     1       2.465   2.589  17.569  0.00  0.00    +0.000 A 
ATOM      5  C   UNL     1       3.563   3.440  17.494  0.00  0.00    +0.000 A 
ATOM      6  C   UNL     1       3.575   4.789  17.944  0.00  0.00    +0.000 A 
ENDROOT
BRANCH   1  10
ATOM      7  C   UNL     1       1.260   9.256  19.838  0.00  0.00    +0.000 A 
ATOM      8  C   UNL     1       1.615   9.058  18.508  0.00  0.00    +0.000 A 
ATOM      9  C   UNL     1       2.040   7.792  18.080  0.00  0.00    +0.000 A 
ATOM     10  C   UNL     1       2.066   6.691  18.946  0.00  0.00    +0.000 A 
ATOM     11  C   UNL     1       1.805   6.974  20.315  0.00  0.00    +0.000 A 
ATOM     12  C   UNL     1       1.432   8.242  20.768  0.00  0.00    +0.000 A 
BRANCH   7  14
ATOM     13  C   UNL     1       1.356  11.967  19.369  0.00  0.00    +0.000 C 
ATOM     14  S   UNL     1       0.476  10.763  20.344  0.00  0.00    +0.000 S 
ATOM     15  O   UNL     1       0.800  10.989  21.738  0.00  0.00    +0.000 OA
ATOM     16  O   UNL     1      -0.901  10.725  19.890  0.00  0.00    +0.000 OA
ENDBRANCH   7  14
ENDBRANCH   1  10
BRANCH   6  17
ATOM     17  C   UNL     1       4.915   5.572  17.772  0.00  0.00    +0.000 C 
ATOM     18  C   UNL     1       4.948   6.502  16.530  0.00  0.00    +0.000 C 
ATOM     19  C   UNL     1       5.205   5.824  15.186  0.00  0.00    +0.000 C 
ATOM     20  C   UNL     1       6.262   4.720  15.213  0.00  0.00    +0.000 C 
ATOM     21  C   UNL     1       6.305   3.834  16.462  0.00  0.00    +0.000 C 
ATOM     22  C   UNL     1       6.146   4.614  17.782  0.00  0.00    +0.000 C 
BRANCH  22  23
ATOM     23  C   UNL     1       7.514   5.271  18.061  0.00  0.00    +0.000 C 
ATOM     24  O   UNL     1       8.543   4.659  18.317  0.00  0.00    +0.000 OA
ATOM     25  N   UNL     1       7.439   6.652  18.109  0.00  0.00    +0.000 N 
ATOM     26  H   UNL     1       6.540   7.094  17.951  0.00  0.00    +0.000 HD
BRANCH  25  27
ATOM     27  C   UNL     1       8.491   7.472  18.704  0.00  0.00    +0.000 C 
BRANCH  27  28
ATOM     28  C   UNL     1       8.381   8.912  18.231  0.00  0.00    +0.000 C 
ATOM     29  N   UNL     1       8.289  10.106  17.839  0.00  0.00    +0.000 NA
ENDBRANCH  27  28
ENDBRANCH  25  27
ENDBRANCH  22  23
ENDBRANCH   6  17
TORSDOF 6
ENDMDL
MODEL 4
REMARK VINA RESULT:      -8.2      1.674      1.903
REMARK  Name = 
REMARK  7 active torsions:
REMARK  status: ('A' for Active; 'I' for Inactive)
REMARK    1  A    between atoms: C_1  and  S_2
REMARK    2  A    between atoms: S_2  and  C_5
REMARK    3  A    between atoms: C_8  and  C_9
REMARK    4  A    between atoms: C_14  and  C_15
REMARK    5  A    between atoms: C_20  and  C_21
REMARK    6  A    between atoms: N_23  and  C_24
REMARK    7  A    between atoms: C_24  and  C_25
REMARK                            x       y       z     vdW  Elec       q    Type
REMARK                         _______ _______ _______ _____ _____    ______ ____
ROOT
ATOM      1  C   UNL     1       2.372   5.191  18.683  0.00  0.00    +0.000 A 
ATOM      2  C   UNL     1       1.302   4.233  18.715  0.00  0.00    +0.000 A 
ATOM      3  C   UNL     1       1.377   2.967  18.138  0.00  0.00    +0.000 A 
ATOM      4  C   UNL     1       2.546   2.582  17.533  0.00  0.00    +0.000 A 
ATOM      5  C   UNL     1       3.620   3.467  17.523  0.00  0.00    +0.000 A 
ATOM      6  C   UNL     1       3.595   4.776  18.078  0.00  0.00    +0.000 A 
ENDROOT
BRANCH   1  10
ATOM      7  C   UNL     1       1.157   9.017  20.308  0.00  0.00    +0.000 A 
ATOM      8  C   UNL     1       1.586   8.944  18.987  0.00  0.00    +0.000 A 
ATOM      9  C   UNL     1       2.046   7.725  18.468  0.00  0.00    +0.000 A 
ATOM     10  C   UNL     1       2.037   6.550  19.230  0.00  0.00    +0.000 A 
ATOM     11  C   UNL     1       1.699   6.704  20.602  0.00  0.00    +0.000 A 
ATOM     12  C   UNL     1       1.289   7.923  21.149  0.00  0.00    +0.000 A 
BRANCH   7  14
ATOM     13  C   UNL     1      -0.364   9.876  22.436  0.00  0.00    +0.000 C 
ATOM     14  S   UNL     1       0.331  10.467  20.906  0.00  0.00    +0.000 S 
ATOM     15  O   UNL     1      -0.761  10.765  20.001  0.00  0.00    +0.000 OA
ATOM     16  O   UNL     1       1.342  11.460  21.217  0.00  0.00    +0.000 OA
ENDBRANCH   7  14
ENDBRANCH   1  10
BRANCH   6  17
ATOM     17  C   UNL     1       4.912   5.608  17.967  0.00  0.00    +0.000 C 
ATOM     18  C   UNL     1       4.921   6.620  16.790  0.00  0.00    +0.000 C 
ATOM     19  C   UNL     1       5.203   6.042  15.405  0.00  0.00    +0.000 C 
ATOM     20  C   UNL     1       6.292   4.971  15.363  0.00  0.00    +0.000 C 
ATOM     21  C   UNL     1       6.358   4.004  16.550  0.00  0.00    +0.000 C 
ATOM     22  C   UNL     1       6.170   4.688  17.919  0.00  0.00    +0.000 C 
BRANCH  22  23
ATOM     23  C   UNL     1       7.517   5.365  18.249  0.00  0.00    +0.000 C 
ATOM     24  O   UNL     1       8.508   4.781  18.669  0.00  0.00    +0.000 OA
ATOM     25  N   UNL     1       7.461   6.743  18.132  0.00  0.00    +0.000 N 
ATOM     26  H   UNL     1       6.589   7.168  17.840  0.00  0.00    +0.000 HD
BRANCH  25  27
ATOM     27  C   UNL     1       8.467   7.619  18.726  0.00  0.00    +0.000 C 
BRANCH  27  28
ATOM     28  C   UNL     1       8.326   9.035  18.193  0.00  0.00    +0.000 C 
ATOM     29  N   UNL     1       8.210  10.210  17.751  0.00  0.00    +0.000 NA
ENDBRANCH  27  28
ENDBRANCH  25  27
ENDBRANCH  22  23
ENDBRANCH   6  17
TORSDOF 6
ENDMDL
MODEL 5
REMARK VINA RESULT:      -8.2      1.300      1.376
REMARK  Name = 
REMARK  7 active torsions:
REMARK  status: ('A' for Active; 'I' for Inactive)
REMARK    1  A    between atoms: C_1  and  S_2
REMARK    2  A    between atoms: S_2  and  C_5
REMARK    3  A    between atoms: C_8  and  C_9
REMARK    4  A    between atoms: C_14  and  C_15
REMARK    5  A    between atoms: C_20  and  C_21
REMARK    6  A    between atoms: N_23  and  C_24
REMARK    7  A    between atoms: C_24  and  C_25
REMARK                            x       y       z     vdW  Elec       q    Type
REMARK                         _______ _______ _______ _____ _____    ______ ____
ROOT
ATOM      1  C   UNL     1       2.629   4.839  18.822  0.00  0.00    +0.000 A 
ATOM      2  C   UNL     1       1.928   3.795  19.516  0.00  0.00    +0.000 A 
ATOM      3  C   UNL     1       2.048   2.442  19.207  0.00  0.00    +0.000 A 
ATOM      4  C   UNL     1       2.908   2.063  18.208  0.00  0.00    +0.000 A 
ATOM      5  C   UNL     1       3.638   3.044  17.544  0.00  0.00    +0.000 A 
ATOM      6  C   UNL     1       3.543   4.439  17.804  0.00  0.00    +0.000 A 
ENDROOT
BRANCH   1  10
ATOM      7  C   UNL     1       1.275   8.787  19.980  0.00  0.00    +0.000 A 
ATOM      8  C   UNL     1       1.795   8.593  18.705  0.00  0.00    +0.000 A 
ATOM      9  C   UNL     1       2.300   7.336  18.340  0.00  0.00    +0.000 A 
ATOM     10  C   UNL     1       2.246   6.239  19.210  0.00  0.00    +0.000 A 
ATOM     11  C   UNL     1       1.812   6.520  20.534  0.00  0.00    +0.000 A 
ATOM     12  C   UNL     1       1.355   7.780  20.930  0.00  0.00    +0.000 A 
BRANCH   7  14
ATOM     13  C   UNL     1       0.073  10.046  22.113  0.00  0.00    +0.000 C 
ATOM     14  S   UNL     1       0.399  10.276  20.376  0.00  0.00    +0.000 S 
ATOM     15  O   UNL     1      -0.868  10.249  19.673  0.00  0.00    +0.000 OA
ATOM     16  O   UNL     1       1.318  11.388  20.226  0.00  0.00    +0.000 OA
ENDBRANCH   7  14
ENDBRANCH   1  10
BRANCH   6  17
ATOM     17  C   UNL     1       4.456   5.374  16.948  0.00  0.00    +0.000 C 
ATOM     18  C   UNL     1       5.031   4.699  15.674  0.00  0.00    +0.000 C 
ATOM     19  C   UNL     1       6.226   3.771  15.883  0.00  0.00    +0.000 C 
ATOM     20  C   UNL     1       7.261   4.269  16.890  0.00  0.00    +0.000 C 
ATOM     21  C   UNL     1       6.727   5.008  18.122  0.00  0.00    +0.000 C 
ATOM     22  C   UNL     1       5.595   6.006  17.805  0.00  0.00    +0.000 C 
BRANCH  22  23
ATOM     23  C   UNL     1       6.278   7.255  17.209  0.00  0.00    +0.000 C 
ATOM     24  O   UNL     1       6.065   7.698  16.087  0.00  0.00    +0.000 OA
ATOM     25  N   UNL     1       7.258   7.771  18.038  0.00  0.00    +0.000 N 
ATOM     26  H   UNL     1       7.427   7.316  18.928  0.00  0.00    +0.000 HD
BRANCH  25  27
ATOM     27  C   UNL     1       8.274   8.704  17.560  0.00  0.00    +0.000 C 
BRANCH  27  28
ATOM     28  C   UNL     1       8.796   9.560  18.702  0.00  0.00    +0.000 C 
ATOM     29  N   UNL     1       9.229  10.271  19.649  0.00  0.00    +0.000 NA
ENDBRANCH  27  28
ENDBRANCH  25  27
ENDBRANCH  22  23
ENDBRANCH   6  17
TORSDOF 6
ENDMDL
MODEL 6
REMARK VINA RESULT:      -8.1      1.383      1.515
REMARK  Name = 
REMARK  7 active torsions:
REMARK  status: ('A' for Active; 'I' for Inactive)
REMARK    1  A    between atoms: C_1  and  S_2
REMARK    2  A    between atoms: S_2  and  C_5
REMARK    3  A    between atoms: C_8  and  C_9
REMARK    4  A    between atoms: C_14  and  C_15
REMARK    5  A    between atoms: C_20  and  C_21
REMARK    6  A    between atoms: N_23  and  C_24
REMARK    7  A    between atoms: C_24  and  C_25
REMARK                            x       y       z     vdW  Elec       q    Type
REMARK                         _______ _______ _______ _____ _____    ______ ____
ROOT
ATOM      1  C   UNL     1       2.696   5.546  18.196  0.00  0.00    +0.000 A 
ATOM      2  C   UNL     1       1.776   4.542  18.652  0.00  0.00    +0.000 A 
ATOM      3  C   UNL     1       1.839   3.203  18.274  0.00  0.00    +0.000 A 
ATOM      4  C   UNL     1       2.854   2.795  17.446  0.00  0.00    +0.000 A 
ATOM      5  C   UNL     1       3.790   3.731  17.020  0.00  0.00    +0.000 A 
ATOM      6  C   UNL     1       3.766   5.113  17.359  0.00  0.00    +0.000 A 
ENDROOT
BRANCH   1  10
ATOM      7  C   UNL     1       1.494   9.521  19.426  0.00  0.00    +0.000 A 
ATOM      8  C   UNL     1       1.904   9.310  18.114  0.00  0.00    +0.000 A 
ATOM      9  C   UNL     1       2.361   8.044  17.720  0.00  0.00    +0.000 A 
ATOM     10  C   UNL     1       2.365   6.955  18.601  0.00  0.00    +0.000 A 
ATOM     11  C   UNL     1       2.046   7.253  19.954  0.00  0.00    +0.000 A 
ATOM     12  C   UNL     1       1.641   8.522  20.376  0.00  0.00    +0.000 A 
BRANCH   7  14
ATOM     13  C   UNL     1      -1.027  10.623  19.532  0.00  0.00    +0.000 C 
ATOM     14  S   UNL     1       0.673  11.026  19.880  0.00  0.00    +0.000 S 
ATOM     15  O   UNL     1       1.090  12.059  18.953  0.00  0.00    +0.000 OA
ATOM     16  O   UNL     1       0.818  11.198  21.313  0.00  0.00    +0.000 OA
ENDBRANCH   7  14
ENDBRANCH   1  10
BRANCH   6  17
ATOM     17  C   UNL     1       4.917   5.996  16.780  0.00  0.00    +0.000 C 
ATOM     18  C   UNL     1       5.124   5.837  15.250  0.00  0.00    +0.000 C 
ATOM     19  C   UNL     1       5.889   4.595  14.798  0.00  0.00    +0.000 C 
ATOM     20  C   UNL     1       7.088   4.223  15.669  0.00  0.00    +0.000 C 
ATOM     21  C   UNL     1       6.941   4.442  17.178  0.00  0.00    +0.000 C 
ATOM     22  C   UNL     1       6.255   5.771  17.549  0.00  0.00    +0.000 C 
BRANCH  22  23
ATOM     23  C   UNL     1       7.326   6.870  17.379  0.00  0.00    +0.000 C 
ATOM     24  O   UNL     1       7.969   7.064  16.355  0.00  0.00    +0.000 OA
ATOM     25  N   UNL     1       7.577   7.553  18.555  0.00  0.00    +0.000 N 
ATOM     26  H   UNL     1       7.053   7.298  19.384  0.00  0.00    +0.000 HD
BRANCH  25  27
ATOM     27  C   UNL     1       8.773   8.369  18.745  0.00  0.00    +0.000 C 
BRANCH  27  28
ATOM     28  C   UNL     1       8.536   9.789  18.259  0.00  0.00    +0.000 C 
ATOM     29  N   UNL     1       8.341  10.967  17.856  0.00  0.00    +0.000 NA
ENDBRANCH  27  28
ENDBRANCH  25  27
ENDBRANCH  22  23
ENDBRANCH   6  17
TORSDOF 6
ENDMDL
MODEL 7
REMARK VINA RESULT:      -7.7      1.666      2.036
REMARK  Name = 
REMARK  7 active torsions:
REMARK  status: ('A' for Active; 'I' for Inactive)
REMARK    1  A    between atoms: C_1  and  S_2
REMARK    2  A    between atoms: S_2  and  C_5
REMARK    3  A    between atoms: C_8  and  C_9
REMARK    4  A    between atoms: C_14  and  C_15
REMARK    5  A    between atoms: C_20  and  C_21
REMARK    6  A    between atoms: N_23  and  C_24
REMARK    7  A    between atoms: C_24  and  C_25
REMARK                            x       y       z     vdW  Elec       q    Type
REMARK                         _______ _______ _______ _____ _____    ______ ____
ROOT
ATOM      1  C   UNL     1       2.477   5.330  18.526  0.00  0.00    +0.000 A 
ATOM      2  C   UNL     1       1.458   4.317  18.529  0.00  0.00    +0.000 A 
ATOM      3  C   UNL     1       1.674   3.000  18.132  0.00  0.00    +0.000 A 
ATOM      4  C   UNL     1       2.934   2.621  17.747  0.00  0.00    +0.000 A 
ATOM      5  C   UNL     1       3.957   3.564  17.776  0.00  0.00    +0.000 A 
ATOM      6  C   UNL     1       3.791   4.926  18.153  0.00  0.00    +0.000 A 
ENDROOT
BRANCH   1  10
ATOM      7  C   UNL     1       1.347   9.428  19.357  0.00  0.00    +0.000 A 
ATOM      8  C   UNL     1       1.418   8.516  20.405  0.00  0.00    +0.000 A 
ATOM      9  C   UNL     1       1.715   7.171  20.141  0.00  0.00    +0.000 A 
ATOM     10  C   UNL     1       2.003   6.720  18.847  0.00  0.00    +0.000 A 
ATOM     11  C   UNL     1       1.804   7.665  17.803  0.00  0.00    +0.000 A 
ATOM     12  C   UNL     1       1.455   8.997  18.044  0.00  0.00    +0.000 A 
BRANCH   7  14
ATOM     13  C   UNL     1      -0.456  11.506  19.228  0.00  0.00    +0.000 C 
ATOM     14  S   UNL     1       1.233  11.167  19.684  0.00  0.00    +0.000 S 
ATOM     15  O   UNL     1       2.099  11.855  18.748  0.00  0.00    +0.000 OA
ATOM     16  O   UNL     1       1.369  11.361  21.115  0.00  0.00    +0.000 OA
ENDBRANCH   7  14
ENDBRANCH   1  10
BRANCH   6  17
ATOM     17  C   UNL     1       5.071   5.820  18.122  0.00  0.00    +0.000 C 
ATOM     18  C   UNL     1       5.123   6.805  16.923  0.00  0.00    +0.000 C 
ATOM     19  C   UNL     1       5.541   6.211  15.580  0.00  0.00    +0.000 C 
ATOM     20  C   UNL     1       6.681   5.195  15.650  0.00  0.00    +0.000 C 
ATOM     21  C   UNL     1       6.700   4.260  16.864  0.00  0.00    +0.000 C 
ATOM     22  C   UNL     1       6.373   4.964  18.195  0.00  0.00    +0.000 C 
BRANCH  22  23
ATOM     23  C   UNL     1       7.655   5.715  18.611  0.00  0.00    +0.000 C 
ATOM     24  O   UNL     1       8.549   5.242  19.300  0.00  0.00    +0.000 OA
ATOM     25  N   UNL     1       7.644   7.042  18.217  0.00  0.00    +0.000 N 
ATOM     26  H   UNL     1       6.841   7.387  17.703  0.00  0.00    +0.000 HD
BRANCH  25  27
ATOM     27  C   UNL     1       8.549   8.034  18.790  0.00  0.00    +0.000 C 
BRANCH  27  28
ATOM     28  C   UNL     1       8.342   9.390  18.134  0.00  0.00    +0.000 C 
ATOM     29  N   UNL     1       8.170  10.514  17.590  0.00  0.00    +0.000 NA
ENDBRANCH  27  28
ENDBRANCH  25  27
ENDBRANCH  22  23
ENDBRANCH   6  17
TORSDOF 6
ENDMDL
MODEL 8
REMARK VINA RESULT:      -7.5      1.257      1.652
REMARK  Name = 
REMARK  7 active torsions:
REMARK  status: ('A' for Active; 'I' for Inactive)
REMARK    1  A    between atoms: C_1  and  S_2
REMARK    2  A    between atoms: S_2  and  C_5
REMARK    3  A    between atoms: C_8  and  C_9
REMARK    4  A    between atoms: C_14  and  C_15
REMARK    5  A    between atoms: C_20  and  C_21
REMARK    6  A    between atoms: N_23  and  C_24
REMARK    7  A    between atoms: C_24  and  C_25
REMARK                            x       y       z     vdW  Elec       q    Type
REMARK                         _______ _______ _______ _____ _____    ______ ____
ROOT
ATOM      1  C   UNL     1       2.757   4.983  18.687  0.00  0.00    +0.000 A 
ATOM      2  C   UNL     1       2.061   3.896  19.316  0.00  0.00    +0.000 A 
ATOM      3  C   UNL     1       2.337   2.552  19.071  0.00  0.00    +0.000 A 
ATOM      4  C   UNL     1       3.353   2.231  18.208  0.00  0.00    +0.000 A 
ATOM      5  C   UNL     1       4.080   3.258  17.614  0.00  0.00    +0.000 A 
ATOM      6  C   UNL     1       3.831   4.645  17.812  0.00  0.00    +0.000 A 
ENDROOT
BRANCH   1  10
ATOM      7  C   UNL     1       1.408   9.030  19.433  0.00  0.00    +0.000 A 
ATOM      8  C   UNL     1       1.468   8.128  20.489  0.00  0.00    +0.000 A 
ATOM      9  C   UNL     1       1.838   6.796  20.250  0.00  0.00    +0.000 A 
ATOM     10  C   UNL     1       2.208   6.352  18.974  0.00  0.00    +0.000 A 
ATOM     11  C   UNL     1       2.018   7.282  17.915  0.00  0.00    +0.000 A 
ATOM     12  C   UNL     1       1.598   8.598  18.129  0.00  0.00    +0.000 A 
BRANCH   7  14
ATOM     13  C   UNL     1      -0.528  10.988  19.374  0.00  0.00    +0.000 C 
ATOM     14  S   UNL     1       1.201  10.763  19.742  0.00  0.00    +0.000 S 
ATOM     15  O   UNL     1       1.970  11.489  18.751  0.00  0.00    +0.000 OA
ATOM     16  O   UNL     1       1.400  10.990  21.161  0.00  0.00    +0.000 OA
ENDBRANCH   7  14
ENDBRANCH   1  10
BRANCH   6  17
ATOM     17  C   UNL     1       4.768   5.639  17.055  0.00  0.00    +0.000 C 
ATOM     18  C   UNL     1       5.375   5.061  15.749  0.00  0.00    +0.000 C 
ATOM     19  C   UNL     1       6.563   4.115  15.917  0.00  0.00    +0.000 C 
ATOM     20  C   UNL     1       7.572   4.531  16.986  0.00  0.00    +0.000 C 
ATOM     21  C   UNL     1       7.007   5.176  18.257  0.00  0.00    +0.000 C 
ATOM     22  C   UNL     1       5.886   6.199  17.988  0.00  0.00    +0.000 C 
BRANCH  22  23
ATOM     23  C   UNL     1       6.586   7.487  17.507  0.00  0.00    +0.000 C 
ATOM     24  O   UNL     1       6.316   8.084  16.472  0.00  0.00    +0.000 OA
ATOM     25  N   UNL     1       7.649   7.848  18.316  0.00  0.00    +0.000 N 
ATOM     26  H   UNL     1       7.859   7.272  19.124  0.00  0.00    +0.000 HD
BRANCH  25  27
ATOM     27  C   UNL     1       8.674   8.794  17.884  0.00  0.00    +0.000 C 
BRANCH  27  28
ATOM     28  C   UNL     1       8.995   9.780  18.996  0.00  0.00    +0.000 C 
ATOM     29  N   UNL     1       9.262  10.598  19.917  0.00  0.00    +0.000 NA
ENDBRANCH  27  28
ENDBRANCH  25  27
ENDBRANCH  22  23
ENDBRANCH   6  17
TORSDOF 6
ENDMDL
MODEL 9
REMARK VINA RESULT:      -7.3      1.223      1.231
REMARK  Name = 
REMARK  7 active torsions:
REMARK  status: ('A' for Active; 'I' for Inactive)
REMARK    1  A    between atoms: C_1  and  S_2
REMARK    2  A    between atoms: S_2  and  C_5
REMARK    3  A    between atoms: C_8  and  C_9
REMARK    4  A    between atoms: C_14  and  C_15
REMARK    5  A    between atoms: C_20  and  C_21
REMARK    6  A    between atoms: N_23  and  C_24
REMARK    7  A    between atoms: C_24  and  C_25
REMARK                            x       y       z     vdW  Elec       q    Type
REMARK                         _______ _______ _______ _____ _____    ______ ____
ROOT
ATOM      1  C   UNL     1       2.785   5.752  18.668  0.00  0.00    +0.000 A 
ATOM      2  C   UNL     1       1.898   4.699  19.075  0.00  0.00    +0.000 A 
ATOM      3  C   UNL     1       2.123   3.350  18.811  0.00  0.00    +0.000 A 
ATOM      4  C   UNL     1       3.272   2.985  18.158  0.00  0.00    +0.000 A 
ATOM      5  C   UNL     1       4.178   3.975  17.789  0.00  0.00    +0.000 A 
ATOM      6  C   UNL     1       3.992   5.367  18.015  0.00  0.00    +0.000 A 
ENDROOT
BRANCH   1  10
ATOM      7  C   UNL     1       1.105   9.668  19.446  0.00  0.00    +0.000 A 
ATOM      8  C   UNL     1       1.605   9.381  18.180  0.00  0.00    +0.000 A 
ATOM      9  C   UNL     1       2.214   8.142  17.934  0.00  0.00    +0.000 A 
ATOM     10  C   UNL     1       2.285   7.148  18.918  0.00  0.00    +0.000 A 
ATOM     11  C   UNL     1       1.864   7.533  20.220  0.00  0.00    +0.000 A 
ATOM     12  C   UNL     1       1.305   8.784  20.496  0.00  0.00    +0.000 A 
BRANCH   7  14
ATOM     13  C   UNL     1       1.334  12.311  20.181  0.00  0.00    +0.000 C 
ATOM     14  S   UNL     1       0.106  11.108  19.713  0.00  0.00    +0.000 S 
ATOM     15  O   UNL     1      -0.739  10.858  20.863  0.00  0.00    +0.000 OA
ATOM     16  O   UNL     1      -0.459  11.502  18.437  0.00  0.00    +0.000 OA
ENDBRANCH   7  14
ENDBRANCH   1  10
BRANCH   6  17
ATOM     17  C   UNL     1       5.135   6.313  17.527  0.00  0.00    +0.000 C 
ATOM     18  C   UNL     1       5.240   6.430  15.983  0.00  0.00    +0.000 C 
ATOM     19  C   UNL     1       5.931   5.272  15.264  0.00  0.00    +0.000 C 
ATOM     20  C   UNL     1       7.169   4.722  15.971  0.00  0.00    +0.000 C 
ATOM     21  C   UNL     1       7.124   4.666  17.502  0.00  0.00    +0.000 C 
ATOM     22  C   UNL     1       6.510   5.922  18.151  0.00  0.00    +0.000 C 
BRANCH  22  23
ATOM     23  C   UNL     1       7.606   7.008  18.108  0.00  0.00    +0.000 C 
ATOM     24  O   UNL     1       8.589   7.037  18.837  0.00  0.00    +0.000 OA
ATOM     25  N   UNL     1       7.305   8.031  17.226  0.00  0.00    +0.000 N 
ATOM     26  H   UNL     1       6.441   7.976  16.698  0.00  0.00    +0.000 HD
BRANCH  25  27
ATOM     27  C   UNL     1       7.982   9.324  17.268  0.00  0.00    +0.000 C 
BRANCH  27  28
ATOM     28  C   UNL     1       8.573   9.574  18.646  0.00  0.00    +0.000 C 
ATOM     29  N   UNL     1       9.064   9.782  19.788  0.00  0.00    +0.000 NA
ENDBRANCH  27  28
ENDBRANCH  25  27
ENDBRANCH  22  23
ENDBRANCH   6  17
TORSDOF 6
ENDMDL
