MODEL 1
REMARK VINA RESULT:      -8.4      0.000      0.000
REMARK  Name = 
REMARK  6 active torsions:
REMARK  status: ('A' for Active; 'I' for Inactive)
REMARK    1  A    between atoms: C_1  and  C_2
REMARK    2  A    between atoms: N_4  and  C_5
REMARK    3  A    between atoms: C_8  and  C_9
REMARK    4  A    between atoms: C_9  and  C_10
REMARK    5  A    between atoms: C_18  and  C_19
REMARK    6  A    between atoms: C_32  and  C_33
REMARK                            x       y       z     vdW  Elec       q    Type
REMARK                         _______ _______ _______ _____ _____    ______ ____
ROOT
ATOM      1  C   UNL     1       1.500   8.950  19.292  0.00  0.00    +0.000 A 
ATOM      2  N   UNL     1       2.084   9.554  18.235  0.00  0.00    +0.000 NA
ATOM      3  N   UNL     1       2.968   8.895  17.410  0.00  0.00    +0.000 NA
ATOM      4  C   UNL     1       3.321   7.618  17.664  0.00  0.00    +0.000 A 
ATOM      5  C   UNL     1       2.816   6.937  18.787  0.00  0.00    +0.000 A 
ATOM      6  C   UNL     1       3.194   5.607  19.127  0.00  0.00    +0.000 A 
ATOM      7  C   UNL     1       2.567   4.886  20.155  0.00  0.00    +0.000 A 
ATOM      8  C   UNL     1       1.541   5.499  20.860  0.00  0.00    +0.000 A 
ATOM      9  C   UNL     1       1.167   6.803  20.547  0.00  0.00    +0.000 A 
ATOM     10  C   UNL     1       1.828   7.591  19.569  0.00  0.00    +0.000 A 
ENDROOT
BRANCH   1  14
ATOM     11  C   UNL     1       1.716  12.678  20.261  0.00  0.00    +0.000 C 
ATOM     12  C   UNL     1       0.670  11.971  21.118  0.00  0.00    +0.000 C 
ATOM     13  C   UNL     1       0.961  10.460  21.233  0.00  0.00    +0.000 C 
ATOM     14  N   UNL     1       0.597   9.692  20.039  0.00  0.00    +0.000 N 
ATOM     15  C   UNL     1      -0.761   9.949  19.519  0.00  0.00    +0.000 C 
ATOM     16  C   UNL     1      -1.091  11.453  19.409  0.00  0.00    +0.000 C 
ATOM     17  N   UNL     1      -0.675  12.227  20.592  0.00  0.00    +0.000 N 
ATOM     18  C   UNL     1      -1.599  12.932  21.333  0.00  0.00    +0.000 A 
ATOM     19  C   UNL     1      -1.207  14.040  22.093  0.00  0.00    +0.000 A 
ATOM     20  C   UNL     1      -2.138  14.766  22.834  0.00  0.00    +0.000 A 
ATOM     21  C   UNL     1      -3.466  14.369  22.810  0.00  0.00    +0.000 A 
ATOM     22  C   UNL     1      -3.792  13.265  22.042  0.00  0.00    +0.000 A 
ATOM     23  N   UNL     1      -2.896  12.557  21.306  0.00  0.00    +0.000 NA
BRANCH  21  24
ATOM     24  C   UNL     1      -4.470  15.080  23.538  0.00  0.00    +0.000 C 
ATOM     25  N   UNL     1      -5.281  15.661  24.123  0.00  0.00    +0.000 NA
ENDBRANCH  21  24
ENDBRANCH   1  14
BRANCH   7  26
ATOM     26  C   UNL     1       2.915   3.450  20.461  0.00  0.00    +0.000 C 
ATOM     27  F   UNL     1       2.788   3.127  21.775  0.00  0.00    +0.000 F 
ATOM     28  F   UNL     1       2.140   2.565  19.775  0.00  0.00    +0.000 F 
ATOM     29  F   UNL     1       4.202   3.157  20.125  0.00  0.00    +0.000 F 
ENDBRANCH   7  26
BRANCH   4  30
ATOM     30  C   UNL     1       4.069   6.927  16.542  0.00  0.00    +0.000 C 
BRANCH  30  31
ATOM     31  C   UNL     1       5.387   6.260  16.865  0.00  0.00    +0.000 A 
ATOM     32  C   UNL     1       6.352   6.932  17.632  0.00  0.00    +0.000 A 
ATOM     33  C   UNL     1       7.497   6.268  18.081  0.00  0.00    +0.000 A 
ATOM     34  C   UNL     1       7.692   4.924  17.769  0.00  0.00    +0.000 A 
ATOM     35  C   UNL     1       6.753   4.250  16.992  0.00  0.00    +0.000 A 
ATOM     36  C   UNL     1       5.608   4.914  16.539  0.00  0.00    +0.000 A 
ENDBRANCH  30  31
ENDBRANCH   4  30
TORSDOF 5
ENDMDL
MODEL 2
REMARK VINA RESULT:      -8.2      0.181      1.031
REMARK  Name = 
REMARK  6 active torsions:
REMARK  status: ('A' for Active; 'I' for Inactive)
REMARK    1  A    between atoms: C_1  and  C_2
REMARK    2  A    between atoms: N_4  and  C_5
REMARK    3  A    between atoms: C_8  and  C_9
REMARK    4  A    between atoms: C_9  and  C_10
REMARK    5  A    between atoms: C_18  and  C_19
REMARK    6  A    between atoms: C_32  and  C_33
REMARK                            x       y       z     vdW  Elec       q    Type
REMARK                         _______ _______ _______ _____ _____    ______ ____
ROOT
ATOM      1  C   UNL     1       1.459   8.997  19.319  0.00  0.00    +0.000 A 
ATOM      2  N   UNL     1       2.041   9.601  18.260  0.00  0.00    +0.000 NA
ATOM      3  N   UNL     1       2.923   8.941  17.433  0.00  0.00    +0.000 NA
ATOM      4  C   UNL     1       3.275   7.663  17.686  0.00  0.00    +0.000 A 
ATOM      5  C   UNL     1       2.772   6.982  18.810  0.00  0.00    +0.000 A 
ATOM      6  C   UNL     1       3.149   5.652  19.149  0.00  0.00    +0.000 A 
ATOM      7  C   UNL     1       2.524   4.932  20.179  0.00  0.00    +0.000 A 
ATOM      8  C   UNL     1       1.501   5.546  20.886  0.00  0.00    +0.000 A 
ATOM      9  C   UNL     1       1.127   6.850  20.574  0.00  0.00    +0.000 A 
ATOM     10  C   UNL     1       1.787   7.638  19.595  0.00  0.00    +0.000 A 
ENDROOT
BRANCH   1  14
ATOM     11  C   UNL     1       1.684  12.724  20.290  0.00  0.00    +0.000 C 
ATOM     12  C   UNL     1       0.639  12.018  21.149  0.00  0.00    +0.000 C 
ATOM     13  C   UNL     1       0.927  10.506  21.261  0.00  0.00    +0.000 C 
ATOM     14  N   UNL     1       0.559   9.740  20.068  0.00  0.00    +0.000 N 
ATOM     15  C   UNL     1      -0.800   9.999  19.551  0.00  0.00    +0.000 C 
ATOM     16  C   UNL     1      -1.127  11.504  19.443  0.00  0.00    +0.000 C 
ATOM     17  N   UNL     1      -0.707  12.277  20.625  0.00  0.00    +0.000 N 
ATOM     18  C   UNL     1      -1.629  12.983  21.369  0.00  0.00    +0.000 A 
ATOM     19  C   UNL     1      -1.233  14.090  22.129  0.00  0.00    +0.000 A 
ATOM     20  C   UNL     1      -2.161  14.816  22.873  0.00  0.00    +0.000 A 
ATOM     21  C   UNL     1      -3.490  14.422  22.850  0.00  0.00    +0.000 A 
ATOM     22  C   UNL     1      -3.819  13.319  22.082  0.00  0.00    +0.000 A 
ATOM     23  N   UNL     1      -2.926  12.610  21.344  0.00  0.00    +0.000 NA
BRANCH  21  24
ATOM     24  C   UNL     1      -4.491  15.134  23.581  0.00  0.00    +0.000 C 
ATOM     25  N   UNL     1      -5.307  15.707  24.169  0.00  0.00    +0.000 NA
ENDBRANCH  21  24
ENDBRANCH   1  14
BRANCH   7  26
ATOM     26  C   UNL     1       2.871   3.496  20.483  0.00  0.00    +0.000 C 
ATOM     27  F   UNL     1       4.153   3.167  20.170  0.00  0.00    +0.000 F 
ATOM     28  F   UNL     1       2.708   3.184  21.798  0.00  0.00    +0.000 F 
ATOM     29  F   UNL     1       2.082   2.626  19.793  0.00  0.00    +0.000 F 
ENDBRANCH   7  26
BRANCH   4  30
ATOM     30  C   UNL     1       4.020   6.971  16.562  0.00  0.00    +0.000 C 
BRANCH  30  31
ATOM     31  C   UNL     1       5.216   6.117  16.915  0.00  0.00    +0.000 A 
ATOM     32  C   UNL     1       5.362   4.837  16.356  0.00  0.00    +0.000 A 
ATOM     33  C   UNL     1       6.541   4.109  16.537  0.00  0.00    +0.000 A 
ATOM     34  C   UNL     1       7.589   4.651  17.278  0.00  0.00    +0.000 A 
ATOM     35  C   UNL     1       7.451   5.912  17.854  0.00  0.00    +0.000 A 
ATOM     36  C   UNL     1       6.271   6.640  17.677  0.00  0.00    +0.000 A 
ENDBRANCH  30  31
ENDBRANCH   4  30
TORSDOF 5
ENDMDL
MODEL 3
REMARK VINA RESULT:      -7.9      1.003      1.215
REMARK  Name = 
REMARK  6 active torsions:
REMARK  status: ('A' for Active; 'I' for Inactive)
REMARK    1  A    between atoms: C_1  and  C_2
REMARK    2  A    between atoms: N_4  and  C_5
REMARK    3  A    between atoms: C_8  and  C_9
REMARK    4  A    between atoms: C_9  and  C_10
REMARK    5  A    between atoms: C_18  and  C_19
REMARK    6  A    between atoms: C_32  and  C_33
REMARK                            x       y       z     vdW  Elec       q    Type
REMARK                         _______ _______ _______ _____ _____    ______ ____
ROOT
ATOM      1  C   UNL     1       1.440   9.412  19.113  0.00  0.00    +0.000 A 
ATOM      2  N   UNL     1       2.116   9.839  18.024  0.00  0.00    +0.000 NA
ATOM      3  N   UNL     1       2.967   9.017  17.320  0.00  0.00    +0.000 NA
ATOM      4  C   UNL     1       3.193   7.752  17.729  0.00  0.00    +0.000 A 
ATOM      5  C   UNL     1       2.588   7.249  18.895  0.00  0.00    +0.000 A 
ATOM      6  C   UNL     1       2.831   5.940  19.398  0.00  0.00    +0.000 A 
ATOM      7  C   UNL     1       2.104   5.397  20.468  0.00  0.00    +0.000 A 
ATOM      8  C   UNL     1       1.112   6.172  21.052  0.00  0.00    +0.000 A 
ATOM      9  C   UNL     1       0.869   7.459  20.580  0.00  0.00    +0.000 A 
ATOM     10  C   UNL     1       1.634   8.071  19.553  0.00  0.00    +0.000 A 
ENDROOT
BRANCH   1  14
ATOM     11  C   UNL     1       1.565  13.267  19.022  0.00  0.00    +0.000 C 
ATOM     12  C   UNL     1       0.648  12.796  20.147  0.00  0.00    +0.000 C 
ATOM     13  C   UNL     1       1.024  11.379  20.627  0.00  0.00    +0.000 C 
ATOM     14  N   UNL     1       0.581  10.309  19.729  0.00  0.00    +0.000 N 
ATOM     15  C   UNL     1      -0.834  10.386  19.314  0.00  0.00    +0.000 C 
ATOM     16  C   UNL     1      -1.249  11.797  18.844  0.00  0.00    +0.000 C 
ATOM     17  N   UNL     1      -0.755  12.871  19.723  0.00  0.00    +0.000 N 
ATOM     18  C   UNL     1      -1.634  13.730  20.347  0.00  0.00    +0.000 A 
ATOM     19  C   UNL     1      -1.224  15.011  20.736  0.00  0.00    +0.000 A 
ATOM     20  C   UNL     1      -2.111  15.890  21.355  0.00  0.00    +0.000 A 
ATOM     21  C   UNL     1      -3.413  15.473  21.584  0.00  0.00    +0.000 A 
ATOM     22  C   UNL     1      -3.758  14.195  21.179  0.00  0.00    +0.000 A 
ATOM     23  N   UNL     1      -2.907  13.334  20.565  0.00  0.00    +0.000 NA
BRANCH  21  24
ATOM     24  C   UNL     1      -4.373  16.333  22.202  0.00  0.00    +0.000 C 
ATOM     25  N   UNL     1      -5.154  17.028  22.697  0.00  0.00    +0.000 NA
ENDBRANCH  21  24
ENDBRANCH   1  14
BRANCH   7  26
ATOM     26  C   UNL     1       2.309   3.981  20.946  0.00  0.00    +0.000 C 
ATOM     27  F   UNL     1       3.407   3.380  20.415  0.00  0.00    +0.000 F 
ATOM     28  F   UNL     1       2.448   3.898  22.298  0.00  0.00    +0.000 F 
ATOM     29  F   UNL     1       1.253   3.181  20.631  0.00  0.00    +0.000 F 
ENDBRANCH   7  26
BRANCH   4  30
ATOM     30  C   UNL     1       3.917   6.876  16.727  0.00  0.00    +0.000 C 
BRANCH  30  31
ATOM     31  C   UNL     1       5.283   6.343  17.097  0.00  0.00    +0.000 A 
ATOM     32  C   UNL     1       6.326   7.227  17.418  0.00  0.00    +0.000 A 
ATOM     33  C   UNL     1       7.536   6.749  17.926  0.00  0.00    +0.000 A 
ATOM     34  C   UNL     1       7.721   5.381  18.119  0.00  0.00    +0.000 A 
ATOM     35  C   UNL     1       6.702   4.491  17.787  0.00  0.00    +0.000 A 
ATOM     36  C   UNL     1       5.491   4.967  17.276  0.00  0.00    +0.000 A 
ENDBRANCH  30  31
ENDBRANCH   4  30
TORSDOF 5
ENDMDL
MODEL 4
REMARK VINA RESULT:      -7.6      1.545      2.312
REMARK  Name = 
REMARK  6 active torsions:
REMARK  status: ('A' for Active; 'I' for Inactive)
REMARK    1  A    between atoms: C_1  and  C_2
REMARK    2  A    between atoms: N_4  and  C_5
REMARK    3  A    between atoms: C_8  and  C_9
REMARK    4  A    between atoms: C_9  and  C_10
REMARK    5  A    between atoms: C_18  and  C_19
REMARK    6  A    between atoms: C_32  and  C_33
REMARK                            x       y       z     vdW  Elec       q    Type
REMARK                         _______ _______ _______ _____ _____    ______ ____
ROOT
ATOM      1  C   UNL     1       2.419   7.826  18.852  0.00  0.00    +0.000 A 
ATOM      2  N   UNL     1       3.097   7.957  17.692  0.00  0.00    +0.000 NA
ATOM      3  N   UNL     1       3.662   6.880  17.046  0.00  0.00    +0.000 NA
ATOM      4  C   UNL     1       3.595   5.645  17.585  0.00  0.00    +0.000 A 
ATOM      5  C   UNL     1       2.972   5.430  18.828  0.00  0.00    +0.000 A 
ATOM      6  C   UNL     1       2.918   4.158  19.465  0.00  0.00    +0.000 A 
ATOM      7  C   UNL     1       2.160   3.927  20.623  0.00  0.00    +0.000 A 
ATOM      8  C   UNL     1       1.439   4.984  21.161  0.00  0.00    +0.000 A 
ATOM      9  C   UNL     1       1.490   6.237  20.557  0.00  0.00    +0.000 A 
ATOM     10  C   UNL     1       2.305   6.530  19.433  0.00  0.00    +0.000 A 
ENDROOT
BRANCH   1  14
ATOM     11  C   UNL     1      -0.808   9.643  17.774  0.00  0.00    +0.000 C 
ATOM     12  C   UNL     1       0.027  10.545  18.678  0.00  0.00    +0.000 C 
ATOM     13  C   UNL     1       1.522  10.167  18.629  0.00  0.00    +0.000 C 
ATOM     14  N   UNL     1       1.859   8.968  19.403  0.00  0.00    +0.000 N 
ATOM     15  C   UNL     1       1.336   8.947  20.783  0.00  0.00    +0.000 C 
ATOM     16  C   UNL     1      -0.155   9.339  20.870  0.00  0.00    +0.000 C 
ATOM     17  N   UNL     1      -0.496  10.514  20.049  0.00  0.00    +0.000 N 
ATOM     18  C   UNL     1      -1.025  11.648  20.627  0.00  0.00    +0.000 A 
ATOM     19  C   UNL     1      -1.813  12.529  19.877  0.00  0.00    +0.000 A 
ATOM     20  C   UNL     1      -2.363  13.670  20.457  0.00  0.00    +0.000 A 
ATOM     21  C   UNL     1      -2.113  13.923  21.798  0.00  0.00    +0.000 A 
ATOM     22  C   UNL     1      -1.326  13.017  22.486  0.00  0.00    +0.000 A 
ATOM     23  N   UNL     1      -0.794  11.895  21.934  0.00  0.00    +0.000 NA
BRANCH  21  24
ATOM     24  C   UNL     1      -2.659  15.069  22.454  0.00  0.00    +0.000 C 
ATOM     25  N   UNL     1      -3.104  15.993  22.990  0.00  0.00    +0.000 NA
ENDBRANCH  21  24
ENDBRANCH   1  14
BRANCH   7  26
ATOM     26  C   UNL     1       2.041   2.560  21.249  0.00  0.00    +0.000 C 
ATOM     27  F   UNL     1       3.179   2.141  21.865  0.00  0.00    +0.000 F 
ATOM     28  F   UNL     1       1.056   2.496  22.186  0.00  0.00    +0.000 F 
ATOM     29  F   UNL     1       1.740   1.604  20.327  0.00  0.00    +0.000 F 
ENDBRANCH   7  26
BRANCH   4  30
ATOM     30  C   UNL     1       4.002   4.519  16.657  0.00  0.00    +0.000 C 
BRANCH  30  31
ATOM     31  C   UNL     1       5.210   4.722  15.771  0.00  0.00    +0.000 A 
ATOM     32  C   UNL     1       6.431   5.142  16.323  0.00  0.00    +0.000 A 
ATOM     33  C   UNL     1       7.594   5.168  15.549  0.00  0.00    +0.000 A 
ATOM     34  C   UNL     1       7.552   4.773  14.214  0.00  0.00    +0.000 A 
ATOM     35  C   UNL     1       6.344   4.372  13.647  0.00  0.00    +0.000 A 
ATOM     36  C   UNL     1       5.179   4.349  14.419  0.00  0.00    +0.000 A 
ENDBRANCH  30  31
ENDBRANCH   4  30
TORSDOF 5
ENDMDL
MODEL 5
REMARK VINA RESULT:      -7.6      0.903      1.199
REMARK  Name = 
REMARK  6 active torsions:
REMARK  status: ('A' for Active; 'I' for Inactive)
REMARK    1  A    between atoms: C_1  and  C_2
REMARK    2  A    between atoms: N_4  and  C_5
REMARK    3  A    between atoms: C_8  and  C_9
REMARK    4  A    between atoms: C_9  and  C_10
REMARK    5  A    between atoms: C_18  and  C_19
REMARK    6  A    between atoms: C_32  and  C_33
REMARK                            x       y       z     vdW  Elec       q    Type
REMARK                         _______ _______ _______ _____ _____    ______ ____
ROOT
ATOM      1  C   UNL     1       1.341   9.510  19.234  0.00  0.00    +0.000 A 
ATOM      2  N   UNL     1       1.996   9.972  18.148  0.00  0.00    +0.000 NA
ATOM      3  N   UNL     1       2.848   9.178  17.413  0.00  0.00    +0.000 NA
ATOM      4  C   UNL     1       3.096   7.907  17.788  0.00  0.00    +0.000 A 
ATOM      5  C   UNL     1       2.513   7.368  18.949  0.00  0.00    +0.000 A 
ATOM      6  C   UNL     1       2.779   6.050  19.417  0.00  0.00    +0.000 A 
ATOM      7  C   UNL     1       2.073   5.472  20.483  0.00  0.00    +0.000 A 
ATOM      8  C   UNL     1       1.079   6.220  21.099  0.00  0.00    +0.000 A 
ATOM      9  C   UNL     1       0.813   7.514  20.661  0.00  0.00    +0.000 A 
ATOM     10  C   UNL     1       1.557   8.161  19.640  0.00  0.00    +0.000 A 
ENDROOT
BRANCH   1  14
ATOM     11  C   UNL     1       1.630  13.344  19.553  0.00  0.00    +0.000 C 
ATOM     12  C   UNL     1       0.618  12.807  20.560  0.00  0.00    +0.000 C 
ATOM     13  C   UNL     1       0.902  11.332  20.914  0.00  0.00    +0.000 C 
ATOM     14  N   UNL     1       0.478  10.380  19.883  0.00  0.00    +0.000 N 
ATOM     15  C   UNL     1      -0.900  10.567  19.387  0.00  0.00    +0.000 C 
ATOM     16  C   UNL     1      -1.222  12.037  19.040  0.00  0.00    +0.000 C 
ATOM     17  N   UNL     1      -0.747  12.992  20.057  0.00  0.00    +0.000 N 
ATOM     18  C   UNL     1      -1.632  13.825  20.707  0.00  0.00    +0.000 A 
ATOM     19  C   UNL     1      -1.197  15.039  21.253  0.00  0.00    +0.000 A 
ATOM     20  C   UNL     1      -2.087  15.893  21.901  0.00  0.00    +0.000 A 
ATOM     21  C   UNL     1      -3.419  15.518  22.000  0.00  0.00    +0.000 A 
ATOM     22  C   UNL     1      -3.787  14.306  21.443  0.00  0.00    +0.000 A 
ATOM     23  N   UNL     1      -2.931  13.471  20.800  0.00  0.00    +0.000 NA
BRANCH  21  24
ATOM     24  C   UNL     1      -4.383  16.356  22.641  0.00  0.00    +0.000 C 
ATOM     25  N   UNL     1      -5.164  17.030  23.165  0.00  0.00    +0.000 NA
ENDBRANCH  21  24
ENDBRANCH   1  14
BRANCH   7  26
ATOM     26  C   UNL     1       2.303   4.048  20.924  0.00  0.00    +0.000 C 
ATOM     27  F   UNL     1       2.484   3.915  22.266  0.00  0.00    +0.000 F 
ATOM     28  F   UNL     1       1.270   3.224  20.597  0.00  0.00    +0.000 F 
ATOM     29  F   UNL     1       3.409   3.508  20.341  0.00  0.00    +0.000 F 
ENDBRANCH   7  26
BRANCH   4  30
ATOM     30  C   UNL     1       3.818   7.065  16.756  0.00  0.00    +0.000 C 
BRANCH  30  31
ATOM     31  C   UNL     1       5.093   6.364  17.168  0.00  0.00    +0.000 A 
ATOM     32  C   UNL     1       5.165   4.961  17.156  0.00  0.00    +0.000 A 
ATOM     33  C   UNL     1       6.382   4.307  17.367  0.00  0.00    +0.000 A 
ATOM     34  C   UNL     1       7.541   5.046  17.592  0.00  0.00    +0.000 A 
ATOM     35  C   UNL     1       7.481   6.437  17.626  0.00  0.00    +0.000 A 
ATOM     36  C   UNL     1       6.264   7.093  17.418  0.00  0.00    +0.000 A 
ENDBRANCH  30  31
ENDBRANCH   4  30
TORSDOF 5
ENDMDL
MODEL 6
REMARK VINA RESULT:      -7.6      0.915      1.429
REMARK  Name = 
REMARK  6 active torsions:
REMARK  status: ('A' for Active; 'I' for Inactive)
REMARK    1  A    between atoms: C_1  and  C_2
REMARK    2  A    between atoms: N_4  and  C_5
REMARK    3  A    between atoms: C_8  and  C_9
REMARK    4  A    between atoms: C_9  and  C_10
REMARK    5  A    between atoms: C_18  and  C_19
REMARK    6  A    between atoms: C_32  and  C_33
REMARK                            x       y       z     vdW  Elec       q    Type
REMARK                         _______ _______ _______ _____ _____    ______ ____
ROOT
ATOM      1  C   UNL     1       1.578   8.932  18.847  0.00  0.00    +0.000 A 
ATOM      2  N   UNL     1       2.309   9.409  17.816  0.00  0.00    +0.000 NA
ATOM      3  N   UNL     1       3.269   8.649  17.186  0.00  0.00    +0.000 NA
ATOM      4  C   UNL     1       3.548   7.401  17.615  0.00  0.00    +0.000 A 
ATOM      5  C   UNL     1       2.885   6.854  18.729  0.00  0.00    +0.000 A 
ATOM      6  C   UNL     1       3.176   5.563  19.253  0.00  0.00    +0.000 A 
ATOM      7  C   UNL     1       2.403   4.968  20.262  0.00  0.00    +0.000 A 
ATOM      8  C   UNL     1       1.316   5.671  20.761  0.00  0.00    +0.000 A 
ATOM      9  C   UNL     1       1.024   6.939  20.267  0.00  0.00    +0.000 A 
ATOM     10  C   UNL     1       1.827   7.606  19.305  0.00  0.00    +0.000 A 
ENDROOT
BRANCH   1  14
ATOM     11  C   UNL     1       0.760   9.512  22.573  0.00  0.00    +0.000 C 
ATOM     12  C   UNL     1      -0.372  10.040  21.696  0.00  0.00    +0.000 C 
ATOM     13  C   UNL     1      -0.417   9.318  20.334  0.00  0.00    +0.000 C 
ATOM     14  N   UNL     1       0.611   9.766  19.389  0.00  0.00    +0.000 N 
ATOM     15  C   UNL     1       0.718  11.229  19.228  0.00  0.00    +0.000 C 
ATOM     16  C   UNL     1       0.746  11.984  20.574  0.00  0.00    +0.000 C 
ATOM     17  N   UNL     1      -0.255  11.494  21.537  0.00  0.00    +0.000 N 
ATOM     18  C   UNL     1      -1.223  12.338  22.038  0.00  0.00    +0.000 A 
ATOM     19  C   UNL     1      -1.823  12.079  23.276  0.00  0.00    +0.000 A 
ATOM     20  C   UNL     1      -2.793  12.934  23.795  0.00  0.00    +0.000 A 
ATOM     21  C   UNL     1      -3.160  14.052  23.060  0.00  0.00    +0.000 A 
ATOM     22  C   UNL     1      -2.533  14.252  21.843  0.00  0.00    +0.000 A 
ATOM     23  N   UNL     1      -1.578  13.433  21.332  0.00  0.00    +0.000 NA
BRANCH  21  24
ATOM     24  C   UNL     1      -4.138  14.974  23.544  0.00  0.00    +0.000 C 
ATOM     25  N   UNL     1      -4.935  15.715  23.937  0.00  0.00    +0.000 NA
ENDBRANCH  21  24
ENDBRANCH   1  14
BRANCH   7  26
ATOM     26  C   UNL     1       2.665   3.568  20.759  0.00  0.00    +0.000 C 
ATOM     27  F   UNL     1       3.900   3.097  20.436  0.00  0.00    +0.000 F 
ATOM     28  F   UNL     1       2.561   3.463  22.112  0.00  0.00    +0.000 F 
ATOM     29  F   UNL     1       1.776   2.672  20.246  0.00  0.00    +0.000 F 
ENDBRANCH   7  26
BRANCH   4  30
ATOM     30  C   UNL     1       4.410   6.580  16.678  0.00  0.00    +0.000 C 
BRANCH  30  31
ATOM     31  C   UNL     1       5.777   6.147  17.157  0.00  0.00    +0.000 A 
ATOM     32  C   UNL     1       6.645   7.074  17.758  0.00  0.00    +0.000 A 
ATOM     33  C   UNL     1       7.835   6.654  18.357  0.00  0.00    +0.000 A 
ATOM     34  C   UNL     1       8.173   5.303  18.366  0.00  0.00    +0.000 A 
ATOM     35  C   UNL     1       7.332   4.374  17.757  0.00  0.00    +0.000 A 
ATOM     36  C   UNL     1       6.142   4.793  17.154  0.00  0.00    +0.000 A 
ENDBRANCH  30  31
ENDBRANCH   4  30
TORSDOF 5
ENDMDL
MODEL 7
REMARK VINA RESULT:      -7.6      1.556      2.377
REMARK  Name = 
REMARK  6 active torsions:
REMARK  status: ('A' for Active; 'I' for Inactive)
REMARK    1  A    between atoms: C_1  and  C_2
REMARK    2  A    between atoms: N_4  and  C_5
REMARK    3  A    between atoms: C_8  and  C_9
REMARK    4  A    between atoms: C_9  and  C_10
REMARK    5  A    between atoms: C_18  and  C_19
REMARK    6  A    between atoms: C_32  and  C_33
REMARK                            x       y       z     vdW  Elec       q    Type
REMARK                         _______ _______ _______ _____ _____    ______ ____
ROOT
ATOM      1  C   UNL     1       2.400   7.771  18.866  0.00  0.00    +0.000 A 
ATOM      2  N   UNL     1       3.054   7.890  17.691  0.00  0.00    +0.000 NA
ATOM      3  N   UNL     1       3.585   6.802  17.034  0.00  0.00    +0.000 NA
ATOM      4  C   UNL     1       3.509   5.569  17.576  0.00  0.00    +0.000 A 
ATOM      5  C   UNL     1       2.909   5.367  18.833  0.00  0.00    +0.000 A 
ATOM      6  C   UNL     1       2.846   4.096  19.472  0.00  0.00    +0.000 A 
ATOM      7  C   UNL     1       2.110   3.879  20.647  0.00  0.00    +0.000 A 
ATOM      8  C   UNL     1       1.420   4.949  21.199  0.00  0.00    +0.000 A 
ATOM      9  C   UNL     1       1.479   6.201  20.593  0.00  0.00    +0.000 A 
ATOM     10  C   UNL     1       2.275   6.478  19.451  0.00  0.00    +0.000 A 
ENDROOT
BRANCH   1  14
ATOM     11  C   UNL     1      -0.778   9.687  17.809  0.00  0.00    +0.000 C 
ATOM     12  C   UNL     1       0.083  10.557  18.720  0.00  0.00    +0.000 C 
ATOM     13  C   UNL     1       1.567  10.138  18.665  0.00  0.00    +0.000 C 
ATOM     14  N   UNL     1       1.872   8.924  19.428  0.00  0.00    +0.000 N 
ATOM     15  C   UNL     1       1.350   8.905  20.809  0.00  0.00    +0.000 C 
ATOM     16  C   UNL     1      -0.129   9.337  20.902  0.00  0.00    +0.000 C 
ATOM     17  N   UNL     1      -0.439  10.528  20.091  0.00  0.00    +0.000 N 
ATOM     18  C   UNL     1      -0.935  11.671  20.680  0.00  0.00    +0.000 A 
ATOM     19  C   UNL     1      -1.700  12.580  19.939  0.00  0.00    +0.000 A 
ATOM     20  C   UNL     1      -2.217  13.731  20.531  0.00  0.00    +0.000 A 
ATOM     21  C   UNL     1      -1.959  13.965  21.873  0.00  0.00    +0.000 A 
ATOM     22  C   UNL     1      -1.195  13.031  22.551  0.00  0.00    +0.000 A 
ATOM     23  N   UNL     1      -0.696  11.901  21.989  0.00  0.00    +0.000 NA
BRANCH  21  24
ATOM     24  C   UNL     1      -2.472  15.120  22.540  0.00  0.00    +0.000 C 
ATOM     25  N   UNL     1      -2.892  16.056  23.075  0.00  0.00    +0.000 NA
ENDBRANCH  21  24
ENDBRANCH   1  14
BRANCH   7  26
ATOM     26  C   UNL     1       1.980   2.515  21.276  0.00  0.00    +0.000 C 
ATOM     27  F   UNL     1       1.020   2.447  22.237  0.00  0.00    +0.000 F 
ATOM     28  F   UNL     1       1.680   1.545  20.370  0.00  0.00    +0.000 F 
ATOM     29  F   UNL     1       3.138   2.120  21.875  0.00  0.00    +0.000 F 
ENDBRANCH   7  26
BRANCH   4  30
ATOM     30  C   UNL     1       3.875   4.435  16.640  0.00  0.00    +0.000 C 
BRANCH  30  31
ATOM     31  C   UNL     1       5.200   4.503  15.917  0.00  0.00    +0.000 A 
ATOM     32  C   UNL     1       5.274   4.212  14.545  0.00  0.00    +0.000 A 
ATOM     33  C   UNL     1       6.454   4.436  13.830  0.00  0.00    +0.000 A 
ATOM     34  C   UNL     1       7.574   4.954  14.476  0.00  0.00    +0.000 A 
ATOM     35  C   UNL     1       7.521   5.229  15.841  0.00  0.00    +0.000 A 
ATOM     36  C   UNL     1       6.343   5.002  16.559  0.00  0.00    +0.000 A 
ENDBRANCH  30  31
ENDBRANCH   4  30
TORSDOF 5
ENDMDL
MODEL 8
REMARK VINA RESULT:      -7.4      4.735     10.172
REMARK  Name = 
REMARK  6 active torsions:
REMARK  status: ('A' for Active; 'I' for Inactive)
REMARK    1  A    between atoms: C_1  and  C_2
REMARK    2  A    between atoms: N_4  and  C_5
REMARK    3  A    between atoms: C_8  and  C_9
REMARK    4  A    between atoms: C_9  and  C_10
REMARK    5  A    between atoms: C_18  and  C_19
REMARK    6  A    between atoms: C_32  and  C_33
REMARK                            x       y       z     vdW  Elec       q    Type
REMARK                         _______ _______ _______ _____ _____    ______ ____
ROOT
ATOM      1  C   UNL     1      -0.616  11.816  19.947  0.00  0.00    +0.000 A 
ATOM      2  N   UNL     1      -0.246  12.697  18.992  0.00  0.00    +0.000 NA
ATOM      3  N   UNL     1      -0.526  14.042  19.088  0.00  0.00    +0.000 NA
ATOM      4  C   UNL     1      -1.232  14.523  20.132  0.00  0.00    +0.000 A 
ATOM      5  C   UNL     1      -1.719  13.664  21.134  0.00  0.00    +0.000 A 
ATOM      6  C   UNL     1      -2.510  14.113  22.229  0.00  0.00    +0.000 A 
ATOM      7  C   UNL     1      -2.855  13.276  23.302  0.00  0.00    +0.000 A 
ATOM      8  C   UNL     1      -2.404  11.964  23.286  0.00  0.00    +0.000 A 
ATOM      9  C   UNL     1      -1.639  11.506  22.217  0.00  0.00    +0.000 A 
ATOM     10  C   UNL     1      -1.336  12.297  21.078  0.00  0.00    +0.000 A 
ENDROOT
BRANCH   1  14
ATOM     11  C   UNL     1       2.354  10.411  17.923  0.00  0.00    +0.000 C 
ATOM     12  C   UNL     1       1.357   9.300  18.237  0.00  0.00    +0.000 C 
ATOM     13  C   UNL     1      -0.063   9.860  18.462  0.00  0.00    +0.000 C 
ATOM     14  N   UNL     1      -0.253  10.489  19.773  0.00  0.00    +0.000 N 
ATOM     15  C   UNL     1       0.206   9.688  20.924  0.00  0.00    +0.000 C 
ATOM     16  C   UNL     1       1.618   9.096  20.723  0.00  0.00    +0.000 C 
ATOM     17  N   UNL     1       1.819   8.512  19.385  0.00  0.00    +0.000 N 
ATOM     18  C   UNL     1       2.150   7.182  19.240  0.00  0.00    +0.000 A 
ATOM     19  C   UNL     1       2.831   6.737  18.101  0.00  0.00    +0.000 A 
ATOM     20  C   UNL     1       3.181   5.397  17.953  0.00  0.00    +0.000 A 
ATOM     21  C   UNL     1       2.840   4.503  18.957  0.00  0.00    +0.000 A 
ATOM     22  C   UNL     1       2.164   5.002  20.057  0.00  0.00    +0.000 A 
ATOM     23  N   UNL     1       1.828   6.307  20.218  0.00  0.00    +0.000 NA
BRANCH  21  24
ATOM     24  C   UNL     1       3.182   3.118  18.870  0.00  0.00    +0.000 C 
ATOM     25  N   UNL     1       3.457   1.997  18.793  0.00  0.00    +0.000 NA
ENDBRANCH  21  24
ENDBRANCH   1  14
BRANCH   7  26
ATOM     26  C   UNL     1      -3.625  13.776  24.498  0.00  0.00    +0.000 C 
ATOM     27  F   UNL     1      -2.887  14.554  25.335  0.00  0.00    +0.000 F 
ATOM     28  F   UNL     1      -4.713  14.516  24.151  0.00  0.00    +0.000 F 
ATOM     29  F   UNL     1      -4.099  12.751  25.261  0.00  0.00    +0.000 F 
ENDBRANCH   7  26
BRANCH   4  30
ATOM     30  C   UNL     1      -1.231  16.033  20.262  0.00  0.00    +0.000 C 
BRANCH  30  31
ATOM     31  C   UNL     1      -0.425  16.838  19.268  0.00  0.00    +0.000 A 
ATOM     32  C   UNL     1       0.978  16.810  19.305  0.00  0.00    +0.000 A 
ATOM     33  C   UNL     1       1.732  17.408  18.291  0.00  0.00    +0.000 A 
ATOM     34  C   UNL     1       1.093  18.040  17.227  0.00  0.00    +0.000 A 
ATOM     35  C   UNL     1      -0.299  18.092  17.187  0.00  0.00    +0.000 A 
ATOM     36  C   UNL     1      -1.054  17.498  18.202  0.00  0.00    +0.000 A 
ENDBRANCH  30  31
ENDBRANCH   4  30
TORSDOF 5
ENDMDL
MODEL 9
REMARK VINA RESULT:      -7.3      4.239     10.753
REMARK  Name = 
REMARK  6 active torsions:
REMARK  status: ('A' for Active; 'I' for Inactive)
REMARK    1  A    between atoms: C_1  and  C_2
REMARK    2  A    between atoms: N_4  and  C_5
REMARK    3  A    between atoms: C_8  and  C_9
REMARK    4  A    between atoms: C_9  and  C_10
REMARK    5  A    between atoms: C_18  and  C_19
REMARK    6  A    between atoms: C_32  and  C_33
REMARK                            x       y       z     vdW  Elec       q    Type
REMARK                         _______ _______ _______ _____ _____    ______ ____
ROOT
ATOM      1  C   UNL     1      -0.201  12.152  20.996  0.00  0.00    +0.000 A 
ATOM      2  N   UNL     1       0.164  12.968  22.007  0.00  0.00    +0.000 NA
ATOM      3  N   UNL     1      -0.705  13.881  22.563  0.00  0.00    +0.000 NA
ATOM      4  C   UNL     1      -1.954  14.024  22.074  0.00  0.00    +0.000 A 
ATOM      5  C   UNL     1      -2.392  13.265  20.973  0.00  0.00    +0.000 A 
ATOM      6  C   UNL     1      -3.682  13.412  20.388  0.00  0.00    +0.000 A 
ATOM      7  C   UNL     1      -4.162  12.544  19.396  0.00  0.00    +0.000 A 
ATOM      8  C   UNL     1      -3.343  11.505  18.976  0.00  0.00    +0.000 A 
ATOM      9  C   UNL     1      -2.075  11.354  19.530  0.00  0.00    +0.000 A 
ATOM     10  C   UNL     1      -1.524  12.257  20.477  0.00  0.00    +0.000 A 
ENDROOT
BRANCH   1  14
ATOM     11  C   UNL     1      -0.296   8.303  21.243  0.00  0.00    +0.000 C 
ATOM     12  C   UNL     1       1.111   8.773  20.887  0.00  0.00    +0.000 C 
ATOM     13  C   UNL     1       1.365  10.217  21.370  0.00  0.00    +0.000 C 
ATOM     14  N   UNL     1       0.738  11.243  20.532  0.00  0.00    +0.000 N 
ATOM     15  C   UNL     1       0.982  11.102  19.082  0.00  0.00    +0.000 C 
ATOM     16  C   UNL     1       0.755   9.664  18.569  0.00  0.00    +0.000 C 
ATOM     17  N   UNL     1       1.343   8.635  19.444  0.00  0.00    +0.000 N 
ATOM     18  C   UNL     1       2.296   7.764  18.964  0.00  0.00    +0.000 A 
ATOM     19  C   UNL     1       2.481   6.510  19.560  0.00  0.00    +0.000 A 
ATOM     20  C   UNL     1       3.434   5.618  19.072  0.00  0.00    +0.000 A 
ATOM     21  C   UNL     1       4.204   5.994  17.981  0.00  0.00    +0.000 A 
ATOM     22  C   UNL     1       3.976   7.246  17.437  0.00  0.00    +0.000 A 
ATOM     23  N   UNL     1       3.043   8.119  17.896  0.00  0.00    +0.000 NA
BRANCH  21  24
ATOM     24  C   UNL     1       5.188   5.119  17.426  0.00  0.00    +0.000 C 
ATOM     25  N   UNL     1       5.979   4.407  16.974  0.00  0.00    +0.000 NA
ENDBRANCH  21  24
ENDBRANCH   1  14
BRANCH   7  26
ATOM     26  C   UNL     1      -5.558  12.653  18.836  0.00  0.00    +0.000 C 
ATOM     27  F   UNL     1      -6.027  13.929  18.788  0.00  0.00    +0.000 F 
ATOM     28  F   UNL     1      -5.655  12.165  17.569  0.00  0.00    +0.000 F 
ATOM     29  F   UNL     1      -6.459  11.949  19.576  0.00  0.00    +0.000 F 
ENDBRANCH   7  26
BRANCH   4  30
ATOM     30  C   UNL     1      -2.888  14.847  22.938  0.00  0.00    +0.000 C 
BRANCH  30  31
ATOM     31  C   UNL     1      -4.098  14.166  23.535  0.00  0.00    +0.000 A 
ATOM     32  C   UNL     1      -5.392  14.614  23.219  0.00  0.00    +0.000 A 
ATOM     33  C   UNL     1      -6.517  13.891  23.624  0.00  0.00    +0.000 A 
ATOM     34  C   UNL     1      -6.365  12.712  24.350  0.00  0.00    +0.000 A 
ATOM     35  C   UNL     1      -5.089  12.266  24.688  0.00  0.00    +0.000 A 
ATOM     36  C   UNL     1      -3.962  12.989  24.286  0.00  0.00    +0.000 A 
ENDBRANCH  30  31
ENDBRANCH   4  30
TORSDOF 5
ENDMDL
