MODEL 1
REMARK VINA RESULT:      -8.0      0.000      0.000
REMARK  Name = 
REMARK  3 active torsions:
REMARK  status: ('A' for Active; 'I' for Inactive)
REMARK    1  A    between atoms: S_2  and  C_4
REMARK    2  A    between atoms: S_2  and  C_12
REMARK    3  A    between atoms: C_22  and  N_23
REMARK                            x       y       z     vdW  Elec       q    Type
REMARK                         _______ _______ _______ _____ _____    ______ ____
ROOT
ATOM      1  C   UNL     1       3.396   5.626  18.391  0.00  0.00    +0.000 A 
ATOM      2  C   UNL     1       3.688   6.728  17.601  0.00  0.00    +0.000 A 
ATOM      3  N   UNL     1       3.195   7.960  17.796  0.00  0.00    +0.000 NA
ATOM      4  C   UNL     1       2.329   8.149  18.795  0.00  0.00    +0.000 A 
ATOM      5  C   UNL     1       1.810   9.436  18.959  0.00  0.00    +0.000 A 
ATOM      6  F   UNL     1       2.203  10.423  18.135  0.00  0.00    +0.000 F 
ATOM      7  C   UNL     1       0.875   9.759  19.934  0.00  0.00    +0.000 A 
ATOM      8  C   UNL     1       0.417   8.760  20.765  0.00  0.00    +0.000 A 
ATOM      9  C   UNL     1       0.906   7.459  20.602  0.00  0.00    +0.000 A 
ATOM     10  C   UNL     1       1.908   7.097  19.652  0.00  0.00    +0.000 A 
ATOM     11  C   UNL     1       2.476   5.758  19.462  0.00  0.00    +0.000 A 
ENDROOT
BRANCH  11  12
ATOM     12  N   UNL     1       2.042   4.701  20.267  0.00  0.00    +0.000 N 
ATOM     13  C   UNL     1       2.668   4.321  21.553  0.00  0.00    +0.000 C 
ATOM     14  C   UNL     1       2.793   2.792  21.666  0.00  0.00    +0.000 C 
ATOM     15  O   UNL     1       1.545   2.118  21.443  0.00  0.00    +0.000 OA
ATOM     16  C   UNL     1       1.004   2.484  20.164  0.00  0.00    +0.000 C 
ATOM     17  C   UNL     1       0.744   4.007  20.098  0.00  0.00    +0.000 C 
ENDBRANCH  11  12
BRANCH   1  19
ATOM     18  O   UNL     1       3.345   3.162  17.583  0.00  0.00    +0.000 OA
ATOM     19  S   UNL     1       4.319   4.170  17.968  0.00  0.00    +0.000 S 
ATOM     20  O   UNL     1       5.282   3.915  19.024  0.00  0.00    +0.000 OA
BRANCH  19  21
ATOM     21  C   UNL     1       5.332   4.440  16.518  0.00  0.00    +0.000 A 
ATOM     22  C   UNL     1       6.610   4.984  16.665  0.00  0.00    +0.000 A 
ATOM     23  C   UNL     1       7.412   5.164  15.535  0.00  0.00    +0.000 A 
ATOM     24  C   UNL     1       6.936   4.786  14.281  0.00  0.00    +0.000 A 
ATOM     25  F   UNL     1       7.713   4.958  13.205  0.00  0.00    +0.000 F 
ATOM     26  C   UNL     1       5.665   4.230  14.145  0.00  0.00    +0.000 A 
ATOM     27  F   UNL     1       5.219   3.860  12.938  0.00  0.00    +0.000 F 
ATOM     28  C   UNL     1       4.852   4.049  15.257  0.00  0.00    +0.000 A 
ENDBRANCH  19  21
ENDBRANCH   1  19
TORSDOF 3
ENDMDL
MODEL 2
REMARK VINA RESULT:      -7.2      0.826      1.250
REMARK  Name = 
REMARK  3 active torsions:
REMARK  status: ('A' for Active; 'I' for Inactive)
REMARK    1  A    between atoms: S_2  and  C_4
REMARK    2  A    between atoms: S_2  and  C_12
REMARK    3  A    between atoms: C_22  and  N_23
REMARK                            x       y       z     vdW  Elec       q    Type
REMARK                         _______ _______ _______ _____ _____    ______ ____
ROOT
ATOM      1  C   UNL     1       3.982   5.475  17.839  0.00  0.00    +0.000 A 
ATOM      2  C   UNL     1       4.259   6.631  17.124  0.00  0.00    +0.000 A 
ATOM      3  N   UNL     1       3.697   7.826  17.357  0.00  0.00    +0.000 NA
ATOM      4  C   UNL     1       2.773   7.920  18.317  0.00  0.00    +0.000 A 
ATOM      5  C   UNL     1       2.184   9.170  18.520  0.00  0.00    +0.000 A 
ATOM      6  F   UNL     1       2.570  10.218  17.770  0.00  0.00    +0.000 F 
ATOM      7  C   UNL     1       1.187   9.397  19.459  0.00  0.00    +0.000 A 
ATOM      8  C   UNL     1       0.736   8.334  20.211  0.00  0.00    +0.000 A 
ATOM      9  C   UNL     1       1.296   7.068  20.007  0.00  0.00    +0.000 A 
ATOM     10  C   UNL     1       2.362   6.804  19.094  0.00  0.00    +0.000 A 
ATOM     11  C   UNL     1       3.003   5.506  18.866  0.00  0.00    +0.000 A 
ENDROOT
BRANCH  11  12
ATOM     12  N   UNL     1       2.582   4.387  19.590  0.00  0.00    +0.000 N 
ATOM     13  C   UNL     1       1.528   3.450  19.139  0.00  0.00    +0.000 C 
ATOM     14  C   UNL     1       0.597   3.078  20.305  0.00  0.00    +0.000 C 
ATOM     15  O   UNL     1       1.312   2.589  21.450  0.00  0.00    +0.000 OA
ATOM     16  C   UNL     1       2.288   3.554  21.875  0.00  0.00    +0.000 C 
ATOM     17  C   UNL     1       3.313   3.825  20.750  0.00  0.00    +0.000 C 
ENDBRANCH  11  12
BRANCH   1  19
ATOM     18  O   UNL     1       4.096   2.960  17.216  0.00  0.00    +0.000 OA
ATOM     19  S   UNL     1       4.995   4.088  17.391  0.00  0.00    +0.000 S 
ATOM     20  O   UNL     1       6.112   4.018  18.315  0.00  0.00    +0.000 OA
BRANCH  19  21
ATOM     21  C   UNL     1       5.771   4.337  15.797  0.00  0.00    +0.000 A 
ATOM     22  C   UNL     1       7.009   4.979  15.729  0.00  0.00    +0.000 A 
ATOM     23  C   UNL     1       7.627   5.144  14.487  0.00  0.00    +0.000 A 
ATOM     24  C   UNL     1       7.012   4.653  13.337  0.00  0.00    +0.000 A 
ATOM     25  F   UNL     1       7.615   4.812  12.152  0.00  0.00    +0.000 F 
ATOM     26  C   UNL     1       5.784   4.000  13.416  0.00  0.00    +0.000 A 
ATOM     27  F   UNL     1       5.205   3.522  12.307  0.00  0.00    +0.000 F 
ATOM     28  C   UNL     1       5.152   3.832  14.642  0.00  0.00    +0.000 A 
ENDBRANCH  19  21
ENDBRANCH   1  19
TORSDOF 3
ENDMDL
MODEL 3
REMARK VINA RESULT:      -7.1      2.271      6.592
REMARK  Name = 
REMARK  3 active torsions:
REMARK  status: ('A' for Active; 'I' for Inactive)
REMARK    1  A    between atoms: S_2  and  C_4
REMARK    2  A    between atoms: S_2  and  C_12
REMARK    3  A    between atoms: C_22  and  N_23
REMARK                            x       y       z     vdW  Elec       q    Type
REMARK                         _______ _______ _______ _____ _____    ______ ____
ROOT
ATOM      1  C   UNL     1       6.048   4.970  17.088  0.00  0.00    +0.000 A 
ATOM      2  C   UNL     1       7.176   5.623  16.614  0.00  0.00    +0.000 A 
ATOM      3  N   UNL     1       7.599   5.592  15.342  0.00  0.00    +0.000 NA
ATOM      4  C   UNL     1       6.919   4.853  14.461  0.00  0.00    +0.000 A 
ATOM      5  C   UNL     1       7.397   4.816  13.149  0.00  0.00    +0.000 A 
ATOM      6  F   UNL     1       8.492   5.524  12.819  0.00  0.00    +0.000 F 
ATOM      7  C   UNL     1       6.806   4.060  12.147  0.00  0.00    +0.000 A 
ATOM      8  C   UNL     1       5.710   3.287  12.463  0.00  0.00    +0.000 A 
ATOM      9  C   UNL     1       5.229   3.291  13.777  0.00  0.00    +0.000 A 
ATOM     10  C   UNL     1       5.771   4.097  14.823  0.00  0.00    +0.000 A 
ATOM     11  C   UNL     1       5.286   4.161  16.205  0.00  0.00    +0.000 A 
ENDROOT
BRANCH  11  12
ATOM     12  N   UNL     1       4.185   3.391  16.590  0.00  0.00    +0.000 N 
ATOM     13  C   UNL     1       2.780   3.849  16.513  0.00  0.00    +0.000 C 
ATOM     14  C   UNL     1       2.005   3.441  17.777  0.00  0.00    +0.000 C 
ATOM     15  O   UNL     1       2.110   2.038  18.061  0.00  0.00    +0.000 OA
ATOM     16  C   UNL     1       3.490   1.655  18.173  0.00  0.00    +0.000 C 
ATOM     17  C   UNL     1       4.241   1.933  16.850  0.00  0.00    +0.000 C 
ENDBRANCH  11  12
BRANCH   1  19
ATOM     18  O   UNL     1       6.766   6.126  19.295  0.00  0.00    +0.000 OA
ATOM     19  S   UNL     1       5.667   5.324  18.785  0.00  0.00    +0.000 S 
ATOM     20  O   UNL     1       5.278   4.086  19.436  0.00  0.00    +0.000 OA
BRANCH  19  21
ATOM     21  C   UNL     1       4.212   6.357  18.923  0.00  0.00    +0.000 A 
ATOM     22  C   UNL     1       3.969   7.333  17.954  0.00  0.00    +0.000 A 
ATOM     23  C   UNL     1       2.815   8.117  18.046  0.00  0.00    +0.000 A 
ATOM     24  C   UNL     1       1.916   7.905  19.090  0.00  0.00    +0.000 A 
ATOM     25  F   UNL     1       0.812   8.658  19.167  0.00  0.00    +0.000 F 
ATOM     26  C   UNL     1       2.159   6.919  20.043  0.00  0.00    +0.000 A 
ATOM     27  F   UNL     1       1.284   6.715  21.037  0.00  0.00    +0.000 F 
ATOM     28  C   UNL     1       3.303   6.134  19.971  0.00  0.00    +0.000 A 
ENDBRANCH  19  21
ENDBRANCH   1  19
TORSDOF 3
ENDMDL
MODEL 4
REMARK VINA RESULT:      -7.1      0.774      1.371
REMARK  Name = 
REMARK  3 active torsions:
REMARK  status: ('A' for Active; 'I' for Inactive)
REMARK    1  A    between atoms: S_2  and  C_4
REMARK    2  A    between atoms: S_2  and  C_12
REMARK    3  A    between atoms: C_22  and  N_23
REMARK                            x       y       z     vdW  Elec       q    Type
REMARK                         _______ _______ _______ _____ _____    ______ ____
ROOT
ATOM      1  C   UNL     1       3.049   5.621  18.274  0.00  0.00    +0.000 A 
ATOM      2  C   UNL     1       3.307   6.732  17.485  0.00  0.00    +0.000 A 
ATOM      3  N   UNL     1       2.906   7.979  17.768  0.00  0.00    +0.000 NA
ATOM      4  C   UNL     1       2.171   8.180  18.866  0.00  0.00    +0.000 A 
ATOM      5  C   UNL     1       1.744   9.485  19.123  0.00  0.00    +0.000 A 
ATOM      6  F   UNL     1       2.093  10.477  18.284  0.00  0.00    +0.000 F 
ATOM      7  C   UNL     1       0.947   9.823  20.207  0.00  0.00    +0.000 A 
ATOM      8  C   UNL     1       0.533   8.822  21.059  0.00  0.00    +0.000 A 
ATOM      9  C   UNL     1       0.931   7.504  20.807  0.00  0.00    +0.000 A 
ATOM     10  C   UNL     1       1.796   7.123  19.738  0.00  0.00    +0.000 A 
ATOM     11  C   UNL     1       2.267   5.764  19.449  0.00  0.00    +0.000 A 
ENDROOT
BRANCH  11  12
ATOM     12  N   UNL     1       1.872   4.705  20.270  0.00  0.00    +0.000 N 
ATOM     13  C   UNL     1       2.478   4.400  21.587  0.00  0.00    +0.000 C 
ATOM     14  C   UNL     1       2.692   2.886  21.749  0.00  0.00    +0.000 C 
ATOM     15  O   UNL     1       1.496   2.129  21.507  0.00  0.00    +0.000 OA
ATOM     16  C   UNL     1       0.977   2.425  20.201  0.00  0.00    +0.000 C 
ATOM     17  C   UNL     1       0.625   3.927  20.082  0.00  0.00    +0.000 C 
ENDBRANCH  11  12
BRANCH   1  19
ATOM     18  O   UNL     1       2.831   3.386  16.976  0.00  0.00    +0.000 OA
ATOM     19  S   UNL     1       3.838   4.134  17.710  0.00  0.00    +0.000 S 
ATOM     20  O   UNL     1       4.548   3.539  18.827  0.00  0.00    +0.000 OA
BRANCH  19  21
ATOM     21  C   UNL     1       5.130   4.494  16.524  0.00  0.00    +0.000 A 
ATOM     22  C   UNL     1       5.116   3.859  15.280  0.00  0.00    +0.000 A 
ATOM     23  C   UNL     1       6.107   4.166  14.344  0.00  0.00    +0.000 A 
ATOM     24  C   UNL     1       7.083   5.110  14.654  0.00  0.00    +0.000 A 
ATOM     25  F   UNL     1       8.026   5.400  13.748  0.00  0.00    +0.000 F 
ATOM     26  C   UNL     1       7.081   5.750  15.891  0.00  0.00    +0.000 A 
ATOM     27  F   UNL     1       8.017   6.665  16.177  0.00  0.00    +0.000 F 
ATOM     28  C   UNL     1       6.107   5.454  16.837  0.00  0.00    +0.000 A 
ENDBRANCH  19  21
ENDBRANCH   1  19
TORSDOF 3
ENDMDL
MODEL 5
REMARK VINA RESULT:      -7.1      2.171      6.459
REMARK  Name = 
REMARK  3 active torsions:
REMARK  status: ('A' for Active; 'I' for Inactive)
REMARK    1  A    between atoms: S_2  and  C_4
REMARK    2  A    between atoms: S_2  and  C_12
REMARK    3  A    between atoms: C_22  and  N_23
REMARK                            x       y       z     vdW  Elec       q    Type
REMARK                         _______ _______ _______ _____ _____    ______ ____
ROOT
ATOM      1  C   UNL     1       5.988   4.869  17.290  0.00  0.00    +0.000 A 
ATOM      2  C   UNL     1       7.134   5.519  16.858  0.00  0.00    +0.000 A 
ATOM      3  N   UNL     1       7.573   5.531  15.591  0.00  0.00    +0.000 NA
ATOM      4  C   UNL     1       6.891   4.841  14.673  0.00  0.00    +0.000 A 
ATOM      5  C   UNL     1       7.386   4.848  13.367  0.00  0.00    +0.000 A 
ATOM      6  F   UNL     1       8.498   5.548  13.079  0.00  0.00    +0.000 F 
ATOM      7  C   UNL     1       6.794   4.144  12.326  0.00  0.00    +0.000 A 
ATOM      8  C   UNL     1       5.680   3.380  12.597  0.00  0.00    +0.000 A 
ATOM      9  C   UNL     1       5.182   3.340  13.904  0.00  0.00    +0.000 A 
ATOM     10  C   UNL     1       5.725   4.093  14.989  0.00  0.00    +0.000 A 
ATOM     11  C   UNL     1       5.223   4.111  16.366  0.00  0.00    +0.000 A 
ENDROOT
BRANCH  11  12
ATOM     12  N   UNL     1       4.103   3.347  16.706  0.00  0.00    +0.000 N 
ATOM     13  C   UNL     1       2.705   3.815  16.578  0.00  0.00    +0.000 C 
ATOM     14  C   UNL     1       1.880   3.407  17.810  0.00  0.00    +0.000 C 
ATOM     15  O   UNL     1       1.965   2.002  18.092  0.00  0.00    +0.000 OA
ATOM     16  C   UNL     1       3.337   1.609  18.254  0.00  0.00    +0.000 C 
ATOM     17  C   UNL     1       4.139   1.887  16.961  0.00  0.00    +0.000 C 
ENDBRANCH  11  12
BRANCH   1  19
ATOM     18  O   UNL     1       6.657   5.992  19.530  0.00  0.00    +0.000 OA
ATOM     19  S   UNL     1       5.591   5.161  18.996  0.00  0.00    +0.000 S 
ATOM     20  O   UNL     1       5.251   3.892  19.612  0.00  0.00    +0.000 OA
BRANCH  19  21
ATOM     21  C   UNL     1       4.096   6.132  19.158  0.00  0.00    +0.000 A 
ATOM     22  C   UNL     1       3.246   5.906  20.243  0.00  0.00    +0.000 A 
ATOM     23  C   UNL     1       2.095   6.688  20.385  0.00  0.00    +0.000 A 
ATOM     24  C   UNL     1       1.820   7.689  19.456  0.00  0.00    +0.000 A 
ATOM     25  F   UNL     1       0.718   8.434  19.603  0.00  0.00    +0.000 F 
ATOM     26  C   UNL     1       2.681   7.916  18.385  0.00  0.00    +0.000 A 
ATOM     27  F   UNL     1       2.414   8.888  17.502  0.00  0.00    +0.000 F 
ATOM     28  C   UNL     1       3.826   7.146  18.225  0.00  0.00    +0.000 A 
ENDBRANCH  19  21
ENDBRANCH   1  19
TORSDOF 3
ENDMDL
MODEL 6
REMARK VINA RESULT:      -7.1      6.801      9.643
REMARK  Name = 
REMARK  3 active torsions:
REMARK  status: ('A' for Active; 'I' for Inactive)
REMARK    1  A    between atoms: S_2  and  C_4
REMARK    2  A    between atoms: S_2  and  C_12
REMARK    3  A    between atoms: C_22  and  N_23
REMARK                            x       y       z     vdW  Elec       q    Type
REMARK                         _______ _______ _______ _____ _____    ______ ____
ROOT
ATOM      1  C   UNL     1      -2.780  12.602  19.710  0.00  0.00    +0.000 A 
ATOM      2  C   UNL     1      -3.057  13.367  20.833  0.00  0.00    +0.000 A 
ATOM      3  N   UNL     1      -4.241  13.402  21.460  0.00  0.00    +0.000 NA
ATOM      4  C   UNL     1      -5.250  12.683  20.959  0.00  0.00    +0.000 A 
ATOM      5  C   UNL     1      -6.480  12.759  21.616  0.00  0.00    +0.000 A 
ATOM      6  F   UNL     1      -6.602  13.523  22.717  0.00  0.00    +0.000 F 
ATOM      7  C   UNL     1      -7.617  12.092  21.179  0.00  0.00    +0.000 A 
ATOM      8  C   UNL     1      -7.538  11.339  20.028  0.00  0.00    +0.000 A 
ATOM      9  C   UNL     1      -6.321  11.269  19.342  0.00  0.00    +0.000 A 
ATOM     10  C   UNL     1      -5.116  11.891  19.787  0.00  0.00    +0.000 A 
ATOM     11  C   UNL     1      -3.810  11.823  19.123  0.00  0.00    +0.000 A 
ENDROOT
BRANCH  11  12
ATOM     12  N   UNL     1      -3.670  11.084  17.945  0.00  0.00    +0.000 N 
ATOM     13  C   UNL     1      -3.119   9.711  17.883  0.00  0.00    +0.000 C 
ATOM     14  C   UNL     1      -2.164   9.562  16.687  0.00  0.00    +0.000 C 
ATOM     15  O   UNL     1      -2.763   9.970  15.447  0.00  0.00    +0.000 OA
ATOM     16  C   UNL     1      -3.237  11.322  15.545  0.00  0.00    +0.000 C 
ATOM     17  C   UNL     1      -4.306  11.445  16.656  0.00  0.00    +0.000 C 
ENDBRANCH  11  12
BRANCH   1  19
ATOM     18  O   UNL     1      -0.434  13.663  20.024  0.00  0.00    +0.000 OA
ATOM     19  S   UNL     1      -1.080  12.655  19.200  0.00  0.00    +0.000 S 
ATOM     20  O   UNL     1      -1.038  12.732  17.751  0.00  0.00    +0.000 OA
BRANCH  19  21
ATOM     21  C   UNL     1      -0.241  11.119  19.574  0.00  0.00    +0.000 A 
ATOM     22  C   UNL     1       0.717  10.626  18.684  0.00  0.00    +0.000 A 
ATOM     23  C   UNL     1       1.394   9.443  18.994  0.00  0.00    +0.000 A 
ATOM     24  C   UNL     1       1.119   8.781  20.189  0.00  0.00    +0.000 A 
ATOM     25  F   UNL     1       1.776   7.651  20.478  0.00  0.00    +0.000 F 
ATOM     26  C   UNL     1       0.172   9.287  21.077  0.00  0.00    +0.000 A 
ATOM     27  F   UNL     1      -0.079   8.650  22.228  0.00  0.00    +0.000 F 
ATOM     28  C   UNL     1      -0.514  10.459  20.783  0.00  0.00    +0.000 A 
ENDBRANCH  19  21
ENDBRANCH   1  19
TORSDOF 3
ENDMDL
MODEL 7
REMARK VINA RESULT:      -7.1      6.740      9.529
REMARK  Name = 
REMARK  3 active torsions:
REMARK  status: ('A' for Active; 'I' for Inactive)
REMARK    1  A    between atoms: S_2  and  C_4
REMARK    2  A    between atoms: S_2  and  C_12
REMARK    3  A    between atoms: C_22  and  N_23
REMARK                            x       y       z     vdW  Elec       q    Type
REMARK                         _______ _______ _______ _____ _____    ______ ____
ROOT
ATOM      1  C   UNL     1      -2.789  12.622  19.729  0.00  0.00    +0.000 A 
ATOM      2  C   UNL     1      -3.073  13.385  20.852  0.00  0.00    +0.000 A 
ATOM      3  N   UNL     1      -4.258  13.407  21.480  0.00  0.00    +0.000 NA
ATOM      4  C   UNL     1      -5.259  12.678  20.980  0.00  0.00    +0.000 A 
ATOM      5  C   UNL     1      -6.490  12.741  21.638  0.00  0.00    +0.000 A 
ATOM      6  F   UNL     1      -6.619  13.503  22.738  0.00  0.00    +0.000 F 
ATOM      7  C   UNL     1      -7.619  12.062  21.201  0.00  0.00    +0.000 A 
ATOM      8  C   UNL     1      -7.533  11.310  20.051  0.00  0.00    +0.000 A 
ATOM      9  C   UNL     1      -6.316  11.252  19.363  0.00  0.00    +0.000 A 
ATOM     10  C   UNL     1      -5.117  11.887  19.808  0.00  0.00    +0.000 A 
ATOM     11  C   UNL     1      -3.812  11.833  19.143  0.00  0.00    +0.000 A 
ENDROOT
BRANCH  11  12
ATOM     12  N   UNL     1      -3.664  11.095  17.965  0.00  0.00    +0.000 N 
ATOM     13  C   UNL     1      -3.097   9.729  17.902  0.00  0.00    +0.000 C 
ATOM     14  C   UNL     1      -2.142   9.591  16.705  0.00  0.00    +0.000 C 
ATOM     15  O   UNL     1      -2.748   9.991  15.466  0.00  0.00    +0.000 OA
ATOM     16  C   UNL     1      -3.238  11.338  15.564  0.00  0.00    +0.000 C 
ATOM     17  C   UNL     1      -4.306  11.449  16.677  0.00  0.00    +0.000 C 
ENDBRANCH  11  12
BRANCH   1  19
ATOM     18  O   UNL     1      -0.469  13.750  20.000  0.00  0.00    +0.000 OA
ATOM     19  S   UNL     1      -1.090  12.694  19.218  0.00  0.00    +0.000 S 
ATOM     20  O   UNL     1      -1.048  12.712  17.768  0.00  0.00    +0.000 OA
BRANCH  19  21
ATOM     21  C   UNL     1      -0.217  11.194  19.655  0.00  0.00    +0.000 A 
ATOM     22  C   UNL     1      -0.460  10.594  20.893  0.00  0.00    +0.000 A 
ATOM     23  C   UNL     1       0.200   9.405  21.218  0.00  0.00    +0.000 A 
ATOM     24  C   UNL     1       1.075   8.826  20.302  0.00  0.00    +0.000 A 
ATOM     25  F   UNL     1       1.698   7.685  20.621  0.00  0.00    +0.000 F 
ATOM     26  C   UNL     1       1.301   9.424  19.064  0.00  0.00    +0.000 A 
ATOM     27  F   UNL     1       2.136   8.855  18.185  0.00  0.00    +0.000 F 
ATOM     28  C   UNL     1       0.658  10.608  18.725  0.00  0.00    +0.000 A 
ENDBRANCH  19  21
ENDBRANCH   1  19
TORSDOF 3
ENDMDL
MODEL 8
REMARK VINA RESULT:      -7.0      5.676      8.022
REMARK  Name = 
REMARK  3 active torsions:
REMARK  status: ('A' for Active; 'I' for Inactive)
REMARK    1  A    between atoms: S_2  and  C_4
REMARK    2  A    between atoms: S_2  and  C_12
REMARK    3  A    between atoms: C_22  and  N_23
REMARK                            x       y       z     vdW  Elec       q    Type
REMARK                         _______ _______ _______ _____ _____    ______ ____
ROOT
ATOM      1  C   UNL     1      -0.953  11.034  19.250  0.00  0.00    +0.000 A 
ATOM      2  C   UNL     1      -1.165  10.312  18.084  0.00  0.00    +0.000 A 
ATOM      3  N   UNL     1      -2.281  10.371  17.343  0.00  0.00    +0.000 NA
ATOM      4  C   UNL     1      -3.285  11.146  17.761  0.00  0.00    +0.000 A 
ATOM      5  C   UNL     1      -4.446  11.168  16.984  0.00  0.00    +0.000 A 
ATOM      6  F   UNL     1      -4.506  10.438  15.856  0.00  0.00    +0.000 F 
ATOM      7  C   UNL     1      -5.574  11.902  17.325  0.00  0.00    +0.000 A 
ATOM      8  C   UNL     1      -5.561  12.624  18.498  0.00  0.00    +0.000 A 
ATOM      9  C   UNL     1      -4.417  12.597  19.303  0.00  0.00    +0.000 A 
ATOM     10  C   UNL     1      -3.217  11.903  18.962  0.00  0.00    +0.000 A 
ATOM     11  C   UNL     1      -1.983  11.868  19.753  0.00  0.00    +0.000 A 
ENDROOT
BRANCH  11  12
ATOM     12  N   UNL     1      -1.913  12.572  20.959  0.00  0.00    +0.000 N 
ATOM     13  C   UNL     1      -1.328  13.924  21.103  0.00  0.00    +0.000 C 
ATOM     14  C   UNL     1      -0.465  14.010  22.373  0.00  0.00    +0.000 C 
ATOM     15  O   UNL     1      -1.172  13.590  23.550  0.00  0.00    +0.000 OA
ATOM     16  C   UNL     1      -1.678  12.257  23.377  0.00  0.00    +0.000 C 
ATOM     17  C   UNL     1      -2.659  12.198  22.184  0.00  0.00    +0.000 C 
ENDBRANCH  11  12
BRANCH   1  19
ATOM     18  O   UNL     1       0.520  10.708  21.360  0.00  0.00    +0.000 OA
ATOM     19  S   UNL     1       0.680  10.854  19.923  0.00  0.00    +0.000 S 
ATOM     20  O   UNL     1       1.523  11.895  19.365  0.00  0.00    +0.000 OA
BRANCH  19  21
ATOM     21  C   UNL     1       1.448   9.335  19.368  0.00  0.00    +0.000 A 
ATOM     22  C   UNL     1       2.058   9.294  18.112  0.00  0.00    +0.000 A 
ATOM     23  C   UNL     1       2.685   8.117  17.694  0.00  0.00    +0.000 A 
ATOM     24  C   UNL     1       2.710   7.009  18.538  0.00  0.00    +0.000 A 
ATOM     25  F   UNL     1       3.317   5.887  18.131  0.00  0.00    +0.000 F 
ATOM     26  C   UNL     1       2.112   7.064  19.796  0.00  0.00    +0.000 A 
ATOM     27  F   UNL     1       2.150   5.997  20.605  0.00  0.00    +0.000 F 
ATOM     28  C   UNL     1       1.479   8.223  20.226  0.00  0.00    +0.000 A 
ENDBRANCH  19  21
ENDBRANCH   1  19
TORSDOF 3
ENDMDL
MODEL 9
REMARK VINA RESULT:      -6.9      5.832      8.235
REMARK  Name = 
REMARK  3 active torsions:
REMARK  status: ('A' for Active; 'I' for Inactive)
REMARK    1  A    between atoms: S_2  and  C_4
REMARK    2  A    between atoms: S_2  and  C_12
REMARK    3  A    between atoms: C_22  and  N_23
REMARK                            x       y       z     vdW  Elec       q    Type
REMARK                         _______ _______ _______ _____ _____    ______ ____
ROOT
ATOM      1  C   UNL     1      -0.934  11.171  19.532  0.00  0.00    +0.000 A 
ATOM      2  C   UNL     1      -1.225  10.512  18.347  0.00  0.00    +0.000 A 
ATOM      3  N   UNL     1      -2.382  10.619  17.677  0.00  0.00    +0.000 NA
ATOM      4  C   UNL     1      -3.349  11.383  18.193  0.00  0.00    +0.000 A 
ATOM      5  C   UNL     1      -4.553  11.456  17.488  0.00  0.00    +0.000 A 
ATOM      6  F   UNL     1      -4.690  10.783  16.331  0.00  0.00    +0.000 F 
ATOM      7  C   UNL     1      -5.649  12.183  17.931  0.00  0.00    +0.000 A 
ATOM      8  C   UNL     1      -5.558  12.845  19.136  0.00  0.00    +0.000 A 
ATOM      9  C   UNL     1      -4.369  12.766  19.869  0.00  0.00    +0.000 A 
ATOM     10  C   UNL     1      -3.200  12.078  19.423  0.00  0.00    +0.000 A 
ATOM     11  C   UNL     1      -1.922  11.990  20.137  0.00  0.00    +0.000 A 
ENDROOT
BRANCH  11  12
ATOM     12  N   UNL     1      -1.772  12.632  21.369  0.00  0.00    +0.000 N 
ATOM     13  C   UNL     1      -2.092  12.014  22.676  0.00  0.00    +0.000 C 
ATOM     14  C   UNL     1      -2.824  13.015  23.585  0.00  0.00    +0.000 C 
ATOM     15  O   UNL     1      -2.114  14.256  23.725  0.00  0.00    +0.000 OA
ATOM     16  C   UNL     1      -1.870  14.837  22.434  0.00  0.00    +0.000 C 
ATOM     17  C   UNL     1      -1.012  13.889  21.564  0.00  0.00    +0.000 C 
ENDBRANCH  11  12
BRANCH   1  19
ATOM     18  O   UNL     1       0.659  10.763  21.538  0.00  0.00    +0.000 OA
ATOM     19  S   UNL     1       0.733  10.941  20.097  0.00  0.00    +0.000 S 
ATOM     20  O   UNL     1       1.562  11.978  19.513  0.00  0.00    +0.000 OA
BRANCH  19  21
ATOM     21  C   UNL     1       1.431   9.422  19.459  0.00  0.00    +0.000 A 
ATOM     22  C   UNL     1       1.947   9.395  18.161  0.00  0.00    +0.000 A 
ATOM     23  C   UNL     1       2.521   8.216  17.677  0.00  0.00    +0.000 A 
ATOM     24  C   UNL     1       2.587   7.092  18.496  0.00  0.00    +0.000 A 
ATOM     25  F   UNL     1       3.143   5.969  18.024  0.00  0.00    +0.000 F 
ATOM     26  C   UNL     1       2.083   7.131  19.794  0.00  0.00    +0.000 A 
ATOM     27  F   UNL     1       2.160   6.048  20.578  0.00  0.00    +0.000 F 
ATOM     28  C   UNL     1       1.504   8.292  20.291  0.00  0.00    +0.000 A 
ENDBRANCH  19  21
ENDBRANCH   1  19
TORSDOF 3
ENDMDL
