MODEL 1
REMARK VINA RESULT:      -9.2      0.000      0.000
REMARK  Name = 
REMARK  4 active torsions:
REMARK  status: ('A' for Active; 'I' for Inactive)
REMARK    1  A    between atoms: C_1  and  C_2
REMARK    2  A    between atoms: C_11  and  C_12
REMARK    3  A    between atoms: N_14  and  C_15
REMARK    4  A    between atoms: N_22  and  C_23
REMARK                            x       y       z     vdW  Elec       q    Type
REMARK                         _______ _______ _______ _____ _____    ______ ____
ROOT
ATOM      1  C   UNL     1       0.227   7.823  21.981  0.00  0.00    +0.000 C 
ATOM      2  C   UNL     1       0.624   8.627  20.782  0.00  0.00    +0.000 A 
ATOM      3  C   UNL     1       0.115   9.850  20.540  0.00  0.00    +0.000 A 
ATOM      4  C   UNL     1       0.508  10.596  19.379  0.00  0.00    +0.000 A 
ATOM      5  C   UNL     1       1.386  10.069  18.521  0.00  0.00    +0.000 A 
ATOM      6  N   UNL     1       1.946   8.812  18.718  0.00  0.00    +0.000 N 
ATOM      7  C   UNL     1       2.848   8.336  17.788  0.00  0.00    +0.000 A 
ATOM      8  O   UNL     1       3.195   8.960  16.781  0.00  0.00    +0.000 OA
ATOM      9  C   UNL     1       3.427   6.990  18.050  0.00  0.00    +0.000 A 
ATOM     10  C   UNL     1       4.363   6.451  17.073  0.00  0.00    +0.000 A 
ATOM     11  C   UNL     1       4.992   5.283  17.244  0.00  0.00    +0.000 A 
ATOM     12  C   UNL     1       4.647   4.551  18.519  0.00  0.00    +0.000 A 
ATOM     13  N   UNL     1       5.309   3.466  18.771  0.00  0.00    +0.000 NA
ATOM     14  N   UNL     1       3.662   5.031  19.404  0.00  0.00    +0.000 N 
ATOM     15  C   UNL     1       3.058   6.316  19.165  0.00  0.00    +0.000 A 
ATOM     16  N   UNL     1       2.137   6.859  20.042  0.00  0.00    +0.000 NA
ATOM     17  C   UNL     1       1.626   8.034  19.820  0.00  0.00    +0.000 A 
ATOM     18  H   UNL     1       5.948   3.200  18.004  0.00  0.00    +0.000 HD
ENDROOT
BRANCH  14  19
ATOM     19  C   UNL     1       3.208   4.200  20.574  0.00  0.00    +0.000 C 
ATOM     20  C   UNL     1       1.793   4.514  21.081  0.00  0.00    +0.000 C 
ATOM     21  C   UNL     1       0.642   3.825  20.354  0.00  0.00    +0.000 C 
ATOM     22  C   UNL     1       0.888   2.359  19.976  0.00  0.00    +0.000 C 
ATOM     23  C   UNL     1       2.327   1.927  19.670  0.00  0.00    +0.000 C 
ATOM     24  C   UNL     1       3.416   2.689  20.419  0.00  0.00    +0.000 C 
ENDBRANCH  14  19
BRANCH  11  25
ATOM     25  C   UNL     1       5.937   4.669  16.259  0.00  0.00    +0.000 C 
ATOM     26  O   UNL     1       7.127   4.546  16.547  0.00  0.00    +0.000 OA
ATOM     27  N   UNL     1       5.460   4.339  15.018  0.00  0.00    +0.000 N 
ATOM     28  H   UNL     1       4.552   4.681  14.735  0.00  0.00    +0.000 HD
BRANCH  27  29
ATOM     29  C   UNL     1       6.400   3.963  13.977  0.00  0.00    +0.000 C 
ATOM     30  C   UNL     1       5.748   3.340  12.741  0.00  0.00    +0.000 C 
ATOM     31  C   UNL     1       6.825   3.454  11.673  0.00  0.00    +0.000 C 
ATOM     32  C   UNL     1       7.621   4.709  12.024  0.00  0.00    +0.000 C 
ATOM     33  C   UNL     1       7.126   5.168  13.392  0.00  0.00    +0.000 C 
ENDBRANCH  27  29
ENDBRANCH  11  25
TORSDOF 3
ENDMDL
MODEL 2
REMARK VINA RESULT:      -7.7      1.154      1.448
REMARK  Name = 
REMARK  4 active torsions:
REMARK  status: ('A' for Active; 'I' for Inactive)
REMARK    1  A    between atoms: C_1  and  C_2
REMARK    2  A    between atoms: C_11  and  C_12
REMARK    3  A    between atoms: N_14  and  C_15
REMARK    4  A    between atoms: N_22  and  C_23
REMARK                            x       y       z     vdW  Elec       q    Type
REMARK                         _______ _______ _______ _____ _____    ______ ____
ROOT
ATOM      1  C   UNL     1      -0.345   8.281  22.513  0.00  0.00    +0.000 C 
ATOM      2  C   UNL     1      -0.056   9.244  21.403  0.00  0.00    +0.000 A 
ATOM      3  C   UNL     1      -0.636  10.458  21.340  0.00  0.00    +0.000 A 
ATOM      4  C   UNL     1      -0.347  11.359  20.262  0.00  0.00    +0.000 A 
ATOM      5  C   UNL     1       0.505  10.988  19.301  0.00  0.00    +0.000 A 
ATOM      6  N   UNL     1       1.135   9.750  19.314  0.00  0.00    +0.000 N 
ATOM      7  C   UNL     1       2.004   9.439  18.287  0.00  0.00    +0.000 A 
ATOM      8  O   UNL     1       2.262  10.197  17.348  0.00  0.00    +0.000 OA
ATOM      9  C   UNL     1       2.661   8.105  18.351  0.00  0.00    +0.000 A 
ATOM     10  C   UNL     1       3.565   7.739  17.269  0.00  0.00    +0.000 A 
ATOM     11  C   UNL     1       4.259   6.595  17.262  0.00  0.00    +0.000 A 
ATOM     12  C   UNL     1       4.023   5.698  18.454  0.00  0.00    +0.000 A 
ATOM     13  N   UNL     1       4.750   4.628  18.536  0.00  0.00    +0.000 NA
ATOM     14  N   UNL     1       3.068   6.013  19.440  0.00  0.00    +0.000 N 
ATOM     15  C   UNL     1       2.390   7.282  19.392  0.00  0.00    +0.000 A 
ATOM     16  N   UNL     1       1.495   7.665  20.375  0.00  0.00    +0.000 NA
ATOM     17  C   UNL     1       0.916   8.828  20.326  0.00  0.00    +0.000 A 
ATOM     18  H   UNL     1       5.356   4.492  17.711  0.00  0.00    +0.000 HD
ENDROOT
BRANCH  14  19
ATOM     19  C   UNL     1       2.723   5.023  20.520  0.00  0.00    +0.000 C 
ATOM     20  C   UNL     1       1.225   4.714  20.660  0.00  0.00    +0.000 C 
ATOM     21  C   UNL     1       0.661   3.645  19.728  0.00  0.00    +0.000 C 
ATOM     22  C   UNL     1       1.561   2.423  19.510  0.00  0.00    +0.000 C 
ATOM     23  C   UNL     1       3.079   2.626  19.578  0.00  0.00    +0.000 C 
ATOM     24  C   UNL     1       3.553   3.735  20.513  0.00  0.00    +0.000 C 
ENDBRANCH  14  19
BRANCH  11  25
ATOM     25  C   UNL     1       5.174   6.158  16.163  0.00  0.00    +0.000 C 
ATOM     26  O   UNL     1       6.213   6.781  15.946  0.00  0.00    +0.000 OA
ATOM     27  N   UNL     1       4.781   5.117  15.363  0.00  0.00    +0.000 N 
ATOM     28  H   UNL     1       3.822   4.798  15.411  0.00  0.00    +0.000 HD
BRANCH  27  29
ATOM     29  C   UNL     1       5.535   4.828  14.157  0.00  0.00    +0.000 C 
ATOM     30  C   UNL     1       6.794   3.991  14.393  0.00  0.00    +0.000 C 
ATOM     31  C   UNL     1       7.136   3.462  13.009  0.00  0.00    +0.000 C 
ATOM     32  C   UNL     1       5.802   3.321  12.281  0.00  0.00    +0.000 C 
ATOM     33  C   UNL     1       4.749   3.968  13.177  0.00  0.00    +0.000 C 
ENDBRANCH  27  29
ENDBRANCH  11  25
TORSDOF 3
ENDMDL
MODEL 3
REMARK VINA RESULT:      -7.0      4.139      8.067
REMARK  Name = 
REMARK  4 active torsions:
REMARK  status: ('A' for Active; 'I' for Inactive)
REMARK    1  A    between atoms: C_1  and  C_2
REMARK    2  A    between atoms: C_11  and  C_12
REMARK    3  A    between atoms: N_14  and  C_15
REMARK    4  A    between atoms: N_22  and  C_23
REMARK                            x       y       z     vdW  Elec       q    Type
REMARK                         _______ _______ _______ _____ _____    ______ ____
ROOT
ATOM      1  C   UNL     1      -2.031  16.195  21.139  0.00  0.00    +0.000 C 
ATOM      2  C   UNL     1      -2.300  15.079  22.100  0.00  0.00    +0.000 A 
ATOM      3  C   UNL     1      -3.089  15.240  23.181  0.00  0.00    +0.000 A 
ATOM      4  C   UNL     1      -3.325  14.157  24.091  0.00  0.00    +0.000 A 
ATOM      5  C   UNL     1      -2.749  12.971  23.869  0.00  0.00    +0.000 A 
ATOM      6  N   UNL     1      -1.927  12.744  22.772  0.00  0.00    +0.000 N 
ATOM      7  C   UNL     1      -1.370  11.492  22.609  0.00  0.00    +0.000 A 
ATOM      8  O   UNL     1      -1.555  10.548  23.383  0.00  0.00    +0.000 OA
ATOM      9  C   UNL     1      -0.506  11.297  21.414  0.00  0.00    +0.000 A 
ATOM     10  C   UNL     1       0.116   9.993  21.228  0.00  0.00    +0.000 A 
ATOM     11  C   UNL     1       0.855   9.690  20.155  0.00  0.00    +0.000 A 
ATOM     12  C   UNL     1       1.014  10.809  19.152  0.00  0.00    +0.000 A 
ATOM     13  N   UNL     1       1.637  10.526  18.052  0.00  0.00    +0.000 NA
ATOM     14  N   UNL     1       0.497  12.096  19.393  0.00  0.00    +0.000 N 
ATOM     15  C   UNL     1      -0.318  12.329  20.557  0.00  0.00    +0.000 A 
ATOM     16  N   UNL     1      -0.903  13.559  20.799  0.00  0.00    +0.000 NA
ATOM     17  C   UNL     1      -1.658  13.738  21.842  0.00  0.00    +0.000 A 
ATOM     18  H   UNL     1       2.018   9.566  18.043  0.00  0.00    +0.000 HD
ENDROOT
BRANCH  14  19
ATOM     19  C   UNL     1       0.818  13.239  18.467  0.00  0.00    +0.000 C 
ATOM     20  C   UNL     1       0.513  14.635  19.031  0.00  0.00    +0.000 C 
ATOM     21  C   UNL     1       1.589  15.262  19.913  0.00  0.00    +0.000 C 
ATOM     22  C   UNL     1       3.032  15.053  19.439  0.00  0.00    +0.000 C 
ATOM     23  C   UNL     1       3.357  13.767  18.668  0.00  0.00    +0.000 C 
ATOM     24  C   UNL     1       2.215  13.193  17.835  0.00  0.00    +0.000 C 
ENDBRANCH  14  19
BRANCH  11  25
ATOM     25  C   UNL     1       1.540   8.379  19.932  0.00  0.00    +0.000 C 
ATOM     26  O   UNL     1       1.631   7.570  20.854  0.00  0.00    +0.000 OA
ATOM     27  N   UNL     1       2.131   8.152  18.716  0.00  0.00    +0.000 N 
ATOM     28  H   UNL     1       2.252   8.927  18.078  0.00  0.00    +0.000 HD
BRANCH  27  29
ATOM     29  C   UNL     1       2.993   6.996  18.555  0.00  0.00    +0.000 C 
ATOM     30  C   UNL     1       2.262   5.726  18.116  0.00  0.00    +0.000 C 
ATOM     31  C   UNL     1       3.377   4.832  17.598  0.00  0.00    +0.000 C 
ATOM     32  C   UNL     1       4.439   5.777  17.042  0.00  0.00    +0.000 C 
ATOM     33  C   UNL     1       4.014   7.188  17.440  0.00  0.00    +0.000 C 
ENDBRANCH  27  29
ENDBRANCH  11  25
TORSDOF 3
ENDMDL
MODEL 4
REMARK VINA RESULT:      -7.0      7.862      9.765
REMARK  Name = 
REMARK  4 active torsions:
REMARK  status: ('A' for Active; 'I' for Inactive)
REMARK    1  A    between atoms: C_1  and  C_2
REMARK    2  A    between atoms: C_11  and  C_12
REMARK    3  A    between atoms: N_14  and  C_15
REMARK    4  A    between atoms: N_22  and  C_23
REMARK                            x       y       z     vdW  Elec       q    Type
REMARK                         _______ _______ _______ _____ _____    ______ ____
ROOT
ATOM      1  C   UNL     1      -7.007  11.769  20.602  0.00  0.00    +0.000 C 
ATOM      2  C   UNL     1      -6.205  12.851  21.258  0.00  0.00    +0.000 A 
ATOM      3  C   UNL     1      -6.750  13.712  22.139  0.00  0.00    +0.000 A 
ATOM      4  C   UNL     1      -5.961  14.743  22.748  0.00  0.00    +0.000 A 
ATOM      5  C   UNL     1      -4.667  14.858  22.432  0.00  0.00    +0.000 A 
ATOM      6  N   UNL     1      -4.049  13.999  21.531  0.00  0.00    +0.000 N 
ATOM      7  C   UNL     1      -2.708  14.180  21.257  0.00  0.00    +0.000 A 
ATOM      8  O   UNL     1      -2.013  15.064  21.766  0.00  0.00    +0.000 OA
ATOM      9  C   UNL     1      -2.091  13.228  20.294  0.00  0.00    +0.000 A 
ATOM     10  C   UNL     1      -0.684  13.408  19.967  0.00  0.00    +0.000 A 
ATOM     11  C   UNL     1      -0.014  12.570  19.167  0.00  0.00    +0.000 A 
ATOM     12  C   UNL     1      -0.831  11.428  18.611  0.00  0.00    +0.000 A 
ATOM     13  N   UNL     1      -0.198  10.538  17.914  0.00  0.00    +0.000 NA
ATOM     14  N   UNL     1      -2.215  11.324  18.849  0.00  0.00    +0.000 N 
ATOM     15  C   UNL     1      -2.852  12.247  19.752  0.00  0.00    +0.000 A 
ATOM     16  N   UNL     1      -4.194  12.143  20.069  0.00  0.00    +0.000 NA
ATOM     17  C   UNL     1      -4.741  12.971  20.909  0.00  0.00    +0.000 A 
ATOM     18  H   UNL     1       0.796  10.779  17.765  0.00  0.00    +0.000 HD
ENDROOT
BRANCH  14  19
ATOM     19  C   UNL     1      -3.041  10.282  18.142  0.00  0.00    +0.000 C 
ATOM     20  C   UNL     1      -4.517  10.656  17.937  0.00  0.00    +0.000 C 
ATOM     21  C   UNL     1      -4.839  11.507  16.712  0.00  0.00    +0.000 C 
ATOM     22  C   UNL     1      -4.078  11.133  15.435  0.00  0.00    +0.000 C 
ATOM     23  C   UNL     1      -2.671  10.543  15.582  0.00  0.00    +0.000 C 
ATOM     24  C   UNL     1      -2.427   9.731  16.850  0.00  0.00    +0.000 C 
ENDBRANCH  14  19
BRANCH  11  25
ATOM     25  C   UNL     1       1.421  12.727  18.774  0.00  0.00    +0.000 C 
ATOM     26  O   UNL     1       2.154  11.740  18.726  0.00  0.00    +0.000 OA
ATOM     27  N   UNL     1       1.904  13.992  18.564  0.00  0.00    +0.000 N 
ATOM     28  H   UNL     1       1.346  14.784  18.854  0.00  0.00    +0.000 HD
BRANCH  27  29
ATOM     29  C   UNL     1       3.334  14.186  18.412  0.00  0.00    +0.000 C 
ATOM     30  C   UNL     1       3.713  15.342  17.485  0.00  0.00    +0.000 C 
ATOM     31  C   UNL     1       5.167  15.619  17.835  0.00  0.00    +0.000 C 
ATOM     32  C   UNL     1       5.312  15.256  19.311  0.00  0.00    +0.000 C 
ATOM     33  C   UNL     1       4.005  14.582  19.721  0.00  0.00    +0.000 C 
ENDBRANCH  27  29
ENDBRANCH  11  25
TORSDOF 3
ENDMDL
MODEL 5
REMARK VINA RESULT:      -6.9      5.116      9.180
REMARK  Name = 
REMARK  4 active torsions:
REMARK  status: ('A' for Active; 'I' for Inactive)
REMARK    1  A    between atoms: C_1  and  C_2
REMARK    2  A    between atoms: C_11  and  C_12
REMARK    3  A    between atoms: N_14  and  C_15
REMARK    4  A    between atoms: N_22  and  C_23
REMARK                            x       y       z     vdW  Elec       q    Type
REMARK                         _______ _______ _______ _____ _____    ______ ____
ROOT
ATOM      1  C   UNL     1      -6.697  14.052  20.949  0.00  0.00    +0.000 C 
ATOM      2  C   UNL     1      -6.443  13.429  19.611  0.00  0.00    +0.000 A 
ATOM      3  C   UNL     1      -7.366  13.440  18.630  0.00  0.00    +0.000 A 
ATOM      4  C   UNL     1      -7.101  12.830  17.360  0.00  0.00    +0.000 A 
ATOM      5  C   UNL     1      -5.924  12.234  17.146  0.00  0.00    +0.000 A 
ATOM      6  N   UNL     1      -4.932  12.191  18.119  0.00  0.00    +0.000 N 
ATOM      7  C   UNL     1      -3.741  11.559  17.823  0.00  0.00    +0.000 A 
ATOM      8  O   UNL     1      -3.495  11.023  16.739  0.00  0.00    +0.000 OA
ATOM      9  C   UNL     1      -2.708  11.549  18.895  0.00  0.00    +0.000 A 
ATOM     10  C   UNL     1      -1.450  10.869  18.621  0.00  0.00    +0.000 A 
ATOM     11  C   UNL     1      -0.430  10.858  19.486  0.00  0.00    +0.000 A 
ATOM     12  C   UNL     1      -0.684  11.591  20.782  0.00  0.00    +0.000 A 
ATOM     13  N   UNL     1       0.311  11.690  21.605  0.00  0.00    +0.000 NA
ATOM     14  N   UNL     1      -1.941  12.153  21.080  0.00  0.00    +0.000 N 
ATOM     15  C   UNL     1      -2.974  12.153  20.077  0.00  0.00    +0.000 A 
ATOM     16  N   UNL     1      -4.200  12.755  20.299  0.00  0.00    +0.000 NA
ATOM     17  C   UNL     1      -5.108  12.767  19.369  0.00  0.00    +0.000 A 
ATOM     18  H   UNL     1       1.147  11.173  21.287  0.00  0.00    +0.000 HD
ENDROOT
BRANCH  14  19
ATOM     19  C   UNL     1      -2.225  12.722  22.444  0.00  0.00    +0.000 C 
ATOM     20  C   UNL     1      -1.006  13.315  23.166  0.00  0.00    +0.000 C 
ATOM     21  C   UNL     1      -0.645  14.756  22.820  0.00  0.00    +0.000 C 
ATOM     22  C   UNL     1      -1.834  15.711  22.661  0.00  0.00    +0.000 C 
ATOM     23  C   UNL     1      -3.158  15.131  22.149  0.00  0.00    +0.000 C 
ATOM     24  C   UNL     1      -3.424  13.675  22.516  0.00  0.00    +0.000 C 
ENDBRANCH  14  19
BRANCH  11  25
ATOM     25  C   UNL     1       0.869  10.149  19.268  0.00  0.00    +0.000 C 
ATOM     26  O   UNL     1       1.713  10.635  18.516  0.00  0.00    +0.000 OA
ATOM     27  N   UNL     1       1.046   8.921  19.849  0.00  0.00    +0.000 N 
ATOM     28  H   UNL     1       0.247   8.447  20.247  0.00  0.00    +0.000 HD
BRANCH  27  29
ATOM     29  C   UNL     1       2.193   8.117  19.466  0.00  0.00    +0.000 C 
ATOM     30  C   UNL     1       2.208   6.716  20.081  0.00  0.00    +0.000 C 
ATOM     31  C   UNL     1       3.200   5.956  19.214  0.00  0.00    +0.000 C 
ATOM     32  C   UNL     1       3.099   6.583  17.826  0.00  0.00    +0.000 C 
ATOM     33  C   UNL     1       2.215   7.820  17.972  0.00  0.00    +0.000 C 
ENDBRANCH  27  29
ENDBRANCH  11  25
TORSDOF 3
ENDMDL
MODEL 6
REMARK VINA RESULT:      -6.9      5.398      9.795
REMARK  Name = 
REMARK  4 active torsions:
REMARK  status: ('A' for Active; 'I' for Inactive)
REMARK    1  A    between atoms: C_1  and  C_2
REMARK    2  A    between atoms: C_11  and  C_12
REMARK    3  A    between atoms: N_14  and  C_15
REMARK    4  A    between atoms: N_22  and  C_23
REMARK                            x       y       z     vdW  Elec       q    Type
REMARK                         _______ _______ _______ _____ _____    ______ ____
ROOT
ATOM      1  C   UNL     1      -4.143  16.989  20.917  0.00  0.00    +0.000 C 
ATOM      2  C   UNL     1      -4.449  15.921  21.921  0.00  0.00    +0.000 A 
ATOM      3  C   UNL     1      -5.480  16.023  22.782  0.00  0.00    +0.000 A 
ATOM      4  C   UNL     1      -5.748  14.988  23.739  0.00  0.00    +0.000 A 
ATOM      5  C   UNL     1      -4.960  13.909  23.782  0.00  0.00    +0.000 A 
ATOM      6  N   UNL     1      -3.883  13.747  22.919  0.00  0.00    +0.000 N 
ATOM      7  C   UNL     1      -3.117  12.604  23.024  0.00  0.00    +0.000 A 
ATOM      8  O   UNL     1      -3.327  11.705  23.843  0.00  0.00    +0.000 OA
ATOM      9  C   UNL     1      -1.982  12.473  22.070  0.00  0.00    +0.000 A 
ATOM     10  C   UNL     1      -1.140  11.289  22.172  0.00  0.00    +0.000 A 
ATOM     11  C   UNL     1      -0.137  11.039  21.323  0.00  0.00    +0.000 A 
ATOM     12  C   UNL     1       0.072  12.088  20.255  0.00  0.00    +0.000 A 
ATOM     13  N   UNL     1       0.967  11.836  19.353  0.00  0.00    +0.000 NA
ATOM     14  N   UNL     1      -0.678  13.279  20.232  0.00  0.00    +0.000 N 
ATOM     15  C   UNL     1      -1.764  13.453  21.160  0.00  0.00    +0.000 A 
ATOM     16  N   UNL     1      -2.573  14.575  21.130  0.00  0.00    +0.000 NA
ATOM     17  C   UNL     1      -3.565  14.698  21.960  0.00  0.00    +0.000 A 
ATOM     18  H   UNL     1       1.485  10.960  19.535  0.00  0.00    +0.000 HD
ENDROOT
BRANCH  14  19
ATOM     19  C   UNL     1      -0.334  14.386  19.270  0.00  0.00    +0.000 C 
ATOM     20  C   UNL     1      -0.772  15.789  19.716  0.00  0.00    +0.000 C 
ATOM     21  C   UNL     1       0.175  16.531  20.655  0.00  0.00    +0.000 C 
ATOM     22  C   UNL     1       1.667  16.386  20.332  0.00  0.00    +0.000 C 
ATOM     23  C   UNL     1       2.138  15.082  19.677  0.00  0.00    +0.000 C 
ATOM     24  C   UNL     1       1.118  14.392  18.777  0.00  0.00    +0.000 C 
ENDBRANCH  14  19
BRANCH  11  25
ATOM     25  C   UNL     1       0.775   9.857  21.402  0.00  0.00    +0.000 C 
ATOM     26  O   UNL     1       1.549   9.742  22.352  0.00  0.00    +0.000 OA
ATOM     27  N   UNL     1       0.785   8.971  20.357  0.00  0.00    +0.000 N 
ATOM     28  H   UNL     1       0.328   9.228  19.492  0.00  0.00    +0.000 HD
BRANCH  27  29
ATOM     29  C   UNL     1       1.819   7.953  20.303  0.00  0.00    +0.000 C 
ATOM     30  C   UNL     1       1.343   6.557  20.712  0.00  0.00    +0.000 C 
ATOM     31  C   UNL     1       2.421   5.637  20.160  0.00  0.00    +0.000 C 
ATOM     32  C   UNL     1       2.955   6.331  18.910  0.00  0.00    +0.000 C 
ATOM     33  C   UNL     1       2.330   7.723  18.886  0.00  0.00    +0.000 C 
ENDBRANCH  27  29
ENDBRANCH  11  25
TORSDOF 3
ENDMDL
MODEL 7
REMARK VINA RESULT:      -6.8      3.800      7.994
REMARK  Name = 
REMARK  4 active torsions:
REMARK  status: ('A' for Active; 'I' for Inactive)
REMARK    1  A    between atoms: C_1  and  C_2
REMARK    2  A    between atoms: C_11  and  C_12
REMARK    3  A    between atoms: N_14  and  C_15
REMARK    4  A    between atoms: N_22  and  C_23
REMARK                            x       y       z     vdW  Elec       q    Type
REMARK                         _______ _______ _______ _____ _____    ______ ____
ROOT
ATOM      1  C   UNL     1      -1.655  15.731  21.444  0.00  0.00    +0.000 C 
ATOM      2  C   UNL     1      -1.916  14.486  22.234  0.00  0.00    +0.000 A 
ATOM      3  C   UNL     1      -2.695  14.485  23.333  0.00  0.00    +0.000 A 
ATOM      4  C   UNL     1      -2.923  13.280  24.075  0.00  0.00    +0.000 A 
ATOM      5  C   UNL     1      -2.350  12.140  23.677  0.00  0.00    +0.000 A 
ATOM      6  N   UNL     1      -1.537  12.078  22.551  0.00  0.00    +0.000 N 
ATOM      7  C   UNL     1      -0.982  10.863  22.202  0.00  0.00    +0.000 A 
ATOM      8  O   UNL     1      -1.161   9.816  22.830  0.00  0.00    +0.000 OA
ATOM      9  C   UNL     1      -0.128  10.848  20.983  0.00  0.00    +0.000 A 
ATOM     10  C   UNL     1       0.492   9.586  20.603  0.00  0.00    +0.000 A 
ATOM     11  C   UNL     1       1.221   9.445  19.491  0.00  0.00    +0.000 A 
ATOM     12  C   UNL     1       1.372  10.699  18.662  0.00  0.00    +0.000 A 
ATOM     13  N   UNL     1       1.985  10.581  17.526  0.00  0.00    +0.000 NA
ATOM     14  N   UNL     1       0.858  11.936  19.094  0.00  0.00    +0.000 N 
ATOM     15  C   UNL     1       0.053  11.994  20.286  0.00  0.00    +0.000 A 
ATOM     16  N   UNL     1      -0.530  13.175  20.711  0.00  0.00    +0.000 NA
ATOM     17  C   UNL     1      -1.276  13.197  21.775  0.00  0.00    +0.000 A 
ATOM     18  H   UNL     1       2.367   9.634  17.373  0.00  0.00    +0.000 HD
ENDROOT
BRANCH  14  19
ATOM     19  C   UNL     1       1.171  13.203  18.343  0.00  0.00    +0.000 C 
ATOM     20  C   UNL     1       0.774  14.499  19.066  0.00  0.00    +0.000 C 
ATOM     21  C   UNL     1       1.774  15.046  20.080  0.00  0.00    +0.000 C 
ATOM     22  C   UNL     1       3.247  14.958  19.663  0.00  0.00    +0.000 C 
ATOM     23  C   UNL     1       3.669  13.800  18.752  0.00  0.00    +0.000 C 
ATOM     24  C   UNL     1       2.598  13.296  17.789  0.00  0.00    +0.000 C 
ENDBRANCH  14  19
BRANCH  11  25
ATOM     25  C   UNL     1       1.904   8.182  19.071  0.00  0.00    +0.000 C 
ATOM     26  O   UNL     1       2.178   7.997  17.885  0.00  0.00    +0.000 OA
ATOM     27  N   UNL     1       2.128   7.217  20.018  0.00  0.00    +0.000 N 
ATOM     28  H   UNL     1       1.670   7.296  20.916  0.00  0.00    +0.000 HD
BRANCH  27  29
ATOM     29  C   UNL     1       2.573   5.902  19.595  0.00  0.00    +0.000 C 
ATOM     30  C   UNL     1       4.093   5.753  19.511  0.00  0.00    +0.000 C 
ATOM     31  C   UNL     1       4.306   4.247  19.499  0.00  0.00    +0.000 C 
ATOM     32  C   UNL     1       3.154   3.663  20.312  0.00  0.00    +0.000 C 
ATOM     33  C   UNL     1       2.193   4.815  20.593  0.00  0.00    +0.000 C 
ENDBRANCH  27  29
ENDBRANCH  11  25
TORSDOF 3
ENDMDL
MODEL 8
REMARK VINA RESULT:      -6.7      4.281      8.291
REMARK  Name = 
REMARK  4 active torsions:
REMARK  status: ('A' for Active; 'I' for Inactive)
REMARK    1  A    between atoms: C_1  and  C_2
REMARK    2  A    between atoms: C_11  and  C_12
REMARK    3  A    between atoms: N_14  and  C_15
REMARK    4  A    between atoms: N_22  and  C_23
REMARK                            x       y       z     vdW  Elec       q    Type
REMARK                         _______ _______ _______ _____ _____    ______ ____
ROOT
ATOM      1  C   UNL     1      -4.998  14.281  20.632  0.00  0.00    +0.000 C 
ATOM      2  C   UNL     1      -5.224  13.187  19.635  0.00  0.00    +0.000 A 
ATOM      3  C   UNL     1      -6.436  12.949  19.096  0.00  0.00    +0.000 A 
ATOM      4  C   UNL     1      -6.627  11.890  18.148  0.00  0.00    +0.000 A 
ATOM      5  C   UNL     1      -5.591  11.121  17.798  0.00  0.00    +0.000 A 
ATOM      6  N   UNL     1      -4.318  11.319  18.320  0.00  0.00    +0.000 N 
ATOM      7  C   UNL     1      -3.297  10.485  17.908  0.00  0.00    +0.000 A 
ATOM      8  O   UNL     1      -3.442   9.565  17.098  0.00  0.00    +0.000 OA
ATOM      9  C   UNL     1      -1.952  10.744  18.487  0.00  0.00    +0.000 A 
ATOM     10  C   UNL     1      -0.860   9.866  18.091  0.00  0.00    +0.000 A 
ATOM     11  C   UNL     1       0.401  10.050  18.498  0.00  0.00    +0.000 A 
ATOM     12  C   UNL     1       0.610  11.231  19.417  0.00  0.00    +0.000 A 
ATOM     13  N   UNL     1       1.831  11.504  19.753  0.00  0.00    +0.000 NA
ATOM     14  N   UNL     1      -0.470  12.009  19.878  0.00  0.00    +0.000 N 
ATOM     15  C   UNL     1      -1.792  11.766  19.362  0.00  0.00    +0.000 A 
ATOM     16  N   UNL     1      -2.870  12.548  19.733  0.00  0.00    +0.000 NA
ATOM     17  C   UNL     1      -4.050  12.328  19.233  0.00  0.00    +0.000 A 
ATOM     18  H   UNL     1       2.509  10.811  19.397  0.00  0.00    +0.000 HD
ENDROOT
BRANCH  14  19
ATOM     19  C   UNL     1      -0.262  13.066  20.930  0.00  0.00    +0.000 C 
ATOM     20  C   UNL     1       1.178  13.588  21.047  0.00  0.00    +0.000 C 
ATOM     21  C   UNL     1       1.579  14.699  20.082  0.00  0.00    +0.000 C 
ATOM     22  C   UNL     1       0.515  15.776  19.842  0.00  0.00    +0.000 C 
ATOM     23  C   UNL     1      -0.959  15.362  19.929  0.00  0.00    +0.000 C 
ATOM     24  C   UNL     1      -1.266  14.224  20.896  0.00  0.00    +0.000 C 
ENDBRANCH  14  19
BRANCH  11  25
ATOM     25  C   UNL     1       1.552   9.161  18.146  0.00  0.00    +0.000 C 
ATOM     26  O   UNL     1       2.307   9.471  17.225  0.00  0.00    +0.000 OA
ATOM     27  N   UNL     1       1.680   7.969  18.810  0.00  0.00    +0.000 N 
ATOM     28  H   UNL     1       0.910   7.638  19.376  0.00  0.00    +0.000 HD
BRANCH  27  29
ATOM     29  C   UNL     1       2.642   6.994  18.331  0.00  0.00    +0.000 C 
ATOM     30  C   UNL     1       3.600   6.479  19.407  0.00  0.00    +0.000 C 
ATOM     31  C   UNL     1       4.168   5.205  18.800  0.00  0.00    +0.000 C 
ATOM     32  C   UNL     1       3.065   4.647  17.905  0.00  0.00    +0.000 C 
ATOM     33  C   UNL     1       1.973   5.713  17.848  0.00  0.00    +0.000 C 
ENDBRANCH  27  29
ENDBRANCH  11  25
TORSDOF 3
ENDMDL
MODEL 9
REMARK VINA RESULT:      -6.7      4.502      8.240
REMARK  Name = 
REMARK  4 active torsions:
REMARK  status: ('A' for Active; 'I' for Inactive)
REMARK    1  A    between atoms: C_1  and  C_2
REMARK    2  A    between atoms: C_11  and  C_12
REMARK    3  A    between atoms: N_14  and  C_15
REMARK    4  A    between atoms: N_22  and  C_23
REMARK                            x       y       z     vdW  Elec       q    Type
REMARK                         _______ _______ _______ _____ _____    ______ ____
ROOT
ATOM      1  C   UNL     1      -5.685  14.234  20.355  0.00  0.00    +0.000 C 
ATOM      2  C   UNL     1      -5.715  13.310  19.177  0.00  0.00    +0.000 A 
ATOM      3  C   UNL     1      -6.802  13.188  18.391  0.00  0.00    +0.000 A 
ATOM      4  C   UNL     1      -6.807  12.291  17.272  0.00  0.00    +0.000 A 
ATOM      5  C   UNL     1      -5.721  11.558  17.008  0.00  0.00    +0.000 A 
ATOM      6  N   UNL     1      -4.570  11.642  17.782  0.00  0.00    +0.000 N 
ATOM      7  C   UNL     1      -3.487  10.854  17.446  0.00  0.00    +0.000 A 
ATOM      8  O   UNL     1      -3.473  10.072  16.491  0.00  0.00    +0.000 OA
ATOM      9  C   UNL     1      -2.275  10.988  18.299  0.00  0.00    +0.000 A 
ATOM     10  C   UNL     1      -1.125  10.152  17.984  0.00  0.00    +0.000 A 
ATOM     11  C   UNL     1       0.036  10.240  18.643  0.00  0.00    +0.000 A 
ATOM     12  C   UNL     1       0.062  11.262  19.755  0.00  0.00    +0.000 A 
ATOM     13  N   UNL     1       1.197  11.450  20.352  0.00  0.00    +0.000 NA
ATOM     14  N   UNL     1      -1.087  11.988  20.121  0.00  0.00    +0.000 N 
ATOM     15  C   UNL     1      -2.287  11.860  19.335  0.00  0.00    +0.000 A 
ATOM     16  N   UNL     1      -3.420  12.604  19.614  0.00  0.00    +0.000 NA
ATOM     17  C   UNL     1      -4.483  12.493  18.874  0.00  0.00    +0.000 A 
ATOM     18  H   UNL     1       1.933  10.801  20.027  0.00  0.00    +0.000 HD
ENDROOT
BRANCH  14  19
ATOM     19  C   UNL     1      -1.086  12.867  21.343  0.00  0.00    +0.000 C 
ATOM     20  C   UNL     1      -2.418  13.576  21.632  0.00  0.00    +0.000 C 
ATOM     21  C   UNL     1      -3.459  12.775  22.409  0.00  0.00    +0.000 C 
ATOM     22  C   UNL     1      -2.909  11.927  23.562  0.00  0.00    +0.000 C 
ATOM     23  C   UNL     1      -1.487  11.369  23.429  0.00  0.00    +0.000 C 
ATOM     24  C   UNL     1      -0.520  12.219  22.611  0.00  0.00    +0.000 C 
ENDBRANCH  14  19
BRANCH  11  25
ATOM     25  C   UNL     1       1.235   9.386  18.380  0.00  0.00    +0.000 C 
ATOM     26  O   UNL     1       1.935   9.600  17.391  0.00  0.00    +0.000 OA
ATOM     27  N   UNL     1       1.471   8.321  19.210  0.00  0.00    +0.000 N 
ATOM     28  H   UNL     1       0.745   8.030  19.852  0.00  0.00    +0.000 HD
BRANCH  27  29
ATOM     29  C   UNL     1       2.484   7.350  18.842  0.00  0.00    +0.000 C 
ATOM     30  C   UNL     1       2.892   6.410  19.979  0.00  0.00    +0.000 C 
ATOM     31  C   UNL     1       3.580   5.259  19.262  0.00  0.00    +0.000 C 
ATOM     32  C   UNL     1       2.902   5.159  17.898  0.00  0.00    +0.000 C 
ATOM     33  C   UNL     1       1.992   6.379  17.776  0.00  0.00    +0.000 C 
ENDBRANCH  27  29
ENDBRANCH  11  25
TORSDOF 3
ENDMDL
