MODEL 1
REMARK VINA RESULT:      -8.1      0.000      0.000
REMARK  Name = 
REMARK  4 active torsions:
REMARK  status: ('A' for Active; 'I' for Inactive)
REMARK    1  A    between atoms: C_2  and  C_10
REMARK    2  A    between atoms: N_3  and  N_4
REMARK    3  A    between atoms: C_14  and  S_15
REMARK    4  A    between atoms: S_15  and  N_18
REMARK                            x       y       z     vdW  Elec       q    Type
REMARK                         _______ _______ _______ _____ _____    ______ ____
ROOT
ATOM      1  C   UNL     1       6.744   5.341  17.566  0.00  0.00    +0.000 A 
ATOM      2  C   UNL     1       6.866   5.549  16.185  0.00  0.00    +0.000 A 
ATOM      3  C   UNL     1       5.973   4.930  15.307  0.00  0.00    +0.000 A 
ATOM      4  C   UNL     1       4.934   4.143  15.808  0.00  0.00    +0.000 A 
ATOM      5  C   UNL     1       4.823   3.948  17.188  0.00  0.00    +0.000 A 
ATOM      6  C   UNL     1       5.755   4.498  18.071  0.00  0.00    +0.000 A 
ENDROOT
BRANCH   1   8
ATOM      7  O   UNL     1       7.861   5.610  19.633  0.00  0.00    +0.000 OA
ATOM      8  C   UNL     1       7.596   6.076  18.532  0.00  0.00    +0.000 C 
ATOM      9  N   UNL     1       7.991   7.335  18.116  0.00  0.00    +0.000 N 
ATOM     10  H   UNL     1       7.677   7.806  17.272  0.00  0.00    +0.000 HD
BRANCH   9  11
ATOM     11  N   UNL     1       8.626   8.149  19.060  0.00  0.00    +0.000 N 
ATOM     12  C   UNL     1       8.745   9.464  18.684  0.00  0.00    +0.000 C 
ATOM     13  N   UNL     1       7.947  10.080  17.861  0.00  0.00    +0.000 NA
ATOM     14  C   UNL     1       8.486  11.451  17.726  0.00  0.00    +0.000 C 
ATOM     15  C   UNL     1       9.404  11.667  18.913  0.00  0.00    +0.000 C 
ATOM     16  C   UNL     1       9.891  10.275  19.223  0.00  0.00    +0.000 C 
ATOM     17  H   UNL     1       9.435   7.696  19.494  0.00  0.00    +0.000 HD
ENDBRANCH   9  11
ENDBRANCH   1   8
BRANCH   5  18
ATOM     18  S   UNL     1       3.403   3.092  17.832  0.00  0.00    +0.000 S 
ATOM     19  O   UNL     1       2.255   3.512  17.062  0.00  0.00    +0.000 OA
ATOM     20  O   UNL     1       3.746   1.696  17.981  0.00  0.00    +0.000 OA
BRANCH  18  21
ATOM     21  N   UNL     1       3.254   3.744  19.409  0.00  0.00    +0.000 NA
ATOM     22  C   UNL     1       2.977   2.795  20.515  0.00  0.00    +0.000 C 
ATOM     23  C   UNL     1       1.484   2.897  20.759  0.00  0.00    +0.000 C 
ATOM     24  C   UNL     1       1.182   4.360  20.510  0.00  0.00    +0.000 C 
ATOM     25  C   UNL     1       2.229   4.830  19.504  0.00  0.00    +0.000 C 
ENDBRANCH  18  21
ENDBRANCH   5  18
TORSDOF 4
ENDMDL
MODEL 2
REMARK VINA RESULT:      -7.9      1.004      1.107
REMARK  Name = 
REMARK  4 active torsions:
REMARK  status: ('A' for Active; 'I' for Inactive)
REMARK    1  A    between atoms: C_2  and  C_10
REMARK    2  A    between atoms: N_3  and  N_4
REMARK    3  A    between atoms: C_14  and  S_15
REMARK    4  A    between atoms: S_15  and  N_18
REMARK                            x       y       z     vdW  Elec       q    Type
REMARK                         _______ _______ _______ _____ _____    ______ ____
ROOT
ATOM      1  C   UNL     1       6.765   5.924  17.835  0.00  0.00    +0.000 A 
ATOM      2  C   UNL     1       6.330   6.361  16.575  0.00  0.00    +0.000 A 
ATOM      3  C   UNL     1       5.259   5.721  15.948  0.00  0.00    +0.000 A 
ATOM      4  C   UNL     1       4.594   4.677  16.595  0.00  0.00    +0.000 A 
ATOM      5  C   UNL     1       5.036   4.254  17.852  0.00  0.00    +0.000 A 
ATOM      6  C   UNL     1       6.154   4.835  18.456  0.00  0.00    +0.000 A 
ENDROOT
BRANCH   1   8
ATOM      7  O   UNL     1       8.388   6.151  19.540  0.00  0.00    +0.000 OA
ATOM      8  C   UNL     1       7.816   6.656  18.581  0.00  0.00    +0.000 C 
ATOM      9  N   UNL     1       8.034   7.954  18.155  0.00  0.00    +0.000 N 
ATOM     10  H   UNL     1       7.485   8.449  17.457  0.00  0.00    +0.000 HD
BRANCH   9  11
ATOM     11  N   UNL     1       8.868   8.754  18.944  0.00  0.00    +0.000 N 
ATOM     12  C   UNL     1       8.944  10.063  18.539  0.00  0.00    +0.000 C 
ATOM     13  N   UNL     1       8.012  10.698  17.889  0.00  0.00    +0.000 NA
ATOM     14  C   UNL     1       8.549  12.053  17.635  0.00  0.00    +0.000 C 
ATOM     15  C   UNL     1       9.694  12.247  18.609  0.00  0.00    +0.000 C 
ATOM     16  C   UNL     1      10.196  10.844  18.828  0.00  0.00    +0.000 C 
ATOM     17  H   UNL     1       9.735   8.279  19.210  0.00  0.00    +0.000 HD
ENDBRANCH   9  11
ENDBRANCH   1   8
BRANCH   5  18
ATOM     18  S   UNL     1       4.085   3.047  18.747  0.00  0.00    +0.000 S 
ATOM     19  O   UNL     1       3.595   2.082  17.788  0.00  0.00    +0.000 OA
ATOM     20  O   UNL     1       4.845   2.642  19.907  0.00  0.00    +0.000 OA
BRANCH  18  21
ATOM     21  N   UNL     1       2.751   3.961  19.311  0.00  0.00    +0.000 NA
ATOM     22  C   UNL     1       2.556   4.043  20.780  0.00  0.00    +0.000 C 
ATOM     23  C   UNL     1       1.482   3.020  21.094  0.00  0.00    +0.000 C 
ATOM     24  C   UNL     1       0.564   3.088  19.892  0.00  0.00    +0.000 C 
ATOM     25  C   UNL     1       1.446   3.525  18.726  0.00  0.00    +0.000 C 
ENDBRANCH  18  21
ENDBRANCH   5  18
TORSDOF 4
ENDMDL
MODEL 3
REMARK VINA RESULT:      -7.8      0.863      1.015
REMARK  Name = 
REMARK  4 active torsions:
REMARK  status: ('A' for Active; 'I' for Inactive)
REMARK    1  A    between atoms: C_2  and  C_10
REMARK    2  A    between atoms: N_3  and  N_4
REMARK    3  A    between atoms: C_14  and  S_15
REMARK    4  A    between atoms: S_15  and  N_18
REMARK                            x       y       z     vdW  Elec       q    Type
REMARK                         _______ _______ _______ _____ _____    ______ ____
ROOT
ATOM      1  C   UNL     1       6.763   5.831  17.566  0.00  0.00    +0.000 A 
ATOM      2  C   UNL     1       7.029   5.679  16.198  0.00  0.00    +0.000 A 
ATOM      3  C   UNL     1       6.063   5.117  15.359  0.00  0.00    +0.000 A 
ATOM      4  C   UNL     1       4.819   4.750  15.876  0.00  0.00    +0.000 A 
ATOM      5  C   UNL     1       4.567   4.911  17.242  0.00  0.00    +0.000 A 
ATOM      6  C   UNL     1       5.552   5.400  18.104  0.00  0.00    +0.000 A 
ENDROOT
BRANCH   1   8
ATOM      7  O   UNL     1       8.127   6.012  19.490  0.00  0.00    +0.000 OA
ATOM      8  C   UNL     1       7.716   6.533  18.460  0.00  0.00    +0.000 C 
ATOM      9  N   UNL     1       8.029   7.824  18.075  0.00  0.00    +0.000 N 
ATOM     10  H   UNL     1       7.601   8.334  17.307  0.00  0.00    +0.000 HD
BRANCH   9  11
ATOM     11  N   UNL     1       8.762   8.600  18.980  0.00  0.00    +0.000 N 
ATOM     12  C   UNL     1       8.891   9.918  18.619  0.00  0.00    +0.000 C 
ATOM     13  N   UNL     1       8.049  10.574  17.874  0.00  0.00    +0.000 NA
ATOM     14  C   UNL     1       8.618  11.931  17.722  0.00  0.00    +0.000 C 
ATOM     15  C   UNL     1       9.634  12.095  18.835  0.00  0.00    +0.000 C 
ATOM     16  C   UNL     1      10.101  10.684  19.080  0.00  0.00    +0.000 C 
ATOM     17  H   UNL     1       9.588   8.114  19.340  0.00  0.00    +0.000 HD
ENDBRANCH   9  11
ENDBRANCH   1   8
BRANCH   5  18
ATOM     18  S   UNL     1       2.929   4.606  17.865  0.00  0.00    +0.000 S 
ATOM     19  O   UNL     1       2.281   5.888  18.030  0.00  0.00    +0.000 OA
ATOM     20  O   UNL     1       2.333   3.553  17.074  0.00  0.00    +0.000 OA
BRANCH  18  21
ATOM     21  N   UNL     1       3.232   3.958  19.421  0.00  0.00    +0.000 NA
ATOM     22  C   UNL     1       2.969   2.511  19.618  0.00  0.00    +0.000 C 
ATOM     23  C   UNL     1       1.611   2.444  20.288  0.00  0.00    +0.000 C 
ATOM     24  C   UNL     1       1.598   3.662  21.188  0.00  0.00    +0.000 C 
ATOM     25  C   UNL     1       2.510   4.682  20.513  0.00  0.00    +0.000 C 
ENDBRANCH  18  21
ENDBRANCH   5  18
TORSDOF 4
ENDMDL
MODEL 4
REMARK VINA RESULT:      -7.6      3.424      6.020
REMARK  Name = 
REMARK  4 active torsions:
REMARK  status: ('A' for Active; 'I' for Inactive)
REMARK    1  A    between atoms: C_2  and  C_10
REMARK    2  A    between atoms: N_3  and  N_4
REMARK    3  A    between atoms: C_14  and  S_15
REMARK    4  A    between atoms: S_15  and  N_18
REMARK                            x       y       z     vdW  Elec       q    Type
REMARK                         _______ _______ _______ _____ _____    ______ ____
ROOT
ATOM      1  C   UNL     1       2.820   4.549  18.950  0.00  0.00    +0.000 A 
ATOM      2  C   UNL     1       2.904   3.153  18.859  0.00  0.00    +0.000 A 
ATOM      3  C   UNL     1       3.673   2.566  17.851  0.00  0.00    +0.000 A 
ATOM      4  C   UNL     1       4.393   3.370  16.964  0.00  0.00    +0.000 A 
ATOM      5  C   UNL     1       4.302   4.761  17.070  0.00  0.00    +0.000 A 
ATOM      6  C   UNL     1       3.476   5.360  18.024  0.00  0.00    +0.000 A 
ENDROOT
BRANCH   1   8
ATOM      7  O   UNL     1       1.301   4.595  20.762  0.00  0.00    +0.000 OA
ATOM      8  C   UNL     1       2.113   5.204  20.077  0.00  0.00    +0.000 C 
ATOM      9  N   UNL     1       2.390   6.551  20.231  0.00  0.00    +0.000 N 
ATOM     10  H   UNL     1       2.949   7.118  19.598  0.00  0.00    +0.000 HD
BRANCH   9  11
ATOM     11  N   UNL     1       1.607   7.263  21.146  0.00  0.00    +0.000 N 
ATOM     12  C   UNL     1       1.305   8.544  20.755  0.00  0.00    +0.000 C 
ATOM     13  N   UNL     1       1.231   8.950  19.521  0.00  0.00    +0.000 NA
ATOM     14  C   UNL     1       0.925  10.395  19.590  0.00  0.00    +0.000 C 
ATOM     15  C   UNL     1       0.389  10.653  20.984  0.00  0.00    +0.000 C 
ATOM     16  C   UNL     1       1.065   9.589  21.809  0.00  0.00    +0.000 C 
ATOM     17  H   UNL     1       1.893   7.109  22.116  0.00  0.00    +0.000 HD
ENDBRANCH   9  11
ENDBRANCH   1   8
BRANCH   5  18
ATOM     18  S   UNL     1       5.351   5.779  16.056  0.00  0.00    +0.000 S 
ATOM     19  O   UNL     1       5.365   5.204  14.730  0.00  0.00    +0.000 OA
ATOM     20  O   UNL     1       4.992   7.161  16.279  0.00  0.00    +0.000 OA
BRANCH  18  21
ATOM     21  N   UNL     1       6.896   5.541  16.755  0.00  0.00    +0.000 NA
ATOM     22  C   UNL     1       6.978   4.651  17.939  0.00  0.00    +0.000 C 
ATOM     23  C   UNL     1       7.018   5.584  19.134  0.00  0.00    +0.000 C 
ATOM     24  C   UNL     1       7.819   6.767  18.633  0.00  0.00    +0.000 C 
ATOM     25  C   UNL     1       7.580   6.819  17.127  0.00  0.00    +0.000 C 
ENDBRANCH  18  21
ENDBRANCH   5  18
TORSDOF 4
ENDMDL
MODEL 5
REMARK VINA RESULT:      -7.6      4.064      5.783
REMARK  Name = 
REMARK  4 active torsions:
REMARK  status: ('A' for Active; 'I' for Inactive)
REMARK    1  A    between atoms: C_2  and  C_10
REMARK    2  A    between atoms: N_3  and  N_4
REMARK    3  A    between atoms: C_14  and  S_15
REMARK    4  A    between atoms: S_15  and  N_18
REMARK                            x       y       z     vdW  Elec       q    Type
REMARK                         _______ _______ _______ _____ _____    ______ ____
ROOT
ATOM      1  C   UNL     1       3.035   7.588  17.863  0.00  0.00    +0.000 A 
ATOM      2  C   UNL     1       4.193   7.695  17.080  0.00  0.00    +0.000 A 
ATOM      3  C   UNL     1       4.912   6.547  16.740  0.00  0.00    +0.000 A 
ATOM      4  C   UNL     1       4.453   5.291  17.143  0.00  0.00    +0.000 A 
ATOM      5  C   UNL     1       3.295   5.199  17.920  0.00  0.00    +0.000 A 
ATOM      6  C   UNL     1       2.610   6.345  18.331  0.00  0.00    +0.000 A 
ENDROOT
BRANCH   1   8
ATOM      7  O   UNL     1       2.085   9.688  17.335  0.00  0.00    +0.000 OA
ATOM      8  C   UNL     1       2.182   8.768  18.139  0.00  0.00    +0.000 C 
ATOM      9  N   UNL     1       1.582   8.773  19.385  0.00  0.00    +0.000 N 
ATOM     10  H   UNL     1       1.750   8.097  20.126  0.00  0.00    +0.000 HD
BRANCH   9  11
ATOM     11  N   UNL     1       0.930   9.947  19.777  0.00  0.00    +0.000 N 
ATOM     12  C   UNL     1       0.417   9.912  21.049  0.00  0.00    +0.000 C 
ATOM     13  N   UNL     1       0.880   9.179  22.021  0.00  0.00    +0.000 NA
ATOM     14  C   UNL     1      -0.006   9.436  23.177  0.00  0.00    +0.000 C 
ATOM     15  C   UNL     1      -0.733  10.732  22.878  0.00  0.00    +0.000 C 
ATOM     16  C   UNL     1      -0.789  10.750  21.372  0.00  0.00    +0.000 C 
ATOM     17  H   UNL     1       0.350  10.345  19.033  0.00  0.00    +0.000 HD
ENDBRANCH   9  11
ENDBRANCH   1   8
BRANCH   5  18
ATOM     18  S   UNL     1       2.618   3.595  18.284  0.00  0.00    +0.000 S 
ATOM     19  O   UNL     1       1.812   3.196  17.152  0.00  0.00    +0.000 OA
ATOM     20  O   UNL     1       3.683   2.758  18.787  0.00  0.00    +0.000 OA
BRANCH  18  21
ATOM     21  N   UNL     1       1.567   3.918  19.597  0.00  0.00    +0.000 NA
ATOM     22  C   UNL     1       2.136   4.643  20.761  0.00  0.00    +0.000 C 
ATOM     23  C   UNL     1       2.443   3.567  21.785  0.00  0.00    +0.000 C 
ATOM     24  C   UNL     1       1.322   2.567  21.596  0.00  0.00    +0.000 C 
ATOM     25  C   UNL     1       0.900   2.693  20.136  0.00  0.00    +0.000 C 
ENDBRANCH  18  21
ENDBRANCH   5  18
TORSDOF 4
ENDMDL
MODEL 6
REMARK VINA RESULT:      -7.6      3.845      6.082
REMARK  Name = 
REMARK  4 active torsions:
REMARK  status: ('A' for Active; 'I' for Inactive)
REMARK    1  A    between atoms: C_2  and  C_10
REMARK    2  A    between atoms: N_3  and  N_4
REMARK    3  A    between atoms: C_14  and  S_15
REMARK    4  A    between atoms: S_15  and  N_18
REMARK                            x       y       z     vdW  Elec       q    Type
REMARK                         _______ _______ _______ _____ _____    ______ ____
ROOT
ATOM      1  C   UNL     1       5.545   5.367  15.905  0.00  0.00    +0.000 A 
ATOM      2  C   UNL     1       5.196   6.694  16.194  0.00  0.00    +0.000 A 
ATOM      3  C   UNL     1       4.374   6.974  17.289  0.00  0.00    +0.000 A 
ATOM      4  C   UNL     1       3.938   5.938  18.118  0.00  0.00    +0.000 A 
ATOM      5  C   UNL     1       4.297   4.621  17.819  0.00  0.00    +0.000 A 
ATOM      6  C   UNL     1       5.055   4.320  16.684  0.00  0.00    +0.000 A 
ENDROOT
BRANCH   1   8
ATOM      7  O   UNL     1       7.664   5.460  14.858  0.00  0.00    +0.000 OA
ATOM      8  C   UNL     1       6.512   5.044  14.828  0.00  0.00    +0.000 C 
ATOM      9  N   UNL     1       5.987   4.315  13.776  0.00  0.00    +0.000 N 
ATOM     10  H   UNL     1       5.007   4.074  13.653  0.00  0.00    +0.000 HD
BRANCH   9  11
ATOM     11  N   UNL     1       6.794   4.153  12.645  0.00  0.00    +0.000 N 
ATOM     12  C   UNL     1       6.596   2.972  11.974  0.00  0.00    +0.000 C 
ATOM     13  N   UNL     1       5.485   2.294  11.969  0.00  0.00    +0.000 NA
ATOM     14  C   UNL     1       5.753   1.088  11.156  0.00  0.00    +0.000 C 
ATOM     15  C   UNL     1       6.989   1.393  10.334  0.00  0.00    +0.000 C 
ATOM     16  C   UNL     1       7.737   2.376  11.197  0.00  0.00    +0.000 C 
ATOM     17  H   UNL     1       7.757   4.466  12.798  0.00  0.00    +0.000 HD
ENDBRANCH   9  11
ENDBRANCH   1   8
BRANCH   5  18
ATOM     18  S   UNL     1       3.888   3.327  18.969  0.00  0.00    +0.000 S 
ATOM     19  O   UNL     1       3.306   2.241  18.213  0.00  0.00    +0.000 OA
ATOM     20  O   UNL     1       5.024   3.120  19.839  0.00  0.00    +0.000 OA
BRANCH  18  21
ATOM     21  N   UNL     1       2.652   4.040  19.915  0.00  0.00    +0.000 NA
ATOM     22  C   UNL     1       2.597   3.674  21.352  0.00  0.00    +0.000 C 
ATOM     23  C   UNL     1       1.516   2.615  21.449  0.00  0.00    +0.000 C 
ATOM     24  C   UNL     1       0.494   3.056  20.422  0.00  0.00    +0.000 C 
ATOM     25  C   UNL     1       1.280   3.818  19.360  0.00  0.00    +0.000 C 
ENDBRANCH  18  21
ENDBRANCH   5  18
TORSDOF 4
ENDMDL
MODEL 7
REMARK VINA RESULT:      -7.5      4.073      6.842
REMARK  Name = 
REMARK  4 active torsions:
REMARK  status: ('A' for Active; 'I' for Inactive)
REMARK    1  A    between atoms: C_2  and  C_10
REMARK    2  A    between atoms: N_3  and  N_4
REMARK    3  A    between atoms: C_14  and  S_15
REMARK    4  A    between atoms: S_15  and  N_18
REMARK                            x       y       z     vdW  Elec       q    Type
REMARK                         _______ _______ _______ _____ _____    ______ ____
ROOT
ATOM      1  C   UNL     1       3.384   6.720  18.362  0.00  0.00    +0.000 A 
ATOM      2  C   UNL     1       3.208   5.675  19.280  0.00  0.00    +0.000 A 
ATOM      3  C   UNL     1       4.122   4.618  19.313  0.00  0.00    +0.000 A 
ATOM      4  C   UNL     1       5.231   4.626  18.465  0.00  0.00    +0.000 A 
ATOM      5  C   UNL     1       5.395   5.678  17.558  0.00  0.00    +0.000 A 
ATOM      6  C   UNL     1       4.448   6.700  17.462  0.00  0.00    +0.000 A 
ENDROOT
BRANCH   1   8
ATOM      7  O   UNL     1       2.429   8.666  17.417  0.00  0.00    +0.000 OA
ATOM      8  C   UNL     1       2.505   7.914  18.381  0.00  0.00    +0.000 C 
ATOM      9  N   UNL     1       1.856   8.138  19.582  0.00  0.00    +0.000 N 
ATOM     10  H   UNL     1       2.003   7.616  20.442  0.00  0.00    +0.000 HD
BRANCH   9  11
ATOM     11  N   UNL     1       1.174   9.352  19.722  0.00  0.00    +0.000 N 
ATOM     12  C   UNL     1       0.628   9.552  20.966  0.00  0.00    +0.000 C 
ATOM     13  N   UNL     1       1.077   9.032  22.071  0.00  0.00    +0.000 NA
ATOM     14  C   UNL     1       0.156   9.488  23.134  0.00  0.00    +0.000 C 
ATOM     15  C   UNL     1      -0.586  10.685  22.573  0.00  0.00    +0.000 C 
ATOM     16  C   UNL     1      -0.601  10.411  21.091  0.00  0.00    +0.000 C 
ATOM     17  H   UNL     1       0.608   9.585  18.902  0.00  0.00    +0.000 HD
ENDBRANCH   9  11
ENDBRANCH   1   8
BRANCH   5  18
ATOM     18  S   UNL     1       6.893   5.776  16.604  0.00  0.00    +0.000 S 
ATOM     19  O   UNL     1       7.462   7.087  16.822  0.00  0.00    +0.000 OA
ATOM     20  O   UNL     1       7.656   4.571  16.836  0.00  0.00    +0.000 OA
BRANCH  18  21
ATOM     21  N   UNL     1       6.318   5.707  14.992  0.00  0.00    +0.000 NA
ATOM     22  C   UNL     1       5.146   4.837  14.724  0.00  0.00    +0.000 C 
ATOM     23  C   UNL     1       5.725   3.557  14.155  0.00  0.00    +0.000 C 
ATOM     24  C   UNL     1       6.906   4.035  13.336  0.00  0.00    +0.000 C 
ATOM     25  C   UNL     1       7.374   5.325  14.004  0.00  0.00    +0.000 C 
ENDBRANCH  18  21
ENDBRANCH   5  18
TORSDOF 4
ENDMDL
MODEL 8
REMARK VINA RESULT:      -7.5      4.013      5.698
REMARK  Name = 
REMARK  4 active torsions:
REMARK  status: ('A' for Active; 'I' for Inactive)
REMARK    1  A    between atoms: C_2  and  C_10
REMARK    2  A    between atoms: N_3  and  N_4
REMARK    3  A    between atoms: C_14  and  S_15
REMARK    4  A    between atoms: S_15  and  N_18
REMARK                            x       y       z     vdW  Elec       q    Type
REMARK                         _______ _______ _______ _____ _____    ______ ____
ROOT
ATOM      1  C   UNL     1       2.992   7.243  17.937  0.00  0.00    +0.000 A 
ATOM      2  C   UNL     1       4.298   7.349  17.437  0.00  0.00    +0.000 A 
ATOM      3  C   UNL     1       5.017   6.194  17.117  0.00  0.00    +0.000 A 
ATOM      4  C   UNL     1       4.419   4.940  17.254  0.00  0.00    +0.000 A 
ATOM      5  C   UNL     1       3.115   4.850  17.750  0.00  0.00    +0.000 A 
ATOM      6  C   UNL     1       2.414   5.992  18.145  0.00  0.00    +0.000 A 
ENDROOT
BRANCH   1   8
ATOM      7  O   UNL     1       1.984   9.283  17.293  0.00  0.00    +0.000 OA
ATOM      8  C   UNL     1       2.159   8.447  18.171  0.00  0.00    +0.000 C 
ATOM      9  N   UNL     1       1.674   8.576  19.460  0.00  0.00    +0.000 N 
ATOM     10  H   UNL     1       1.913   7.976  20.246  0.00  0.00    +0.000 HD
BRANCH   9  11
ATOM     11  N   UNL     1       1.052   9.785  19.790  0.00  0.00    +0.000 N 
ATOM     12  C   UNL     1       0.500   9.811  21.047  0.00  0.00    +0.000 C 
ATOM     13  N   UNL     1       0.907   9.097  22.057  0.00  0.00    +0.000 NA
ATOM     14  C   UNL     1      -0.004   9.424  23.175  0.00  0.00    +0.000 C 
ATOM     15  C   UNL     1      -0.677  10.732  22.809  0.00  0.00    +0.000 C 
ATOM     16  C   UNL     1      -0.686  10.700  21.303  0.00  0.00    +0.000 C 
ATOM     17  H   UNL     1       0.508  10.175  19.016  0.00  0.00    +0.000 HD
ENDBRANCH   9  11
ENDBRANCH   1   8
BRANCH   5  18
ATOM     18  S   UNL     1       2.295   3.272  17.758  0.00  0.00    +0.000 S 
ATOM     19  O   UNL     1       0.879   3.516  17.602  0.00  0.00    +0.000 OA
ATOM     20  O   UNL     1       3.014   2.384  16.872  0.00  0.00    +0.000 OA
BRANCH  18  21
ATOM     21  N   UNL     1       2.566   2.715  19.355  0.00  0.00    +0.000 NA
ATOM     22  C   UNL     1       1.371   2.398  20.177  0.00  0.00    +0.000 C 
ATOM     23  C   UNL     1       1.163   3.614  21.058  0.00  0.00    +0.000 C 
ATOM     24  C   UNL     1       2.572   4.078  21.362  0.00  0.00    +0.000 C 
ATOM     25  C   UNL     1       3.415   3.640  20.168  0.00  0.00    +0.000 C 
ENDBRANCH  18  21
ENDBRANCH   5  18
TORSDOF 4
ENDMDL
MODEL 9
REMARK VINA RESULT:      -7.5      3.396      6.300
REMARK  Name = 
REMARK  4 active torsions:
REMARK  status: ('A' for Active; 'I' for Inactive)
REMARK    1  A    between atoms: C_2  and  C_10
REMARK    2  A    between atoms: N_3  and  N_4
REMARK    3  A    between atoms: C_14  and  S_15
REMARK    4  A    between atoms: S_15  and  N_18
REMARK                            x       y       z     vdW  Elec       q    Type
REMARK                         _______ _______ _______ _____ _____    ______ ____
ROOT
ATOM      1  C   UNL     1       2.363   4.439  18.899  0.00  0.00    +0.000 A 
ATOM      2  C   UNL     1       1.938   3.189  18.427  0.00  0.00    +0.000 A 
ATOM      3  C   UNL     1       2.593   2.595  17.345  0.00  0.00    +0.000 A 
ATOM      4  C   UNL     1       3.697   3.225  16.765  0.00  0.00    +0.000 A 
ATOM      5  C   UNL     1       4.111   4.469  17.250  0.00  0.00    +0.000 A 
ATOM      6  C   UNL     1       3.417   5.109  18.280  0.00  0.00    +0.000 A 
ENDROOT
BRANCH   1   8
ATOM      7  O   UNL     1       1.003   4.409  20.834  0.00  0.00    +0.000 OA
ATOM      8  C   UNL     1       1.771   5.041  20.118  0.00  0.00    +0.000 C 
ATOM      9  N   UNL     1       2.095   6.369  20.326  0.00  0.00    +0.000 N 
ATOM     10  H   UNL     1       2.615   6.960  19.682  0.00  0.00    +0.000 HD
BRANCH   9  11
ATOM     11  N   UNL     1       1.411   7.042  21.344  0.00  0.00    +0.000 N 
ATOM     12  C   UNL     1       1.174   8.369  21.084  0.00  0.00    +0.000 C 
ATOM     13  N   UNL     1       1.060   8.888  19.896  0.00  0.00    +0.000 NA
ATOM     14  C   UNL     1       0.855  10.338  20.108  0.00  0.00    +0.000 C 
ATOM     15  C   UNL     1       0.412  10.500  21.548  0.00  0.00    +0.000 C 
ATOM     16  C   UNL     1       1.060   9.328  22.237  0.00  0.00    +0.000 C 
ATOM     17  H   UNL     1       1.738   6.784  22.279  0.00  0.00    +0.000 HD
ENDBRANCH   9  11
ENDBRANCH   1   8
BRANCH   5  18
ATOM     18  S   UNL     1       5.616   5.186  16.629  0.00  0.00    +0.000 S 
ATOM     19  O   UNL     1       6.633   4.159  16.664  0.00  0.00    +0.000 OA
ATOM     20  O   UNL     1       5.306   5.905  15.414  0.00  0.00    +0.000 OA
BRANCH  18  21
ATOM     21  N   UNL     1       5.997   6.354  17.822  0.00  0.00    +0.000 NA
ATOM     22  C   UNL     1       6.424   7.695  17.351  0.00  0.00    +0.000 C 
ATOM     23  C   UNL     1       7.937   7.684  17.443  0.00  0.00    +0.000 C 
ATOM     24  C   UNL     1       8.211   6.852  18.678  0.00  0.00    +0.000 C 
ATOM     25  C   UNL     1       7.034   5.888  18.795  0.00  0.00    +0.000 C 
ENDBRANCH  18  21
ENDBRANCH   5  18
TORSDOF 4
ENDMDL
