MODEL 1
REMARK VINA RESULT:      -8.9      0.000      0.000
REMARK  Name = 
REMARK  5 active torsions:
REMARK  status: ('A' for Active; 'I' for Inactive)
REMARK    1  A    between atoms: C_1  and  O_2
REMARK    2  A    between atoms: O_2  and  C_3
REMARK    3  A    between atoms: C_11  and  S_12
REMARK    4  A    between atoms: S_12  and  N_15
REMARK    5  A    between atoms: N_18  and  C_19
REMARK                            x       y       z     vdW  Elec       q    Type
REMARK                         _______ _______ _______ _____ _____    ______ ____
ROOT
ATOM      1  S   UNL     1       3.206   5.446  18.809  0.00  0.00    +0.000 S 
ATOM      2  O   UNL     1       3.372   4.756  20.069  0.00  0.00    +0.000 OA
ATOM      3  O   UNL     1       2.545   4.809  17.691  0.00  0.00    +0.000 OA
ENDROOT
BRANCH   1  12
ATOM      4  C   UNL     1      -0.388  11.242  18.894  0.00  0.00    +0.000 C 
ATOM      5  O   UNL     1      -0.773  10.682  17.872  0.00  0.00    +0.000 OA
ATOM      6  N   UNL     1       0.341  10.628  19.912  0.00  0.00    +0.000 N 
ATOM      7  C   UNL     1       0.395  11.163  21.271  0.00  0.00    +0.000 C 
ATOM      8  C   UNL     1       0.051  10.085  22.289  0.00  0.00    +0.000 C 
ATOM      9  C   UNL     1       1.011   8.903  22.174  0.00  0.00    +0.000 C 
ATOM     10  C   UNL     1       1.316   8.524  20.746  0.00  0.00    +0.000 A 
ATOM     11  C   UNL     1       1.956   7.293  20.473  0.00  0.00    +0.000 A 
ATOM     12  C   UNL     1       2.299   6.941  19.157  0.00  0.00    +0.000 A 
ATOM     13  C   UNL     1       2.092   7.848  18.126  0.00  0.00    +0.000 A 
ATOM     14  C   UNL     1       1.448   9.052  18.386  0.00  0.00    +0.000 A 
ATOM     15  C   UNL     1       1.019   9.392  19.677  0.00  0.00    +0.000 A 
BRANCH   4  17
ATOM     16  C   UNL     1       0.255  13.430  18.412  0.00  0.00    +0.000 C 
ATOM     17  O   UNL     1      -0.632  12.565  19.130  0.00  0.00    +0.000 OA
ENDBRANCH   4  17
ENDBRANCH   1  12
BRANCH   1  18
ATOM     18  N   UNL     1       4.730   5.925  18.283  0.00  0.00    +0.000 NA
ATOM     19  C   UNL     1       5.844   4.951  18.262  0.00  0.00    +0.000 C 
ATOM     20  C   UNL     1       5.983   4.283  16.889  0.00  0.00    +0.000 C 
ATOM     21  N   UNL     1       6.091   5.288  15.816  0.00  0.00    +0.000 N 
ATOM     22  C   UNL     1       5.079   6.371  15.824  0.00  0.00    +0.000 C 
ATOM     23  C   UNL     1       4.887   6.965  17.233  0.00  0.00    +0.000 C 
BRANCH  21  24
ATOM     24  C   UNL     1       6.499   4.845  14.551  0.00  0.00    +0.000 A 
ATOM     25  C   UNL     1       7.564   5.415  13.835  0.00  0.00    +0.000 A 
ATOM     26  C   UNL     1       7.855   5.026  12.523  0.00  0.00    +0.000 A 
ATOM     27  C   UNL     1       7.086   4.051  11.897  0.00  0.00    +0.000 A 
ATOM     28  C   UNL     1       6.047   3.447  12.594  0.00  0.00    +0.000 A 
ATOM     29  C   UNL     1       5.767   3.836  13.907  0.00  0.00    +0.000 A 
ENDBRANCH  21  24
ENDBRANCH   1  18
TORSDOF 4
ENDMDL
MODEL 2
REMARK VINA RESULT:      -8.9      1.322      2.439
REMARK  Name = 
REMARK  5 active torsions:
REMARK  status: ('A' for Active; 'I' for Inactive)
REMARK    1  A    between atoms: C_1  and  O_2
REMARK    2  A    between atoms: O_2  and  C_3
REMARK    3  A    between atoms: C_11  and  S_12
REMARK    4  A    between atoms: S_12  and  N_15
REMARK    5  A    between atoms: N_18  and  C_19
REMARK                            x       y       z     vdW  Elec       q    Type
REMARK                         _______ _______ _______ _____ _____    ______ ____
ROOT
ATOM      1  S   UNL     1       3.060   5.077  18.854  0.00  0.00    +0.000 S 
ATOM      2  O   UNL     1       3.099   4.224  20.021  0.00  0.00    +0.000 OA
ATOM      3  O   UNL     1       2.324   4.689  17.670  0.00  0.00    +0.000 OA
ENDROOT
BRANCH   1  12
ATOM      4  C   UNL     1       0.427  10.520  22.010  0.00  0.00    +0.000 C 
ATOM      5  O   UNL     1       1.037   9.938  22.904  0.00  0.00    +0.000 OA
ATOM      6  N   UNL     1       0.574  10.263  20.648  0.00  0.00    +0.000 N 
ATOM      7  C   UNL     1       0.199  11.232  19.621  0.00  0.00    +0.000 C 
ATOM      8  C   UNL     1       1.344  11.449  18.641  0.00  0.00    +0.000 C 
ATOM      9  C   UNL     1       1.742  10.135  17.972  0.00  0.00    +0.000 C 
ATOM     10  C   UNL     1       1.778   8.969  18.929  0.00  0.00    +0.000 A 
ATOM     11  C   UNL     1       2.391   7.759  18.532  0.00  0.00    +0.000 A 
ATOM     12  C   UNL     1       2.391   6.643  19.384  0.00  0.00    +0.000 A 
ATOM     13  C   UNL     1       1.703   6.697  20.589  0.00  0.00    +0.000 A 
ATOM     14  C   UNL     1       1.114   7.890  20.993  0.00  0.00    +0.000 A 
ATOM     15  C   UNL     1       1.172   9.044  20.198  0.00  0.00    +0.000 A 
BRANCH   4  17
ATOM     16  C   UNL     1      -1.496  11.071  23.205  0.00  0.00    +0.000 C 
ATOM     17  O   UNL     1      -0.492  11.494  22.277  0.00  0.00    +0.000 OA
ENDBRANCH   4  17
ENDBRANCH   1  12
BRANCH   1  18
ATOM     18  N   UNL     1       4.647   5.373  18.382  0.00  0.00    +0.000 NA
ATOM     19  C   UNL     1       5.575   4.242  18.163  0.00  0.00    +0.000 C 
ATOM     20  C   UNL     1       5.604   3.815  16.691  0.00  0.00    +0.000 C 
ATOM     21  N   UNL     1       5.892   4.960  15.809  0.00  0.00    +0.000 N 
ATOM     22  C   UNL     1       5.083   6.182  16.032  0.00  0.00    +0.000 C 
ATOM     23  C   UNL     1       4.988   6.540  17.529  0.00  0.00    +0.000 C 
BRANCH  21  24
ATOM     24  C   UNL     1       6.224   4.686  14.476  0.00  0.00    +0.000 A 
ATOM     25  C   UNL     1       5.539   3.753  13.681  0.00  0.00    +0.000 A 
ATOM     26  C   UNL     1       5.984   3.418  12.397  0.00  0.00    +0.000 A 
ATOM     27  C   UNL     1       7.127   4.014  11.877  0.00  0.00    +0.000 A 
ATOM     28  C   UNL     1       7.806   4.965  12.629  0.00  0.00    +0.000 A 
ATOM     29  C   UNL     1       7.352   5.299  13.909  0.00  0.00    +0.000 A 
ENDBRANCH  21  24
ENDBRANCH   1  18
TORSDOF 4
ENDMDL
MODEL 3
REMARK VINA RESULT:      -8.5      2.718      4.060
REMARK  Name = 
REMARK  5 active torsions:
REMARK  status: ('A' for Active; 'I' for Inactive)
REMARK    1  A    between atoms: C_1  and  O_2
REMARK    2  A    between atoms: O_2  and  C_3
REMARK    3  A    between atoms: C_11  and  S_12
REMARK    4  A    between atoms: S_12  and  N_15
REMARK    5  A    between atoms: N_18  and  C_19
REMARK                            x       y       z     vdW  Elec       q    Type
REMARK                         _______ _______ _______ _____ _____    ______ ____
ROOT
ATOM      1  S   UNL     1       2.232   3.316  18.651  0.00  0.00    +0.000 S 
ATOM      2  O   UNL     1       1.839   2.505  19.782  0.00  0.00    +0.000 OA
ATOM      3  O   UNL     1       1.581   3.171  17.366  0.00  0.00    +0.000 OA
ENDROOT
BRANCH   1  12
ATOM      4  C   UNL     1       1.348   9.358  21.691  0.00  0.00    +0.000 C 
ATOM      5  O   UNL     1       1.882   8.675  22.560  0.00  0.00    +0.000 OA
ATOM      6  N   UNL     1       1.290   9.021  20.338  0.00  0.00    +0.000 N 
ATOM      7  C   UNL     1       1.063  10.015  19.292  0.00  0.00    +0.000 C 
ATOM      8  C   UNL     1       2.121   9.902  18.203  0.00  0.00    +0.000 C 
ATOM      9  C   UNL     1       2.116   8.507  17.583  0.00  0.00    +0.000 C 
ATOM     10  C   UNL     1       1.960   7.405  18.602  0.00  0.00    +0.000 A 
ATOM     11  C   UNL     1       2.214   6.067  18.227  0.00  0.00    +0.000 A 
ATOM     12  C   UNL     1       2.025   5.018  19.142  0.00  0.00    +0.000 A 
ATOM     13  C   UNL     1       1.496   5.287  20.398  0.00  0.00    +0.000 A 
ATOM     14  C   UNL     1       1.261   6.603  20.778  0.00  0.00    +0.000 A 
ATOM     15  C   UNL     1       1.521   7.676  19.913  0.00  0.00    +0.000 A 
BRANCH   4  17
ATOM     16  C   UNL     1      -0.431  10.373  22.802  0.00  0.00    +0.000 C 
ATOM     17  O   UNL     1       0.728  10.540  21.978  0.00  0.00    +0.000 OA
ENDBRANCH   4  17
ENDBRANCH   1  12
BRANCH   1  18
ATOM     18  N   UNL     1       3.880   3.089  18.406  0.00  0.00    +0.000 NA
ATOM     19  C   UNL     1       4.478   3.380  17.084  0.00  0.00    +0.000 C 
ATOM     20  C   UNL     1       5.037   4.805  17.020  0.00  0.00    +0.000 C 
ATOM     21  N   UNL     1       5.972   5.062  18.130  0.00  0.00    +0.000 N 
ATOM     22  C   UNL     1       5.499   4.696  19.486  0.00  0.00    +0.000 C 
ATOM     23  C   UNL     1       4.854   3.296  19.509  0.00  0.00    +0.000 C 
BRANCH  21  24
ATOM     24  C   UNL     1       6.771   6.210  18.054  0.00  0.00    +0.000 A 
ATOM     25  C   UNL     1       7.908   6.419  18.851  0.00  0.00    +0.000 A 
ATOM     26  C   UNL     1       8.602   7.634  18.831  0.00  0.00    +0.000 A 
ATOM     27  C   UNL     1       8.174   8.670  18.008  0.00  0.00    +0.000 A 
ATOM     28  C   UNL     1       7.071   8.479  17.185  0.00  0.00    +0.000 A 
ATOM     29  C   UNL     1       6.387   7.259  17.204  0.00  0.00    +0.000 A 
ENDBRANCH  21  24
ENDBRANCH   1  18
TORSDOF 4
ENDMDL
MODEL 4
REMARK VINA RESULT:      -8.4      3.055      9.234
REMARK  Name = 
REMARK  5 active torsions:
REMARK  status: ('A' for Active; 'I' for Inactive)
REMARK    1  A    between atoms: C_1  and  O_2
REMARK    2  A    between atoms: O_2  and  C_3
REMARK    3  A    between atoms: C_11  and  S_12
REMARK    4  A    between atoms: S_12  and  N_15
REMARK    5  A    between atoms: N_18  and  C_19
REMARK                            x       y       z     vdW  Elec       q    Type
REMARK                         _______ _______ _______ _____ _____    ______ ____
ROOT
ATOM      1  S   UNL     1       0.820   8.982  21.402  0.00  0.00    +0.000 S 
ATOM      2  O   UNL     1      -0.506   8.514  21.741  0.00  0.00    +0.000 OA
ATOM      3  O   UNL     1       1.757   9.378  22.431  0.00  0.00    +0.000 OA
ENDROOT
BRANCH   1  12
ATOM      4  C   UNL     1       4.385   4.939  17.223  0.00  0.00    +0.000 C 
ATOM      5  O   UNL     1       5.090   5.939  17.324  0.00  0.00    +0.000 OA
ATOM      6  N   UNL     1       3.310   4.635  18.058  0.00  0.00    +0.000 N 
ATOM      7  C   UNL     1       2.790   3.277  18.204  0.00  0.00    +0.000 C 
ATOM      8  C   UNL     1       2.694   2.892  19.674  0.00  0.00    +0.000 C 
ATOM      9  C   UNL     1       1.791   3.863  20.432  0.00  0.00    +0.000 C 
ATOM     10  C   UNL     1       2.009   5.304  20.042  0.00  0.00    +0.000 A 
ATOM     11  C   UNL     1       1.459   6.333  20.839  0.00  0.00    +0.000 A 
ATOM     12  C   UNL     1       1.602   7.680  20.468  0.00  0.00    +0.000 A 
ATOM     13  C   UNL     1       2.209   8.001  19.261  0.00  0.00    +0.000 A 
ATOM     14  C   UNL     1       2.766   6.994  18.481  0.00  0.00    +0.000 A 
ATOM     15  C   UNL     1       2.711   5.648  18.870  0.00  0.00    +0.000 A 
BRANCH   4  17
ATOM     16  C   UNL     1       5.954   3.912  15.839  0.00  0.00    +0.000 C 
ATOM     17  O   UNL     1       4.583   4.010  16.242  0.00  0.00    +0.000 OA
ENDBRANCH   4  17
ENDBRANCH   1  12
BRANCH   1  18
ATOM     18  N   UNL     1       0.650  10.285  20.352  0.00  0.00    +0.000 NA
ATOM     19  C   UNL     1       0.259  10.051  18.943  0.00  0.00    +0.000 C 
ATOM     20  C   UNL     1      -1.257  10.169  18.752  0.00  0.00    +0.000 C 
ATOM     21  N   UNL     1      -1.762  11.453  19.272  0.00  0.00    +0.000 N 
ATOM     22  C   UNL     1      -1.329  11.823  20.640  0.00  0.00    +0.000 C 
ATOM     23  C   UNL     1       0.184  11.608  20.841  0.00  0.00    +0.000 C 
BRANCH  21  24
ATOM     24  C   UNL     1      -3.067  11.826  18.924  0.00  0.00    +0.000 A 
ATOM     25  C   UNL     1      -3.945  12.483  19.800  0.00  0.00    +0.000 A 
ATOM     26  C   UNL     1      -5.280  12.723  19.454  0.00  0.00    +0.000 A 
ATOM     27  C   UNL     1      -5.765  12.312  18.217  0.00  0.00    +0.000 A 
ATOM     28  C   UNL     1      -4.908  11.689  17.318  0.00  0.00    +0.000 A 
ATOM     29  C   UNL     1      -3.574  11.459  17.668  0.00  0.00    +0.000 A 
ENDBRANCH  21  24
ENDBRANCH   1  18
TORSDOF 4
ENDMDL
MODEL 5
REMARK VINA RESULT:      -8.1      3.344      9.650
REMARK  Name = 
REMARK  5 active torsions:
REMARK  status: ('A' for Active; 'I' for Inactive)
REMARK    1  A    between atoms: C_1  and  O_2
REMARK    2  A    between atoms: O_2  and  C_3
REMARK    3  A    between atoms: C_11  and  S_12
REMARK    4  A    between atoms: S_12  and  N_15
REMARK    5  A    between atoms: N_18  and  C_19
REMARK                            x       y       z     vdW  Elec       q    Type
REMARK                         _______ _______ _______ _____ _____    ______ ____
ROOT
ATOM      1  S   UNL     1       0.538  10.307  20.152  0.00  0.00    +0.000 S 
ATOM      2  O   UNL     1      -0.457   9.740  21.036  0.00  0.00    +0.000 OA
ATOM      3  O   UNL     1       1.478  11.300  20.626  0.00  0.00    +0.000 OA
ENDROOT
BRANCH   1  12
ATOM      4  C   UNL     1       4.642   5.935  16.904  0.00  0.00    +0.000 C 
ATOM      5  O   UNL     1       5.187   7.022  16.730  0.00  0.00    +0.000 OA
ATOM      6  N   UNL     1       3.635   5.689  17.836  0.00  0.00    +0.000 N 
ATOM      7  C   UNL     1       3.330   4.347  18.327  0.00  0.00    +0.000 C 
ATOM      8  C   UNL     1       3.307   4.322  19.849  0.00  0.00    +0.000 C 
ATOM      9  C   UNL     1       2.273   5.305  20.393  0.00  0.00    +0.000 C 
ATOM     10  C   UNL     1       2.264   6.623  19.659  0.00  0.00    +0.000 A 
ATOM     11  C   UNL     1       1.570   7.724  20.212  0.00  0.00    +0.000 A 
ATOM     12  C   UNL     1       1.501   8.946  19.523  0.00  0.00    +0.000 A 
ATOM     13  C   UNL     1       2.041   9.048  18.247  0.00  0.00    +0.000 A 
ATOM     14  C   UNL     1       2.739   7.974  17.706  0.00  0.00    +0.000 A 
ATOM     15  C   UNL     1       2.894   6.770  18.408  0.00  0.00    +0.000 A 
BRANCH   4  17
ATOM     16  C   UNL     1       6.384   4.598  16.121  0.00  0.00    +0.000 C 
ATOM     17  O   UNL     1       4.972   4.834  16.166  0.00  0.00    +0.000 OA
ENDBRANCH   4  17
ENDBRANCH   1  12
BRANCH   1  18
ATOM     18  N   UNL     1      -0.268  10.970  18.833  0.00  0.00    +0.000 NA
ATOM     19  C   UNL     1      -1.158  10.121  18.008  0.00  0.00    +0.000 C 
ATOM     20  C   UNL     1      -2.615  10.210  18.477  0.00  0.00    +0.000 C 
ATOM     21  N   UNL     1      -3.070  11.610  18.541  0.00  0.00    +0.000 N 
ATOM     22  C   UNL     1      -2.183  12.559  19.255  0.00  0.00    +0.000 C 
ATOM     23  C   UNL     1      -0.708  12.389  18.838  0.00  0.00    +0.000 C 
BRANCH  21  24
ATOM     24  C   UNL     1      -4.445  11.840  18.682  0.00  0.00    +0.000 A 
ATOM     25  C   UNL     1      -4.993  12.703  19.644  0.00  0.00    +0.000 A 
ATOM     26  C   UNL     1      -6.377  12.804  19.833  0.00  0.00    +0.000 A 
ATOM     27  C   UNL     1      -7.245  12.044  19.057  0.00  0.00    +0.000 A 
ATOM     28  C   UNL     1      -6.730  11.206  18.075  0.00  0.00    +0.000 A 
ATOM     29  C   UNL     1      -5.347  11.115  17.888  0.00  0.00    +0.000 A 
ENDBRANCH  21  24
ENDBRANCH   1  18
TORSDOF 4
ENDMDL
MODEL 6
REMARK VINA RESULT:      -8.1      3.298      9.539
REMARK  Name = 
REMARK  5 active torsions:
REMARK  status: ('A' for Active; 'I' for Inactive)
REMARK    1  A    between atoms: C_1  and  O_2
REMARK    2  A    between atoms: O_2  and  C_3
REMARK    3  A    between atoms: C_11  and  S_12
REMARK    4  A    between atoms: S_12  and  N_15
REMARK    5  A    between atoms: N_18  and  C_19
REMARK                            x       y       z     vdW  Elec       q    Type
REMARK                         _______ _______ _______ _____ _____    ______ ____
ROOT
ATOM      1  S   UNL     1       0.510  10.021  20.006  0.00  0.00    +0.000 S 
ATOM      2  O   UNL     1      -0.557   9.389  20.751  0.00  0.00    +0.000 OA
ATOM      3  O   UNL     1       1.357  11.022  20.619  0.00  0.00    +0.000 OA
ENDROOT
BRANCH   1  12
ATOM      4  C   UNL     1       5.058   5.897  17.037  0.00  0.00    +0.000 C 
ATOM      5  O   UNL     1       5.562   7.011  16.918  0.00  0.00    +0.000 OA
ATOM      6  N   UNL     1       3.995   5.590  17.887  0.00  0.00    +0.000 N 
ATOM      7  C   UNL     1       3.719   4.228  18.337  0.00  0.00    +0.000 C 
ATOM      8  C   UNL     1       3.581   4.180  19.852  0.00  0.00    +0.000 C 
ATOM      9  C   UNL     1       2.462   5.104  20.326  0.00  0.00    +0.000 C 
ATOM     10  C   UNL     1       2.445   6.431  19.608  0.00  0.00    +0.000 A 
ATOM     11  C   UNL     1       1.658   7.489  20.117  0.00  0.00    +0.000 A 
ATOM     12  C   UNL     1       1.584   8.717  19.438  0.00  0.00    +0.000 A 
ATOM     13  C   UNL     1       2.214   8.863  18.209  0.00  0.00    +0.000 A 
ATOM     14  C   UNL     1       3.003   7.831  17.712  0.00  0.00    +0.000 A 
ATOM     15  C   UNL     1       3.162   6.626  18.411  0.00  0.00    +0.000 A 
BRANCH   4  17
ATOM     16  C   UNL     1       5.481   5.061  14.904  0.00  0.00    +0.000 C 
ATOM     17  O   UNL     1       5.497   4.824  16.316  0.00  0.00    +0.000 OA
ENDBRANCH   4  17
ENDBRANCH   1  12
BRANCH   1  18
ATOM     18  N   UNL     1      -0.167  10.713  18.630  0.00  0.00    +0.000 NA
ATOM     19  C   UNL     1      -1.039   9.904  17.749  0.00  0.00    +0.000 C 
ATOM     20  C   UNL     1      -2.518  10.070  18.114  0.00  0.00    +0.000 C 
ATOM     21  N   UNL     1      -2.905  11.492  18.140  0.00  0.00    +0.000 N 
ATOM     22  C   UNL     1      -2.023  12.400  18.910  0.00  0.00    +0.000 C 
ATOM     23  C   UNL     1      -0.534  12.153  18.598  0.00  0.00    +0.000 C 
BRANCH  21  24
ATOM     24  C   UNL     1      -4.273  11.791  18.182  0.00  0.00    +0.000 A 
ATOM     25  C   UNL     1      -5.082  11.889  17.038  0.00  0.00    +0.000 A 
ATOM     26  C   UNL     1      -6.413  12.316  17.118  0.00  0.00    +0.000 A 
ATOM     27  C   UNL     1      -6.967  12.651  18.348  0.00  0.00    +0.000 A 
ATOM     28  C   UNL     1      -6.198  12.531  19.500  0.00  0.00    +0.000 A 
ATOM     29  C   UNL     1      -4.871  12.098  19.414  0.00  0.00    +0.000 A 
ENDBRANCH  21  24
ENDBRANCH   1  18
TORSDOF 4
ENDMDL
MODEL 7
REMARK VINA RESULT:      -8.1      3.020      9.226
REMARK  Name = 
REMARK  5 active torsions:
REMARK  status: ('A' for Active; 'I' for Inactive)
REMARK    1  A    between atoms: C_1  and  O_2
REMARK    2  A    between atoms: O_2  and  C_3
REMARK    3  A    between atoms: C_11  and  S_12
REMARK    4  A    between atoms: S_12  and  N_15
REMARK    5  A    between atoms: N_18  and  C_19
REMARK                            x       y       z     vdW  Elec       q    Type
REMARK                         _______ _______ _______ _____ _____    ______ ____
ROOT
ATOM      1  S   UNL     1       0.846   8.864  21.254  0.00  0.00    +0.000 S 
ATOM      2  O   UNL     1      -0.493   8.464  21.631  0.00  0.00    +0.000 OA
ATOM      3  O   UNL     1       1.832   9.207  22.255  0.00  0.00    +0.000 OA
ENDROOT
BRANCH   1  12
ATOM      4  C   UNL     1       2.601   3.041  18.165  0.00  0.00    +0.000 C 
ATOM      5  O   UNL     1       1.406   2.889  18.406  0.00  0.00    +0.000 OA
ATOM      6  N   UNL     1       3.274   4.261  18.221  0.00  0.00    +0.000 N 
ATOM      7  C   UNL     1       4.535   4.494  17.519  0.00  0.00    +0.000 C 
ATOM      8  C   UNL     1       4.458   5.762  16.681  0.00  0.00    +0.000 C 
ATOM      9  C   UNL     1       4.136   6.972  17.554  0.00  0.00    +0.000 C 
ATOM     10  C   UNL     1       3.080   6.690  18.593  0.00  0.00    +0.000 A 
ATOM     11  C   UNL     1       2.477   7.765  19.286  0.00  0.00    +0.000 A 
ATOM     12  C   UNL     1       1.531   7.525  20.296  0.00  0.00    +0.000 A 
ATOM     13  C   UNL     1       1.251   6.221  20.682  0.00  0.00    +0.000 A 
ATOM     14  C   UNL     1       1.828   5.160  19.993  0.00  0.00    +0.000 A 
ATOM     15  C   UNL     1       2.712   5.371  18.925  0.00  0.00    +0.000 A 
BRANCH   4  17
ATOM     16  C   UNL     1       3.919   1.293  18.963  0.00  0.00    +0.000 C 
ATOM     17  O   UNL     1       3.409   1.995  17.824  0.00  0.00    +0.000 OA
ENDBRANCH   4  17
ENDBRANCH   1  12
BRANCH   1  18
ATOM     18  N   UNL     1       0.713  10.176  20.211  0.00  0.00    +0.000 NA
ATOM     19  C   UNL     1       0.456   9.952  18.771  0.00  0.00    +0.000 C 
ATOM     20  C   UNL     1      -1.042  10.014  18.450  0.00  0.00    +0.000 C 
ATOM     21  N   UNL     1      -1.642  11.267  18.942  0.00  0.00    +0.000 N 
ATOM     22  C   UNL     1      -1.345  11.630  20.348  0.00  0.00    +0.000 C 
ATOM     23  C   UNL     1       0.153  11.471  20.676  0.00  0.00    +0.000 C 
BRANCH  21  24
ATOM     24  C   UNL     1      -2.926  11.594  18.487  0.00  0.00    +0.000 A 
ATOM     25  C   UNL     1      -3.921  12.152  19.306  0.00  0.00    +0.000 A 
ATOM     26  C   UNL     1      -5.227  12.345  18.843  0.00  0.00    +0.000 A 
ATOM     27  C   UNL     1      -5.567  11.985  17.543  0.00  0.00    +0.000 A 
ATOM     28  C   UNL     1      -4.594  11.462  16.701  0.00  0.00    +0.000 A 
ATOM     29  C   UNL     1      -3.289  11.279  17.169  0.00  0.00    +0.000 A 
ENDBRANCH  21  24
ENDBRANCH   1  18
TORSDOF 4
ENDMDL
MODEL 8
REMARK VINA RESULT:      -8.0      2.758     10.306
REMARK  Name = 
REMARK  5 active torsions:
REMARK  status: ('A' for Active; 'I' for Inactive)
REMARK    1  A    between atoms: C_1  and  O_2
REMARK    2  A    between atoms: O_2  and  C_3
REMARK    3  A    between atoms: C_11  and  S_12
REMARK    4  A    between atoms: S_12  and  N_15
REMARK    5  A    between atoms: N_18  and  C_19
REMARK                            x       y       z     vdW  Elec       q    Type
REMARK                         _______ _______ _______ _____ _____    ______ ____
ROOT
ATOM      1  S   UNL     1       0.847  10.043  19.146  0.00  0.00    +0.000 S 
ATOM      2  O   UNL     1       1.383  11.004  18.207  0.00  0.00    +0.000 OA
ATOM      3  O   UNL     1      -0.545   9.652  19.101  0.00  0.00    +0.000 OA
ENDROOT
BRANCH   1  12
ATOM      4  C   UNL     1       3.837   3.918  19.399  0.00  0.00    +0.000 C 
ATOM      5  O   UNL     1       2.712   3.706  19.842  0.00  0.00    +0.000 OA
ATOM      6  N   UNL     1       4.218   5.070  18.711  0.00  0.00    +0.000 N 
ATOM      7  C   UNL     1       5.383   5.109  17.831  0.00  0.00    +0.000 C 
ATOM      8  C   UNL     1       5.010   5.675  16.468  0.00  0.00    +0.000 C 
ATOM      9  C   UNL     1       4.433   7.082  16.603  0.00  0.00    +0.000 C 
ATOM     10  C   UNL     1       3.482   7.224  17.766  0.00  0.00    +0.000 A 
ATOM     11  C   UNL     1       2.660   8.370  17.859  0.00  0.00    +0.000 A 
ATOM     12  C   UNL     1       1.806   8.552  18.959  0.00  0.00    +0.000 A 
ATOM     13  C   UNL     1       1.834   7.644  20.009  0.00  0.00    +0.000 A 
ATOM     14  C   UNL     1       2.628   6.506  19.915  0.00  0.00    +0.000 A 
ATOM     15  C   UNL     1       3.427   6.259  18.790  0.00  0.00    +0.000 A 
BRANCH   4  17
ATOM     16  C   UNL     1       4.526   1.955  20.450  0.00  0.00    +0.000 C 
ATOM     17  O   UNL     1       4.858   3.025  19.558  0.00  0.00    +0.000 OA
ENDBRANCH   4  17
ENDBRANCH   1  12
BRANCH   1  18
ATOM     18  N   UNL     1       1.157  10.616  20.697  0.00  0.00    +0.000 NA
ATOM     19  C   UNL     1       1.300  12.070  20.932  0.00  0.00    +0.000 C 
ATOM     20  C   UNL     1      -0.028  12.705  21.359  0.00  0.00    +0.000 C 
ATOM     21  N   UNL     1      -0.609  12.001  22.516  0.00  0.00    +0.000 N 
ATOM     22  C   UNL     1      -0.690  10.524  22.414  0.00  0.00    +0.000 C 
ATOM     23  C   UNL     1       0.626   9.913  21.894  0.00  0.00    +0.000 C 
BRANCH  21  24
ATOM     24  C   UNL     1      -1.668  12.623  23.190  0.00  0.00    +0.000 A 
ATOM     25  C   UNL     1      -2.887  11.987  23.476  0.00  0.00    +0.000 A 
ATOM     26  C   UNL     1      -3.962  12.685  24.038  0.00  0.00    +0.000 A 
ATOM     27  C   UNL     1      -3.839  14.039  24.330  0.00  0.00    +0.000 A 
ATOM     28  C   UNL     1      -2.633  14.685  24.087  0.00  0.00    +0.000 A 
ATOM     29  C   UNL     1      -1.561  13.980  23.533  0.00  0.00    +0.000 A 
ENDBRANCH  21  24
ENDBRANCH   1  18
TORSDOF 4
ENDMDL
MODEL 9
REMARK VINA RESULT:      -8.0      3.071      9.719
REMARK  Name = 
REMARK  5 active torsions:
REMARK  status: ('A' for Active; 'I' for Inactive)
REMARK    1  A    between atoms: C_1  and  O_2
REMARK    2  A    between atoms: O_2  and  C_3
REMARK    3  A    between atoms: C_11  and  S_12
REMARK    4  A    between atoms: S_12  and  N_15
REMARK    5  A    between atoms: N_18  and  C_19
REMARK                            x       y       z     vdW  Elec       q    Type
REMARK                         _______ _______ _______ _____ _____    ______ ____
ROOT
ATOM      1  S   UNL     1       0.825   8.930  21.335  0.00  0.00    +0.000 S 
ATOM      2  O   UNL     1      -0.525   8.479  21.595  0.00  0.00    +0.000 OA
ATOM      3  O   UNL     1       1.715   9.287  22.418  0.00  0.00    +0.000 OA
ENDROOT
BRANCH   1  12
ATOM      4  C   UNL     1       4.438   4.913  17.172  0.00  0.00    +0.000 C 
ATOM      5  O   UNL     1       5.110   5.938  17.234  0.00  0.00    +0.000 OA
ATOM      6  N   UNL     1       3.392   4.592  18.037  0.00  0.00    +0.000 N 
ATOM      7  C   UNL     1       2.922   3.221  18.225  0.00  0.00    +0.000 C 
ATOM      8  C   UNL     1       2.870   2.868  19.705  0.00  0.00    +0.000 C 
ATOM      9  C   UNL     1       1.951   3.825  20.460  0.00  0.00    +0.000 C 
ATOM     10  C   UNL     1       2.110   5.263  20.033  0.00  0.00    +0.000 A 
ATOM     11  C   UNL     1       1.543   6.291  20.819  0.00  0.00    +0.000 A 
ATOM     12  C   UNL     1       1.631   7.633  20.414  0.00  0.00    +0.000 A 
ATOM     13  C   UNL     1       2.201   7.946  19.186  0.00  0.00    +0.000 A 
ATOM     14  C   UNL     1       2.776   6.940  18.417  0.00  0.00    +0.000 A 
ATOM     15  C   UNL     1       2.775   5.603  18.838  0.00  0.00    +0.000 A 
BRANCH   4  17
ATOM     16  C   UNL     1       5.504   4.428  15.157  0.00  0.00    +0.000 C 
ATOM     17  O   UNL     1       4.647   3.968  16.208  0.00  0.00    +0.000 OA
ENDBRANCH   4  17
ENDBRANCH   1  12
BRANCH   1  18
ATOM     18  N   UNL     1       0.731  10.257  20.305  0.00  0.00    +0.000 NA
ATOM     19  C   UNL     1      -0.287  10.288  19.232  0.00  0.00    +0.000 C 
ATOM     20  C   UNL     1      -1.561  11.012  19.685  0.00  0.00    +0.000 C 
ATOM     21  N   UNL     1      -1.253  12.354  20.211  0.00  0.00    +0.000 N 
ATOM     22  C   UNL     1      -0.164  12.434  21.214  0.00  0.00    +0.000 C 
ATOM     23  C   UNL     1       1.073  11.622  20.782  0.00  0.00    +0.000 C 
BRANCH  21  24
ATOM     24  C   UNL     1      -2.323  13.237  20.403  0.00  0.00    +0.000 A 
ATOM     25  C   UNL     1      -2.171  14.548  20.882  0.00  0.00    +0.000 A 
ATOM     26  C   UNL     1      -3.278  15.352  21.179  0.00  0.00    +0.000 A 
ATOM     27  C   UNL     1      -4.566  14.860  20.999  0.00  0.00    +0.000 A 
ATOM     28  C   UNL     1      -4.745  13.577  20.496  0.00  0.00    +0.000 A 
ATOM     29  C   UNL     1      -3.634  12.783  20.194  0.00  0.00    +0.000 A 
ENDBRANCH  21  24
ENDBRANCH   1  18
TORSDOF 4
ENDMDL
