MODEL 1
REMARK VINA RESULT:      -7.9      0.000      0.000
REMARK  Name = 
REMARK  2 active torsions:
REMARK  status: ('A' for Active; 'I' for Inactive)
REMARK    1  A    between atoms: N_6  and  C_7
REMARK    2  A    between atoms: C_10  and  C_11
REMARK                            x       y       z     vdW  Elec       q    Type
REMARK                         _______ _______ _______ _____ _____    ______ ____
ROOT
ATOM      1  C   UNL     1       2.627   6.985  18.798  0.00  0.00    +0.000 A 
ATOM      2  C   UNL     1       2.238   6.677  20.103  0.00  0.00    +0.000 A 
ATOM      3  C   UNL     1       1.470   7.584  20.846  0.00  0.00    +0.000 A 
ATOM      4  C   UNL     1       1.045   8.809  20.301  0.00  0.00    +0.000 A 
ATOM      5  C   UNL     1       1.442   9.091  18.981  0.00  0.00    +0.000 A 
ATOM      6  C   UNL     1       2.229   8.203  18.242  0.00  0.00    +0.000 A 
ENDROOT
BRANCH   1  12
ATOM      7  N   UNL     1       5.823   3.446  16.035  0.00  0.00    +0.000 N 
ATOM      8  C   UNL     1       5.057   4.356  16.716  0.00  0.00    +0.000 A 
ATOM      9  N   UNL     1       3.831   4.003  16.961  0.00  0.00    +0.000 NA
ATOM     10  C   UNL     1       2.982   4.843  17.651  0.00  0.00    +0.000 A 
ATOM     11  O   UNL     1       1.822   4.494  17.859  0.00  0.00    +0.000 OA
ATOM     12  N   UNL     1       3.475   6.105  18.060  0.00  0.00    +0.000 N 
ATOM     13  C   UNL     1       4.776   6.482  17.778  0.00  0.00    +0.000 A 
ATOM     14  C   UNL     1       5.613   5.670  17.134  0.00  0.00    +0.000 A 
ATOM     15 CL   UNL     1       7.247   6.062  16.817  0.00  0.00    +0.000 Cl
ATOM     16  H   UNL     1       5.279   2.737  15.552  0.00  0.00    +0.000 HD
ATOM     17  H   UNL     1       6.618   3.797  15.514  0.00  0.00    +0.000 HD
ENDBRANCH   1  12
BRANCH   4  18
ATOM     18  C   UNL     1       0.220   9.770  21.073  0.00  0.00    +0.000 A 
ATOM     19  C   UNL     1      -0.306  10.936  20.488  0.00  0.00    +0.000 A 
ATOM     20  C   UNL     1      -1.107  11.823  21.219  0.00  0.00    +0.000 A 
ATOM     21  C   UNL     1      -1.409  11.559  22.550  0.00  0.00    +0.000 A 
ATOM     22  C   UNL     1      -0.898  10.419  23.157  0.00  0.00    +0.000 A 
ATOM     23  C   UNL     1      -0.086   9.542  22.429  0.00  0.00    +0.000 A 
ENDBRANCH   4  18
TORSDOF 2
ENDMDL
MODEL 2
REMARK VINA RESULT:      -7.9      0.135      1.047
REMARK  Name = 
REMARK  2 active torsions:
REMARK  status: ('A' for Active; 'I' for Inactive)
REMARK    1  A    between atoms: N_6  and  C_7
REMARK    2  A    between atoms: C_10  and  C_11
REMARK                            x       y       z     vdW  Elec       q    Type
REMARK                         _______ _______ _______ _____ _____    ______ ____
ROOT
ATOM      1  C   UNL     1       2.640   6.954  18.820  0.00  0.00    +0.000 A 
ATOM      2  C   UNL     1       2.270   6.643  20.130  0.00  0.00    +0.000 A 
ATOM      3  C   UNL     1       1.515   7.549  20.887  0.00  0.00    +0.000 A 
ATOM      4  C   UNL     1       1.085   8.777  20.353  0.00  0.00    +0.000 A 
ATOM      5  C   UNL     1       1.462   9.063  19.028  0.00  0.00    +0.000 A 
ATOM      6  C   UNL     1       2.236   8.175  18.274  0.00  0.00    +0.000 A 
ENDROOT
BRANCH   1  12
ATOM      7  N   UNL     1       5.786   3.419  15.997  0.00  0.00    +0.000 N 
ATOM      8  C   UNL     1       5.033   4.328  16.693  0.00  0.00    +0.000 A 
ATOM      9  N   UNL     1       3.808   3.979  16.951  0.00  0.00    +0.000 NA
ATOM     10  C   UNL     1       2.972   4.819  17.656  0.00  0.00    +0.000 A 
ATOM     11  O   UNL     1       1.813   4.473  17.876  0.00  0.00    +0.000 OA
ATOM     12  N   UNL     1       3.475   6.076  18.067  0.00  0.00    +0.000 N 
ATOM     13  C   UNL     1       4.774   6.449  17.771  0.00  0.00    +0.000 A 
ATOM     14  C   UNL     1       5.600   5.637  17.112  0.00  0.00    +0.000 A 
ATOM     15 CL   UNL     1       7.231   6.024  16.778  0.00  0.00    +0.000 Cl
ATOM     16  H   UNL     1       5.234   2.716  15.517  0.00  0.00    +0.000 HD
ATOM     17  H   UNL     1       6.577   3.769  15.469  0.00  0.00    +0.000 HD
ENDBRANCH   1  12
BRANCH   4  18
ATOM     18  C   UNL     1       0.273   9.736  21.140  0.00  0.00    +0.000 A 
ATOM     19  C   UNL     1      -0.207   9.426  22.426  0.00  0.00    +0.000 A 
ATOM     20  C   UNL     1      -0.949  10.350  23.172  0.00  0.00    +0.000 A 
ATOM     21  C   UNL     1      -1.222  11.611  22.653  0.00  0.00    +0.000 A 
ATOM     22  C   UNL     1      -0.768  11.944  21.383  0.00  0.00    +0.000 A 
ATOM     23  C   UNL     1      -0.038  11.014  20.634  0.00  0.00    +0.000 A 
ENDBRANCH   4  18
TORSDOF 2
ENDMDL
MODEL 3
REMARK VINA RESULT:      -7.8      0.129      1.488
REMARK  Name = 
REMARK  2 active torsions:
REMARK  status: ('A' for Active; 'I' for Inactive)
REMARK    1  A    between atoms: N_6  and  C_7
REMARK    2  A    between atoms: C_10  and  C_11
REMARK                            x       y       z     vdW  Elec       q    Type
REMARK                         _______ _______ _______ _____ _____    ______ ____
ROOT
ATOM      1  C   UNL     1       2.666   7.083  18.814  0.00  0.00    +0.000 A 
ATOM      2  C   UNL     1       2.225   8.274  18.234  0.00  0.00    +0.000 A 
ATOM      3  C   UNL     1       1.391   9.145  18.949  0.00  0.00    +0.000 A 
ATOM      4  C   UNL     1       0.995   8.867  20.269  0.00  0.00    +0.000 A 
ATOM      5  C   UNL     1       1.460   7.666  20.835  0.00  0.00    +0.000 A 
ATOM      6  C   UNL     1       2.272   6.780  20.120  0.00  0.00    +0.000 A 
ENDROOT
BRANCH   1  12
ATOM      7  N   UNL     1       5.611   3.349  16.031  0.00  0.00    +0.000 N 
ATOM      8  C   UNL     1       4.909   4.307  16.715  0.00  0.00    +0.000 A 
ATOM      9  N   UNL     1       3.683   4.005  17.024  0.00  0.00    +0.000 NA
ATOM     10  C   UNL     1       2.896   4.896  17.723  0.00  0.00    +0.000 A 
ATOM     11  O   UNL     1       1.734   4.596  17.993  0.00  0.00    +0.000 OA
ATOM     12  N   UNL     1       3.449   6.152  18.069  0.00  0.00    +0.000 N 
ATOM     13  C   UNL     1       4.748   6.473  17.719  0.00  0.00    +0.000 A 
ATOM     14  C   UNL     1       5.527   5.612  17.066  0.00  0.00    +0.000 A 
ATOM     15 CL   UNL     1       7.158   5.935  16.666  0.00  0.00    +0.000 Cl
ATOM     16  H   UNL     1       5.022   2.646  15.595  0.00  0.00    +0.000 HD
ATOM     17  H   UNL     1       6.394   3.655  15.465  0.00  0.00    +0.000 HD
ENDBRANCH   1  12
BRANCH   4  18
ATOM     18  C   UNL     1       0.125   9.788  21.041  0.00  0.00    +0.000 A 
ATOM     19  C   UNL     1      -0.150   9.584  22.405  0.00  0.00    +0.000 A 
ATOM     20  C   UNL     1      -0.951  10.475  23.131  0.00  0.00    +0.000 A 
ATOM     21  C   UNL     1      -1.488  11.597  22.511  0.00  0.00    +0.000 A 
ATOM     22  C   UNL     1      -1.240  11.822  21.163  0.00  0.00    +0.000 A 
ATOM     23  C   UNL     1      -0.451  10.922  20.437  0.00  0.00    +0.000 A 
ENDBRANCH   4  18
TORSDOF 2
ENDMDL
MODEL 4
REMARK VINA RESULT:      -7.8      0.173      1.062
REMARK  Name = 
REMARK  2 active torsions:
REMARK  status: ('A' for Active; 'I' for Inactive)
REMARK    1  A    between atoms: N_6  and  C_7
REMARK    2  A    between atoms: C_10  and  C_11
REMARK                            x       y       z     vdW  Elec       q    Type
REMARK                         _______ _______ _______ _____ _____    ______ ____
ROOT
ATOM      1  C   UNL     1       2.658   7.131  18.816  0.00  0.00    +0.000 A 
ATOM      2  C   UNL     1       2.217   8.315  18.220  0.00  0.00    +0.000 A 
ATOM      3  C   UNL     1       1.389   9.198  18.926  0.00  0.00    +0.000 A 
ATOM      4  C   UNL     1       0.999   8.942  20.252  0.00  0.00    +0.000 A 
ATOM      5  C   UNL     1       1.464   7.748  20.834  0.00  0.00    +0.000 A 
ATOM      6  C   UNL     1       2.270   6.849  20.128  0.00  0.00    +0.000 A 
ENDROOT
BRANCH   1  12
ATOM      7  N   UNL     1       5.578   3.348  16.074  0.00  0.00    +0.000 N 
ATOM      8  C   UNL     1       4.882   4.317  16.748  0.00  0.00    +0.000 A 
ATOM      9  N   UNL     1       3.654   4.027  17.060  0.00  0.00    +0.000 NA
ATOM     10  C   UNL     1       2.873   4.931  17.749  0.00  0.00    +0.000 A 
ATOM     11  O   UNL     1       1.709   4.642  18.021  0.00  0.00    +0.000 OA
ATOM     12  N   UNL     1       3.435   6.187  18.082  0.00  0.00    +0.000 N 
ATOM     13  C   UNL     1       4.736   6.495  17.728  0.00  0.00    +0.000 A 
ATOM     14  C   UNL     1       5.510   5.622  17.084  0.00  0.00    +0.000 A 
ATOM     15 CL   UNL     1       7.143   5.929  16.682  0.00  0.00    +0.000 Cl
ATOM     16  H   UNL     1       4.985   2.644  15.646  0.00  0.00    +0.000 HD
ATOM     17  H   UNL     1       6.364   3.642  15.505  0.00  0.00    +0.000 HD
ENDBRANCH   1  12
BRANCH   4  18
ATOM     18  C   UNL     1       0.136   9.877  21.014  0.00  0.00    +0.000 A 
ATOM     19  C   UNL     1      -0.477  10.987  20.405  0.00  0.00    +0.000 A 
ATOM     20  C   UNL     1      -1.313  11.848  21.127  0.00  0.00    +0.000 A 
ATOM     21  C   UNL     1      -1.564  11.613  22.474  0.00  0.00    +0.000 A 
ATOM     22  C   UNL     1      -0.967  10.529  23.105  0.00  0.00    +0.000 A 
ATOM     23  C   UNL     1      -0.121   9.679  22.385  0.00  0.00    +0.000 A 
ENDBRANCH   4  18
TORSDOF 2
ENDMDL
MODEL 5
REMARK VINA RESULT:      -7.7      2.922      3.563
REMARK  Name = 
REMARK  2 active torsions:
REMARK  status: ('A' for Active; 'I' for Inactive)
REMARK    1  A    between atoms: N_6  and  C_7
REMARK    2  A    between atoms: C_10  and  C_11
REMARK                            x       y       z     vdW  Elec       q    Type
REMARK                         _______ _______ _______ _____ _____    ______ ____
ROOT
ATOM      1  C   UNL     1       2.660   6.697  19.141  0.00  0.00    +0.000 A 
ATOM      2  C   UNL     1       2.733   7.372  17.921  0.00  0.00    +0.000 A 
ATOM      3  C   UNL     1       2.145   8.635  17.773  0.00  0.00    +0.000 A 
ATOM      4  C   UNL     1       1.491   9.273  18.842  0.00  0.00    +0.000 A 
ATOM      5  C   UNL     1       1.439   8.577  20.064  0.00  0.00    +0.000 A 
ATOM      6  C   UNL     1       2.002   7.306  20.213  0.00  0.00    +0.000 A 
ENDROOT
BRANCH   1  12
ATOM      7  N   UNL     1       4.828   1.649  19.568  0.00  0.00    +0.000 N 
ATOM      8  C   UNL     1       4.251   2.888  19.472  0.00  0.00    +0.000 A 
ATOM      9  N   UNL     1       5.068   3.895  19.392  0.00  0.00    +0.000 NA
ATOM     10  C   UNL     1       4.587   5.183  19.280  0.00  0.00    +0.000 A 
ATOM     11  O   UNL     1       5.379   6.122  19.220  0.00  0.00    +0.000 OA
ATOM     12  N   UNL     1       3.186   5.378  19.281  0.00  0.00    +0.000 N 
ATOM     13  C   UNL     1       2.322   4.302  19.387  0.00  0.00    +0.000 A 
ATOM     14  C   UNL     1       2.774   3.051  19.471  0.00  0.00    +0.000 A 
ATOM     15 CL   UNL     1       1.749   1.684  19.540  0.00  0.00    +0.000 Cl
ATOM     16  H   UNL     1       5.802   1.675  19.854  0.00  0.00    +0.000 HD
ATOM     17  H   UNL     1       4.282   0.907  19.991  0.00  0.00    +0.000 HD
ENDBRANCH   1  12
BRANCH   4  18
ATOM     18  C   UNL     1       0.877  10.616  18.701  0.00  0.00    +0.000 A 
ATOM     19  C   UNL     1       1.651  11.790  18.688  0.00  0.00    +0.000 A 
ATOM     20  C   UNL     1       1.064  13.051  18.527  0.00  0.00    +0.000 A 
ATOM     21  C   UNL     1      -0.312  13.167  18.366  0.00  0.00    +0.000 A 
ATOM     22  C   UNL     1      -1.104  12.026  18.382  0.00  0.00    +0.000 A 
ATOM     23  C   UNL     1      -0.516  10.768  18.557  0.00  0.00    +0.000 A 
ENDBRANCH   4  18
TORSDOF 2
ENDMDL
MODEL 6
REMARK VINA RESULT:      -7.7      2.928      3.587
REMARK  Name = 
REMARK  2 active torsions:
REMARK  status: ('A' for Active; 'I' for Inactive)
REMARK    1  A    between atoms: N_6  and  C_7
REMARK    2  A    between atoms: C_10  and  C_11
REMARK                            x       y       z     vdW  Elec       q    Type
REMARK                         _______ _______ _______ _____ _____    ______ ____
ROOT
ATOM      1  C   UNL     1       2.685   6.687  19.121  0.00  0.00    +0.000 A 
ATOM      2  C   UNL     1       2.759   7.353  17.896  0.00  0.00    +0.000 A 
ATOM      3  C   UNL     1       2.176   8.617  17.740  0.00  0.00    +0.000 A 
ATOM      4  C   UNL     1       1.527   9.265  18.806  0.00  0.00    +0.000 A 
ATOM      5  C   UNL     1       1.474   8.578  20.033  0.00  0.00    +0.000 A 
ATOM      6  C   UNL     1       2.031   7.305  20.189  0.00  0.00    +0.000 A 
ENDROOT
BRANCH   1  12
ATOM      7  N   UNL     1       4.833   1.633  19.582  0.00  0.00    +0.000 N 
ATOM      8  C   UNL     1       4.260   2.873  19.476  0.00  0.00    +0.000 A 
ATOM      9  N   UNL     1       5.082   3.879  19.413  0.00  0.00    +0.000 NA
ATOM     10  C   UNL     1       4.606   5.168  19.294  0.00  0.00    +0.000 A 
ATOM     11  O   UNL     1       5.401   6.105  19.249  0.00  0.00    +0.000 OA
ATOM     12  N   UNL     1       3.205   5.366  19.269  0.00  0.00    +0.000 N 
ATOM     13  C   UNL     1       2.337   4.292  19.358  0.00  0.00    +0.000 A 
ATOM     14  C   UNL     1       2.784   3.040  19.448  0.00  0.00    +0.000 A 
ATOM     15 CL   UNL     1       1.755   1.675  19.496  0.00  0.00    +0.000 Cl
ATOM     16  H   UNL     1       5.801   1.656  19.886  0.00  0.00    +0.000 HD
ATOM     17  H   UNL     1       4.277   0.892  19.994  0.00  0.00    +0.000 HD
ENDBRANCH   1  12
BRANCH   4  18
ATOM     18  C   UNL     1       0.919  10.610  18.657  0.00  0.00    +0.000 A 
ATOM     19  C   UNL     1      -0.472  10.789  18.543  0.00  0.00    +0.000 A 
ATOM     20  C   UNL     1      -1.038  12.066  18.430  0.00  0.00    +0.000 A 
ATOM     21  C   UNL     1      -0.226  13.194  18.439  0.00  0.00    +0.000 A 
ATOM     22  C   UNL     1       1.152  13.049  18.543  0.00  0.00    +0.000 A 
ATOM     23  C   UNL     1       1.715  11.772  18.641  0.00  0.00    +0.000 A 
ENDBRANCH   4  18
TORSDOF 2
ENDMDL
MODEL 7
REMARK VINA RESULT:      -7.6      4.264      8.125
REMARK  Name = 
REMARK  2 active torsions:
REMARK  status: ('A' for Active; 'I' for Inactive)
REMARK    1  A    between atoms: N_6  and  C_7
REMARK    2  A    between atoms: C_10  and  C_11
REMARK                            x       y       z     vdW  Elec       q    Type
REMARK                         _______ _______ _______ _____ _____    ______ ____
ROOT
ATOM      1  C   UNL     1       1.250   8.946  19.835  0.00  0.00    +0.000 A 
ATOM      2  C   UNL     1       1.653   9.279  18.541  0.00  0.00    +0.000 A 
ATOM      3  C   UNL     1       2.452   8.398  17.799  0.00  0.00    +0.000 A 
ATOM      4  C   UNL     1       2.849   7.152  18.314  0.00  0.00    +0.000 A 
ATOM      5  C   UNL     1       2.421   6.835  19.617  0.00  0.00    +0.000 A 
ATOM      6  C   UNL     1       1.645   7.718  20.373  0.00  0.00    +0.000 A 
ENDROOT
BRANCH   1  12
ATOM      7  N   UNL     1      -1.625  12.384  23.041  0.00  0.00    +0.000 N 
ATOM      8  C   UNL     1      -0.928  11.547  22.210  0.00  0.00    +0.000 A 
ATOM      9  N   UNL     1       0.020  10.851  22.763  0.00  0.00    +0.000 NA
ATOM     10  C   UNL     1       0.773   9.971  22.014  0.00  0.00    +0.000 A 
ATOM     11  O   UNL     1       1.674   9.333  22.556  0.00  0.00    +0.000 OA
ATOM     12  N   UNL     1       0.503   9.867  20.629  0.00  0.00    +0.000 N 
ATOM     13  C   UNL     1      -0.495  10.627  20.044  0.00  0.00    +0.000 A 
ATOM     14  C   UNL     1      -1.245  11.462  20.761  0.00  0.00    +0.000 A 
ATOM     15 CL   UNL     1      -2.531  12.374  20.098  0.00  0.00    +0.000 Cl
ATOM     16  H   UNL     1      -1.146  12.582  23.915  0.00  0.00    +0.000 HD
ATOM     17  H   UNL     1      -2.090  13.182  22.624  0.00  0.00    +0.000 HD
ENDBRANCH   1  12
BRANCH   4  18
ATOM     18  C   UNL     1       3.682   6.206  17.533  0.00  0.00    +0.000 A 
ATOM     19  C   UNL     1       3.497   4.813  17.609  0.00  0.00    +0.000 A 
ATOM     20  C   UNL     1       4.271   3.930  16.846  0.00  0.00    +0.000 A 
ATOM     21  C   UNL     1       5.243   4.420  15.981  0.00  0.00    +0.000 A 
ATOM     22  C   UNL     1       5.454   5.789  15.889  0.00  0.00    +0.000 A 
ATOM     23  C   UNL     1       4.689   6.669  16.664  0.00  0.00    +0.000 A 
ENDBRANCH   4  18
TORSDOF 2
ENDMDL
MODEL 8
REMARK VINA RESULT:      -7.6      4.272      8.080
REMARK  Name = 
REMARK  2 active torsions:
REMARK  status: ('A' for Active; 'I' for Inactive)
REMARK    1  A    between atoms: N_6  and  C_7
REMARK    2  A    between atoms: C_10  and  C_11
REMARK                            x       y       z     vdW  Elec       q    Type
REMARK                         _______ _______ _______ _____ _____    ______ ____
ROOT
ATOM      1  C   UNL     1       1.237   8.972  19.832  0.00  0.00    +0.000 A 
ATOM      2  C   UNL     1       1.638   9.308  18.538  0.00  0.00    +0.000 A 
ATOM      3  C   UNL     1       2.434   8.429  17.791  0.00  0.00    +0.000 A 
ATOM      4  C   UNL     1       2.830   7.180  18.301  0.00  0.00    +0.000 A 
ATOM      5  C   UNL     1       2.405   6.860  19.604  0.00  0.00    +0.000 A 
ATOM      6  C   UNL     1       1.632   7.742  20.365  0.00  0.00    +0.000 A 
ENDROOT
BRANCH   1  12
ATOM      7  N   UNL     1      -1.624  12.404  23.057  0.00  0.00    +0.000 N 
ATOM      8  C   UNL     1      -0.930  11.569  22.221  0.00  0.00    +0.000 A 
ATOM      9  N   UNL     1       0.017  10.868  22.770  0.00  0.00    +0.000 NA
ATOM     10  C   UNL     1       0.766   9.988  22.016  0.00  0.00    +0.000 A 
ATOM     11  O   UNL     1       1.666   9.345  22.554  0.00  0.00    +0.000 OA
ATOM     12  N   UNL     1       0.495   9.892  20.631  0.00  0.00    +0.000 N 
ATOM     13  C   UNL     1      -0.502  10.657  20.051  0.00  0.00    +0.000 A 
ATOM     14  C   UNL     1      -1.249  11.491  20.771  0.00  0.00    +0.000 A 
ATOM     15 CL   UNL     1      -2.533  12.410  20.115  0.00  0.00    +0.000 Cl
ATOM     16  H   UNL     1      -1.144  12.596  23.931  0.00  0.00    +0.000 HD
ATOM     17  H   UNL     1      -2.087  13.205  22.643  0.00  0.00    +0.000 HD
ENDBRANCH   1  12
BRANCH   4  18
ATOM     18  C   UNL     1       3.660   6.236  17.515  0.00  0.00    +0.000 A 
ATOM     19  C   UNL     1       4.695   6.679  16.671  0.00  0.00    +0.000 A 
ATOM     20  C   UNL     1       5.491   5.777  15.954  0.00  0.00    +0.000 A 
ATOM     21  C   UNL     1       5.275   4.408  16.070  0.00  0.00    +0.000 A 
ATOM     22  C   UNL     1       4.256   3.940  16.890  0.00  0.00    +0.000 A 
ATOM     23  C   UNL     1       3.453   4.844  17.594  0.00  0.00    +0.000 A 
ENDBRANCH   4  18
TORSDOF 2
ENDMDL
MODEL 9
REMARK VINA RESULT:      -7.6      4.253      8.053
REMARK  Name = 
REMARK  2 active torsions:
REMARK  status: ('A' for Active; 'I' for Inactive)
REMARK    1  A    between atoms: N_6  and  C_7
REMARK    2  A    between atoms: C_10  and  C_11
REMARK                            x       y       z     vdW  Elec       q    Type
REMARK                         _______ _______ _______ _____ _____    ______ ____
ROOT
ATOM      1  C   UNL     1       1.328   8.946  19.863  0.00  0.00    +0.000 A 
ATOM      2  C   UNL     1       1.684   7.708  20.403  0.00  0.00    +0.000 A 
ATOM      3  C   UNL     1       2.425   6.791  19.645  0.00  0.00    +0.000 A 
ATOM      4  C   UNL     1       2.856   7.092  18.340  0.00  0.00    +0.000 A 
ATOM      5  C   UNL     1       2.493   8.350  17.823  0.00  0.00    +0.000 A 
ATOM      6  C   UNL     1       1.733   9.260  18.564  0.00  0.00    +0.000 A 
ENDROOT
BRANCH   1  12
ATOM      7  N   UNL     1      -1.839  12.339  22.833  0.00  0.00    +0.000 N 
ATOM      8  C   UNL     1      -1.068  11.512  22.059  0.00  0.00    +0.000 A 
ATOM      9  N   UNL     1      -0.127  10.863  22.678  0.00  0.00    +0.000 NA
ATOM     10  C   UNL     1       0.697   9.997  21.990  0.00  0.00    +0.000 A 
ATOM     11  O   UNL     1       1.590   9.404  22.593  0.00  0.00    +0.000 OA
ATOM     12  N   UNL     1       0.507   9.855  20.596  0.00  0.00    +0.000 N 
ATOM     13  C   UNL     1      -0.484  10.565  19.941  0.00  0.00    +0.000 A 
ATOM     14  C   UNL     1      -1.302  11.386  20.597  0.00  0.00    +0.000 A 
ATOM     15 CL   UNL     1      -2.582  12.237  19.847  0.00  0.00    +0.000 Cl
ATOM     16  H   UNL     1      -1.416  12.572  23.727  0.00  0.00    +0.000 HD
ATOM     17  H   UNL     1      -2.309  13.110  22.374  0.00  0.00    +0.000 HD
ENDBRANCH   1  12
BRANCH   4  18
ATOM     18  C   UNL     1       3.653   6.136  17.534  0.00  0.00    +0.000 A 
ATOM     19  C   UNL     1       3.437   4.747  17.599  0.00  0.00    +0.000 A 
ATOM     20  C   UNL     1       4.177   3.854  16.813  0.00  0.00    +0.000 A 
ATOM     21  C   UNL     1       5.145   4.331  15.936  0.00  0.00    +0.000 A 
ATOM     22  C   UNL     1       5.385   5.697  15.855  0.00  0.00    +0.000 A 
ATOM     23  C   UNL     1       4.655   6.585  16.652  0.00  0.00    +0.000 A 
ENDBRANCH   4  18
TORSDOF 2
ENDMDL
