MODEL 1
REMARK VINA RESULT:      -8.0      0.000      0.000
REMARK  Name = 
REMARK  6 active torsions:
REMARK  status: ('A' for Active; 'I' for Inactive)
REMARK    1  A    between atoms: C_2  and  C_3
REMARK    2  A    between atoms: C_6  and  O_7
REMARK    3  A    between atoms: O_7  and  C_8
REMARK    4  A    between atoms: C_11  and  N_12
REMARK    5  A    between atoms: N_15  and  C_16
REMARK    6  A    between atoms: C_19  and  C_20
REMARK                            x       y       z     vdW  Elec       q    Type
REMARK                         _______ _______ _______ _____ _____    ______ ____
ROOT
ATOM      1  N   UNL     1       2.121   7.821  20.422  0.00  0.00    +0.000 N 
ATOM      2  C   UNL     1       0.932   8.374  20.866  0.00  0.00    +0.000 C 
ATOM      3  O   UNL     1      -0.101   7.759  21.096  0.00  0.00    +0.000 OA
ATOM      4  N   UNL     1       1.055   9.750  21.051  0.00  0.00    +0.000 N 
ATOM      5  H   UNL     1       2.940   8.321  20.737  0.00  0.00    +0.000 HD
ATOM      6  H   UNL     1       1.668  10.209  20.388  0.00  0.00    +0.000 HD
ENDROOT
BRANCH   4   7
ATOM      7  C   UNL     1      -0.066  10.522  21.461  0.00  0.00    +0.000 A 
ATOM      8  C   UNL     1      -0.516  10.483  22.786  0.00  0.00    +0.000 A 
ATOM      9  C   UNL     1      -1.629  11.231  23.188  0.00  0.00    +0.000 A 
ATOM     10  C   UNL     1      -2.312  12.039  22.271  0.00  0.00    +0.000 A 
ATOM     11  C   UNL     1      -1.869  12.060  20.937  0.00  0.00    +0.000 A 
ATOM     12  C   UNL     1      -0.749  11.323  20.539  0.00  0.00    +0.000 A 
ATOM     13 BR   UNL     1      -0.265  11.351  18.702  0.00  0.00    +0.000 Br
BRANCH  10  14
ATOM     14  C   UNL     1      -3.505  12.864  22.713  0.00  0.00    +0.000 C 
ATOM     15  C   UNL     1      -3.745  12.774  24.244  0.00  0.00    +0.000 C 
ATOM     16  N   UNL     1      -4.965  13.491  24.678  0.00  0.00    +0.000 NA
ATOM     17  C   UNL     1      -6.101  12.998  23.878  0.00  0.00    +0.000 C 
ATOM     18  C   UNL     1      -5.841  13.114  22.371  0.00  0.00    +0.000 C 
ATOM     19  O   UNL     1      -4.662  12.405  21.987  0.00  0.00    +0.000 OA
ATOM     20  H   UNL     1      -4.842  14.486  24.489  0.00  0.00    +0.000 HD
ENDBRANCH  10  14
ENDBRANCH   4   7
BRANCH   1  25
ATOM     21  C   UNL     1       2.068   4.113  20.537  0.00  0.00    +0.000 A 
ATOM     22  C   UNL     1       2.579   3.756  19.296  0.00  0.00    +0.000 A 
ATOM     23  C   UNL     1       2.989   4.743  18.403  0.00  0.00    +0.000 A 
ATOM     24  C   UNL     1       2.914   6.102  18.745  0.00  0.00    +0.000 A 
ATOM     25  C   UNL     1       2.317   6.483  19.971  0.00  0.00    +0.000 A 
ATOM     26  C   UNL     1       1.925   5.470  20.870  0.00  0.00    +0.000 A 
BRANCH  21  28
ATOM     27  N   UNL     1       1.378   2.270  22.231  0.00  0.00    +0.000 NA
ATOM     28  C   UNL     1       1.692   3.085  21.459  0.00  0.00    +0.000 C 
ENDBRANCH  21  28
BRANCH  24  29
ATOM     29  O   UNL     1       3.446   7.071  17.939  0.00  0.00    +0.000 OA
BRANCH  29  30
ATOM     30  C   UNL     1       4.521   6.695  17.097  0.00  0.00    +0.000 C 
ATOM     31  F   UNL     1       4.369   7.275  15.880  0.00  0.00    +0.000 F 
ATOM     32  F   UNL     1       5.665   7.191  17.627  0.00  0.00    +0.000 F 
ENDBRANCH  29  30
ENDBRANCH  24  29
ENDBRANCH   1  25
TORSDOF 6
ENDMDL
MODEL 2
REMARK VINA RESULT:      -7.9      3.586      4.789
REMARK  Name = 
REMARK  6 active torsions:
REMARK  status: ('A' for Active; 'I' for Inactive)
REMARK    1  A    between atoms: C_2  and  C_3
REMARK    2  A    between atoms: C_6  and  O_7
REMARK    3  A    between atoms: O_7  and  C_8
REMARK    4  A    between atoms: C_11  and  N_12
REMARK    5  A    between atoms: N_15  and  C_16
REMARK    6  A    between atoms: C_19  and  C_20
REMARK                            x       y       z     vdW  Elec       q    Type
REMARK                         _______ _______ _______ _____ _____    ______ ____
ROOT
ATOM      1  N   UNL     1       2.558   6.654  19.284  0.00  0.00    +0.000 N 
ATOM      2  C   UNL     1       1.905   7.829  18.951  0.00  0.00    +0.000 C 
ATOM      3  O   UNL     1       1.622   8.193  17.817  0.00  0.00    +0.000 OA
ATOM      4  N   UNL     1       1.574   8.561  20.090  0.00  0.00    +0.000 N 
ATOM      5  H   UNL     1       2.290   6.287  20.185  0.00  0.00    +0.000 HD
ATOM      6  H   UNL     1       2.249   8.494  20.841  0.00  0.00    +0.000 HD
ENDROOT
BRANCH   4   7
ATOM      7  C   UNL     1       0.937   9.826  19.970  0.00  0.00    +0.000 A 
ATOM      8  C   UNL     1       1.229  10.675  18.896  0.00  0.00    +0.000 A 
ATOM      9  C   UNL     1       0.614  11.928  18.784  0.00  0.00    +0.000 A 
ATOM     10  C   UNL     1      -0.311  12.354  19.745  0.00  0.00    +0.000 A 
ATOM     11  C   UNL     1      -0.586  11.507  20.833  0.00  0.00    +0.000 A 
ATOM     12  C   UNL     1       0.019  10.250  20.937  0.00  0.00    +0.000 A 
ATOM     13 BR   UNL     1      -0.353   9.202  22.477  0.00  0.00    +0.000 Br
BRANCH  10  14
ATOM     14  C   UNL     1      -0.991  13.703  19.612  0.00  0.00    +0.000 C 
ATOM     15  C   UNL     1      -0.135  14.713  18.803  0.00  0.00    +0.000 C 
ATOM     16  N   UNL     1      -0.737  16.065  18.749  0.00  0.00    +0.000 NA
ATOM     17  C   UNL     1      -1.010  16.504  20.130  0.00  0.00    +0.000 C 
ATOM     18  C   UNL     1      -1.871  15.494  20.899  0.00  0.00    +0.000 C 
ATOM     19  O   UNL     1      -1.256  14.204  20.937  0.00  0.00    +0.000 OA
ATOM     20  H   UNL     1      -1.622  16.007  18.246  0.00  0.00    +0.000 HD
ENDBRANCH  10  14
ENDBRANCH   4   7
BRANCH   1  25
ATOM     21  C   UNL     1       5.160   5.341  16.987  0.00  0.00    +0.000 A 
ATOM     22  C   UNL     1       4.640   4.113  16.597  0.00  0.00    +0.000 A 
ATOM     23  C   UNL     1       3.391   3.709  17.063  0.00  0.00    +0.000 A 
ATOM     24  C   UNL     1       2.633   4.534  17.907  0.00  0.00    +0.000 A 
ATOM     25  C   UNL     1       3.186   5.748  18.379  0.00  0.00    +0.000 A 
ATOM     26  C   UNL     1       4.443   6.151  17.884  0.00  0.00    +0.000 A 
BRANCH  21  28
ATOM     27  N   UNL     1       7.469   6.081  16.059  0.00  0.00    +0.000 NA
ATOM     28  C   UNL     1       6.425   5.761  16.466  0.00  0.00    +0.000 C 
ENDBRANCH  21  28
BRANCH  24  29
ATOM     29  O   UNL     1       1.349   4.213  18.252  0.00  0.00    +0.000 OA
BRANCH  29  30
ATOM     30  C   UNL     1       1.174   3.220  19.247  0.00  0.00    +0.000 C 
ATOM     31  F   UNL     1       0.612   3.775  20.350  0.00  0.00    +0.000 F 
ATOM     32  F   UNL     1       0.292   2.304  18.778  0.00  0.00    +0.000 F 
ENDBRANCH  29  30
ENDBRANCH  24  29
ENDBRANCH   1  25
TORSDOF 6
ENDMDL
MODEL 3
REMARK VINA RESULT:      -7.8      2.918      3.994
REMARK  Name = 
REMARK  6 active torsions:
REMARK  status: ('A' for Active; 'I' for Inactive)
REMARK    1  A    between atoms: C_2  and  C_3
REMARK    2  A    between atoms: C_6  and  O_7
REMARK    3  A    between atoms: O_7  and  C_8
REMARK    4  A    between atoms: C_11  and  N_12
REMARK    5  A    between atoms: N_15  and  C_16
REMARK    6  A    between atoms: C_19  and  C_20
REMARK                            x       y       z     vdW  Elec       q    Type
REMARK                         _______ _______ _______ _____ _____    ______ ____
ROOT
ATOM      1  N   UNL     1       2.580   7.550  17.763  0.00  0.00    +0.000 N 
ATOM      2  C   UNL     1       2.139   8.145  18.934  0.00  0.00    +0.000 C 
ATOM      3  O   UNL     1       2.434   7.794  20.069  0.00  0.00    +0.000 OA
ATOM      4  N   UNL     1       1.317   9.237  18.664  0.00  0.00    +0.000 N 
ATOM      5  H   UNL     1       2.659   8.194  16.990  0.00  0.00    +0.000 HD
ATOM      6  H   UNL     1       0.736   9.131  17.842  0.00  0.00    +0.000 HD
ENDROOT
BRANCH   4   7
ATOM      7  C   UNL     1       0.718   9.964  19.729  0.00  0.00    +0.000 A 
ATOM      8  C   UNL     1      -0.100   9.320  20.665  0.00  0.00    +0.000 A 
ATOM      9  C   UNL     1      -0.702  10.038  21.705  0.00  0.00    +0.000 A 
ATOM     10  C   UNL     1      -0.493  11.417  21.832  0.00  0.00    +0.000 A 
ATOM     11  C   UNL     1       0.312  12.063  20.879  0.00  0.00    +0.000 A 
ATOM     12  C   UNL     1       0.925  11.343  19.848  0.00  0.00    +0.000 A 
ATOM     13 BR   UNL     1       1.936  12.308  18.561  0.00  0.00    +0.000 Br
BRANCH  10  14
ATOM     14  C   UNL     1      -1.131  12.189  22.972  0.00  0.00    +0.000 C 
ATOM     15  C   UNL     1      -2.679  12.083  22.956  0.00  0.00    +0.000 C 
ATOM     16  N   UNL     1      -3.323  12.912  24.000  0.00  0.00    +0.000 NA
ATOM     17  C   UNL     1      -2.830  14.295  23.861  0.00  0.00    +0.000 C 
ATOM     18  C   UNL     1      -1.298  14.369  23.896  0.00  0.00    +0.000 C 
ATOM     19  O   UNL     1      -0.712  13.564  22.871  0.00  0.00    +0.000 OA
ATOM     20  H   UNL     1      -3.044  12.558  24.914  0.00  0.00    +0.000 HD
ENDBRANCH  10  14
ENDBRANCH   4   7
BRANCH   1  25
ATOM     21  C   UNL     1       5.324   5.241  16.811  0.00  0.00    +0.000 A 
ATOM     22  C   UNL     1       4.904   4.025  17.335  0.00  0.00    +0.000 A 
ATOM     23  C   UNL     1       3.676   3.937  17.987  0.00  0.00    +0.000 A 
ATOM     24  C   UNL     1       2.840   5.058  18.108  0.00  0.00    +0.000 A 
ATOM     25  C   UNL     1       3.294   6.320  17.654  0.00  0.00    +0.000 A 
ATOM     26  C   UNL     1       4.530   6.387  16.980  0.00  0.00    +0.000 A 
BRANCH  21  28
ATOM     27  N   UNL     1       7.573   5.385  15.520  0.00  0.00    +0.000 NA
ATOM     28  C   UNL     1       6.568   5.305  16.106  0.00  0.00    +0.000 C 
ENDBRANCH  21  28
BRANCH  24  29
ATOM     29  O   UNL     1       1.575   4.953  18.615  0.00  0.00    +0.000 OA
BRANCH  29  30
ATOM     30  C   UNL     1       1.412   4.188  19.796  0.00  0.00    +0.000 C 
ATOM     31  F   UNL     1       0.797   4.941  20.744  0.00  0.00    +0.000 F 
ATOM     32  F   UNL     1       0.582   3.153  19.519  0.00  0.00    +0.000 F 
ENDBRANCH  29  30
ENDBRANCH  24  29
ENDBRANCH   1  25
TORSDOF 6
ENDMDL
MODEL 4
REMARK VINA RESULT:      -7.7      3.928      9.396
REMARK  Name = 
REMARK  6 active torsions:
REMARK  status: ('A' for Active; 'I' for Inactive)
REMARK    1  A    between atoms: C_2  and  C_3
REMARK    2  A    between atoms: C_6  and  O_7
REMARK    3  A    between atoms: O_7  and  C_8
REMARK    4  A    between atoms: C_11  and  N_12
REMARK    5  A    between atoms: N_15  and  C_16
REMARK    6  A    between atoms: C_19  and  C_20
REMARK                            x       y       z     vdW  Elec       q    Type
REMARK                         _______ _______ _______ _____ _____    ______ ____
ROOT
ATOM      1  N   UNL     1      -1.850  11.587  18.465  0.00  0.00    +0.000 N 
ATOM      2  C   UNL     1      -1.155  10.390  18.413  0.00  0.00    +0.000 C 
ATOM      3  O   UNL     1      -1.590   9.329  17.986  0.00  0.00    +0.000 OA
ATOM      4  N   UNL     1       0.144  10.541  18.895  0.00  0.00    +0.000 N 
ATOM      5  H   UNL     1      -1.258  12.399  18.373  0.00  0.00    +0.000 HD
ATOM      6  H   UNL     1       0.234  11.203  19.656  0.00  0.00    +0.000 HD
ENDROOT
BRANCH   4   7
ATOM      7  C   UNL     1       1.015   9.420  18.973  0.00  0.00    +0.000 A 
ATOM      8  C   UNL     1       1.757   9.011  17.858  0.00  0.00    +0.000 A 
ATOM      9  C   UNL     1       2.603   7.899  17.928  0.00  0.00    +0.000 A 
ATOM     10  C   UNL     1       2.730   7.175  19.121  0.00  0.00    +0.000 A 
ATOM     11  C   UNL     1       1.969   7.577  20.232  0.00  0.00    +0.000 A 
ATOM     12  C   UNL     1       1.133   8.696  20.165  0.00  0.00    +0.000 A 
ATOM     13 BR   UNL     1       0.084   9.124  21.690  0.00  0.00    +0.000 Br
BRANCH  10  14
ATOM     14  C   UNL     1       3.663   5.982  19.201  0.00  0.00    +0.000 C 
ATOM     15  C   UNL     1       4.349   5.683  17.841  0.00  0.00    +0.000 C 
ATOM     16  N   UNL     1       5.184   4.461  17.875  0.00  0.00    +0.000 NA
ATOM     17  C   UNL     1       4.355   3.347  18.369  0.00  0.00    +0.000 C 
ATOM     18  C   UNL     1       3.704   3.666  19.721  0.00  0.00    +0.000 C 
ATOM     19  O   UNL     1       2.899   4.845  19.650  0.00  0.00    +0.000 OA
ATOM     20  H   UNL     1       5.952   4.611  18.530  0.00  0.00    +0.000 HD
ENDBRANCH  10  14
ENDBRANCH   4   7
BRANCH   1  25
ATOM     21  C   UNL     1      -5.440  12.123  19.234  0.00  0.00    +0.000 A 
ATOM     22  C   UNL     1      -6.023  12.178  17.974  0.00  0.00    +0.000 A 
ATOM     23  C   UNL     1      -5.238  12.001  16.838  0.00  0.00    +0.000 A 
ATOM     24  C   UNL     1      -3.862  11.745  16.942  0.00  0.00    +0.000 A 
ATOM     25  C   UNL     1      -3.241  11.771  18.214  0.00  0.00    +0.000 A 
ATOM     26  C   UNL     1      -4.053  11.932  19.355  0.00  0.00    +0.000 A 
BRANCH  21  28
ATOM     27  N   UNL     1      -6.941  12.409  21.334  0.00  0.00    +0.000 NA
ATOM     28  C   UNL     1      -6.267  12.263  20.393  0.00  0.00    +0.000 C 
ENDBRANCH  21  28
BRANCH  24  29
ATOM     29  O   UNL     1      -3.111  11.426  15.845  0.00  0.00    +0.000 OA
BRANCH  29  30
ATOM     30  C   UNL     1      -3.538  10.324  15.065  0.00  0.00    +0.000 C 
ATOM     31  F   UNL     1      -2.636  10.087  14.079  0.00  0.00    +0.000 F 
ATOM     32  F   UNL     1      -3.548   9.225  15.858  0.00  0.00    +0.000 F 
ENDBRANCH  29  30
ENDBRANCH  24  29
ENDBRANCH   1  25
TORSDOF 6
ENDMDL
MODEL 5
REMARK VINA RESULT:      -7.7      1.385      1.451
REMARK  Name = 
REMARK  6 active torsions:
REMARK  status: ('A' for Active; 'I' for Inactive)
REMARK    1  A    between atoms: C_2  and  C_3
REMARK    2  A    between atoms: C_6  and  O_7
REMARK    3  A    between atoms: O_7  and  C_8
REMARK    4  A    between atoms: C_11  and  N_12
REMARK    5  A    between atoms: N_15  and  C_16
REMARK    6  A    between atoms: C_19  and  C_20
REMARK                            x       y       z     vdW  Elec       q    Type
REMARK                         _______ _______ _______ _____ _____    ______ ____
ROOT
ATOM      1  N   UNL     1       1.801   8.313  20.857  0.00  0.00    +0.000 N 
ATOM      2  C   UNL     1       0.557   8.866  21.114  0.00  0.00    +0.000 C 
ATOM      3  O   UNL     1      -0.518   8.296  20.984  0.00  0.00    +0.000 OA
ATOM      4  N   UNL     1       0.674  10.176  21.575  0.00  0.00    +0.000 N 
ATOM      5  H   UNL     1       2.536   8.689  21.438  0.00  0.00    +0.000 HD
ATOM      6  H   UNL     1       1.440  10.697  21.165  0.00  0.00    +0.000 HD
ENDROOT
BRANCH   4   7
ATOM      7  C   UNL     1      -0.488  10.944  21.855  0.00  0.00    +0.000 A 
ATOM      8  C   UNL     1      -1.090  10.898  23.119  0.00  0.00    +0.000 A 
ATOM      9  C   UNL     1      -2.243  11.642  23.391  0.00  0.00    +0.000 A 
ATOM     10  C   UNL     1      -2.816  12.454  22.405  0.00  0.00    +0.000 A 
ATOM     11  C   UNL     1      -2.222  12.482  21.131  0.00  0.00    +0.000 A 
ATOM     12  C   UNL     1      -1.062  11.748  20.863  0.00  0.00    +0.000 A 
ATOM     13 BR   UNL     1      -0.367  11.786  19.095  0.00  0.00    +0.000 Br
BRANCH  10  14
ATOM     14  C   UNL     1      -4.055  13.275  22.708  0.00  0.00    +0.000 C 
ATOM     15  C   UNL     1      -4.681  12.905  24.079  0.00  0.00    +0.000 C 
ATOM     16  N   UNL     1      -5.947  13.625  24.347  0.00  0.00    +0.000 NA
ATOM     17  C   UNL     1      -6.856  13.399  23.208  0.00  0.00    +0.000 C 
ATOM     18  C   UNL     1      -6.216  13.789  21.870  0.00  0.00    +0.000 C 
ATOM     19  O   UNL     1      -5.002  13.070  21.642  0.00  0.00    +0.000 OA
ATOM     20  H   UNL     1      -5.746  14.623  24.409  0.00  0.00    +0.000 HD
ENDBRANCH  10  14
ENDBRANCH   4   7
BRANCH   1  25
ATOM     21  C   UNL     1       1.971   4.627  20.465  0.00  0.00    +0.000 A 
ATOM     22  C   UNL     1       2.454   4.474  19.172  0.00  0.00    +0.000 A 
ATOM     23  C   UNL     1       2.770   5.597  18.411  0.00  0.00    +0.000 A 
ATOM     24  C   UNL     1       2.629   6.890  18.938  0.00  0.00    +0.000 A 
ATOM     25  C   UNL     1       2.058   7.063  20.222  0.00  0.00    +0.000 A 
ATOM     26  C   UNL     1       1.761   5.915  20.985  0.00  0.00    +0.000 A 
BRANCH  21  28
ATOM     27  N   UNL     1       1.474   2.496  21.863  0.00  0.00    +0.000 NA
ATOM     28  C   UNL     1       1.692   3.462  21.249  0.00  0.00    +0.000 C 
ENDBRANCH  21  28
BRANCH  24  29
ATOM     29  O   UNL     1       3.071   7.990  18.257  0.00  0.00    +0.000 OA
BRANCH  29  30
ATOM     30  C   UNL     1       2.137   8.658  17.428  0.00  0.00    +0.000 C 
ATOM     31  F   UNL     1       0.880   8.253  17.741  0.00  0.00    +0.000 F 
ATOM     32  F   UNL     1       2.201   9.984  17.704  0.00  0.00    +0.000 F 
ENDBRANCH  29  30
ENDBRANCH  24  29
ENDBRANCH   1  25
TORSDOF 6
ENDMDL
MODEL 6
REMARK VINA RESULT:      -7.5      3.468      9.479
REMARK  Name = 
REMARK  6 active torsions:
REMARK  status: ('A' for Active; 'I' for Inactive)
REMARK    1  A    between atoms: C_2  and  C_3
REMARK    2  A    between atoms: C_6  and  O_7
REMARK    3  A    between atoms: O_7  and  C_8
REMARK    4  A    between atoms: C_11  and  N_12
REMARK    5  A    between atoms: N_15  and  C_16
REMARK    6  A    between atoms: C_19  and  C_20
REMARK                            x       y       z     vdW  Elec       q    Type
REMARK                         _______ _______ _______ _____ _____    ______ ____
ROOT
ATOM      1  N   UNL     1      -1.435  11.962  19.755  0.00  0.00    +0.000 N 
ATOM      2  C   UNL     1      -0.909  10.735  19.388  0.00  0.00    +0.000 C 
ATOM      3  O   UNL     1      -1.555   9.757  19.037  0.00  0.00    +0.000 OA
ATOM      4  N   UNL     1       0.484  10.748  19.443  0.00  0.00    +0.000 N 
ATOM      5  H   UNL     1      -0.826  12.740  19.545  0.00  0.00    +0.000 HD
ATOM      6  H   UNL     1       0.868  11.317  20.187  0.00  0.00    +0.000 HD
ENDROOT
BRANCH   4   7
ATOM      7  C   UNL     1       1.224   9.571  19.149  0.00  0.00    +0.000 A 
ATOM      8  C   UNL     1       1.704   9.331  17.856  0.00  0.00    +0.000 A 
ATOM      9  C   UNL     1       2.420   8.165  17.561  0.00  0.00    +0.000 A 
ATOM     10  C   UNL     1       2.677   7.216  18.558  0.00  0.00    +0.000 A 
ATOM     11  C   UNL     1       2.176   7.451  19.851  0.00  0.00    +0.000 A 
ATOM     12  C   UNL     1       1.472   8.622  20.148  0.00  0.00    +0.000 A 
ATOM     13 BR   UNL     1       0.768   8.823  21.901  0.00  0.00    +0.000 Br
BRANCH  10  14
ATOM     14  C   UNL     1       3.470   5.963  18.242  0.00  0.00    +0.000 C 
ATOM     15  C   UNL     1       2.553   4.770  17.863  0.00  0.00    +0.000 C 
ATOM     16  N   UNL     1       3.304   3.512  17.649  0.00  0.00    +0.000 NA
ATOM     17  C   UNL     1       4.131   3.259  18.843  0.00  0.00    +0.000 C 
ATOM     18  C   UNL     1       5.038   4.448  19.183  0.00  0.00    +0.000 C 
ATOM     19  O   UNL     1       4.279   5.642  19.390  0.00  0.00    +0.000 OA
ATOM     20  H   UNL     1       3.922   3.635  16.847  0.00  0.00    +0.000 HD
ENDBRANCH  10  14
ENDBRANCH   4   7
BRANCH   1  25
ATOM     21  C   UNL     1      -4.503  12.836  21.651  0.00  0.00    +0.000 A 
ATOM     22  C   UNL     1      -5.472  12.910  20.658  0.00  0.00    +0.000 A 
ATOM     23  C   UNL     1      -5.133  12.634  19.336  0.00  0.00    +0.000 A 
ATOM     24  C   UNL     1      -3.826  12.259  18.987  0.00  0.00    +0.000 A 
ATOM     25  C   UNL     1      -2.811  12.263  19.974  0.00  0.00    +0.000 A 
ATOM     26  C   UNL     1      -3.175  12.526  21.310  0.00  0.00    +0.000 A 
BRANCH  21  28
ATOM     27  N   UNL     1      -5.170  13.308  24.116  0.00  0.00    +0.000 NA
ATOM     28  C   UNL     1      -4.876  13.080  23.011  0.00  0.00    +0.000 C 
ENDBRANCH  21  28
BRANCH  24  29
ATOM     29  O   UNL     1      -3.516  11.846  17.721  0.00  0.00    +0.000 OA
BRANCH  29  30
ATOM     30  C   UNL     1      -4.348  10.858  17.140  0.00  0.00    +0.000 C 
ATOM     31  F   UNL     1      -3.818  10.454  15.958  0.00  0.00    +0.000 F 
ATOM     32  F   UNL     1      -4.353   9.776  17.956  0.00  0.00    +0.000 F 
ENDBRANCH  29  30
ENDBRANCH  24  29
ENDBRANCH   1  25
TORSDOF 6
ENDMDL
MODEL 7
REMARK VINA RESULT:      -7.5      2.066      2.369
REMARK  Name = 
REMARK  6 active torsions:
REMARK  status: ('A' for Active; 'I' for Inactive)
REMARK    1  A    between atoms: C_2  and  C_3
REMARK    2  A    between atoms: C_6  and  O_7
REMARK    3  A    between atoms: O_7  and  C_8
REMARK    4  A    between atoms: C_11  and  N_12
REMARK    5  A    between atoms: N_15  and  C_16
REMARK    6  A    between atoms: C_19  and  C_20
REMARK                            x       y       z     vdW  Elec       q    Type
REMARK                         _______ _______ _______ _____ _____    ______ ____
ROOT
ATOM      1  N   UNL     1       2.678   7.910  17.802  0.00  0.00    +0.000 N 
ATOM      2  C   UNL     1       1.901   8.492  18.790  0.00  0.00    +0.000 C 
ATOM      3  O   UNL     1       1.644   7.998  19.880  0.00  0.00    +0.000 OA
ATOM      4  N   UNL     1       1.453   9.752  18.400  0.00  0.00    +0.000 N 
ATOM      5  H   UNL     1       3.172   8.581  17.231  0.00  0.00    +0.000 HD
ATOM      6  H   UNL     1       1.250   9.837  17.412  0.00  0.00    +0.000 HD
ENDROOT
BRANCH   4   7
ATOM      7  C   UNL     1       0.599  10.505  19.252  0.00  0.00    +0.000 A 
ATOM      8  C   UNL     1       1.082  11.052  20.447  0.00  0.00    +0.000 A 
ATOM      9  C   UNL     1       0.239  11.780  21.294  0.00  0.00    +0.000 A 
ATOM     10  C   UNL     1      -1.106  11.981  20.959  0.00  0.00    +0.000 A 
ATOM     11  C   UNL     1      -1.592  11.413  19.769  0.00  0.00    +0.000 A 
ATOM     12  C   UNL     1      -0.745  10.697  18.916  0.00  0.00    +0.000 A 
ATOM     13 BR   UNL     1      -1.502   9.901  17.366  0.00  0.00    +0.000 Br
BRANCH  10  14
ATOM     14  C   UNL     1      -2.013  12.788  21.869  0.00  0.00    +0.000 C 
ATOM     15  C   UNL     1      -2.460  11.979  23.116  0.00  0.00    +0.000 C 
ATOM     16  N   UNL     1      -3.426  12.715  23.963  0.00  0.00    +0.000 NA
ATOM     17  C   UNL     1      -4.550  13.148  23.112  0.00  0.00    +0.000 C 
ATOM     18  C   UNL     1      -4.079  13.958  21.898  0.00  0.00    +0.000 C 
ATOM     19  O   UNL     1      -3.155  13.214  21.100  0.00  0.00    +0.000 OA
ATOM     20  H   UNL     1      -2.964  13.544  24.337  0.00  0.00    +0.000 HD
ENDBRANCH  10  14
ENDBRANCH   4   7
BRANCH   1  25
ATOM     21  C   UNL     1       2.553   4.207  18.015  0.00  0.00    +0.000 A 
ATOM     22  C   UNL     1       3.869   3.837  17.769  0.00  0.00    +0.000 A 
ATOM     23  C   UNL     1       4.838   4.815  17.561  0.00  0.00    +0.000 A 
ATOM     24  C   UNL     1       4.513   6.179  17.618  0.00  0.00    +0.000 A 
ATOM     25  C   UNL     1       3.162   6.569  17.784  0.00  0.00    +0.000 A 
ATOM     26  C   UNL     1       2.197   5.567  18.011  0.00  0.00    +0.000 A 
BRANCH  21  28
ATOM     27  N   UNL     1       0.785   2.370  18.508  0.00  0.00    +0.000 NA
ATOM     28  C   UNL     1       1.577   3.191  18.270  0.00  0.00    +0.000 C 
ENDBRANCH  21  28
BRANCH  24  29
ATOM     29  O   UNL     1       5.478   7.146  17.561  0.00  0.00    +0.000 OA
BRANCH  29  30
ATOM     30  C   UNL     1       6.827   6.714  17.540  0.00  0.00    +0.000 C 
ATOM     31  F   UNL     1       7.625   7.734  17.135  0.00  0.00    +0.000 F 
ATOM     32  F   UNL     1       7.193   6.411  18.810  0.00  0.00    +0.000 F 
ENDBRANCH  29  30
ENDBRANCH  24  29
ENDBRANCH   1  25
TORSDOF 6
ENDMDL
MODEL 8
REMARK VINA RESULT:      -7.5      3.201      4.519
REMARK  Name = 
REMARK  6 active torsions:
REMARK  status: ('A' for Active; 'I' for Inactive)
REMARK    1  A    between atoms: C_2  and  C_3
REMARK    2  A    between atoms: C_6  and  O_7
REMARK    3  A    between atoms: O_7  and  C_8
REMARK    4  A    between atoms: C_11  and  N_12
REMARK    5  A    between atoms: N_15  and  C_16
REMARK    6  A    between atoms: C_19  and  C_20
REMARK                            x       y       z     vdW  Elec       q    Type
REMARK                         _______ _______ _______ _____ _____    ______ ____
ROOT
ATOM      1  N   UNL     1       3.436   6.548  18.996  0.00  0.00    +0.000 N 
ATOM      2  C   UNL     1       2.273   7.246  18.712  0.00  0.00    +0.000 C 
ATOM      3  O   UNL     1       1.450   6.945  17.858  0.00  0.00    +0.000 OA
ATOM      4  N   UNL     1       2.130   8.348  19.553  0.00  0.00    +0.000 N 
ATOM      5  H   UNL     1       3.721   6.617  19.962  0.00  0.00    +0.000 HD
ATOM      6  H   UNL     1       3.001   8.799  19.803  0.00  0.00    +0.000 HD
ENDROOT
BRANCH   4   7
ATOM      7  C   UNL     1       1.025   9.228  19.400  0.00  0.00    +0.000 A 
ATOM      8  C   UNL     1       0.630   9.668  18.130  0.00  0.00    +0.000 A 
ATOM      9  C   UNL     1      -0.449  10.547  17.979  0.00  0.00    +0.000 A 
ATOM     10  C   UNL     1      -1.159  11.000  19.097  0.00  0.00    +0.000 A 
ATOM     11  C   UNL     1      -0.747  10.573  20.371  0.00  0.00    +0.000 A 
ATOM     12  C   UNL     1       0.323   9.685  20.521  0.00  0.00    +0.000 A 
ATOM     13 BR   UNL     1       0.860   9.218  22.282  0.00  0.00    +0.000 Br
BRANCH  10  14
ATOM     14  C   UNL     1      -2.341  11.937  18.930  0.00  0.00    +0.000 C 
ATOM     15  C   UNL     1      -2.712  12.654  20.256  0.00  0.00    +0.000 C 
ATOM     16  N   UNL     1      -3.925  13.495  20.136  0.00  0.00    +0.000 NA
ATOM     17  C   UNL     1      -5.014  12.660  19.597  0.00  0.00    +0.000 C 
ATOM     18  C   UNL     1      -4.623  11.978  18.279  0.00  0.00    +0.000 C 
ATOM     19  O   UNL     1      -3.455  11.170  18.435  0.00  0.00    +0.000 OA
ATOM     20  H   UNL     1      -3.733  14.247  19.473  0.00  0.00    +0.000 HD
ENDBRANCH  10  14
ENDBRANCH   4   7
BRANCH   1  25
ATOM     21  C   UNL     1       5.585   4.863  16.484  0.00  0.00    +0.000 A 
ATOM     22  C   UNL     1       5.246   3.525  16.631  0.00  0.00    +0.000 A 
ATOM     23  C   UNL     1       4.264   3.155  17.547  0.00  0.00    +0.000 A 
ATOM     24  C   UNL     1       3.591   4.118  18.315  0.00  0.00    +0.000 A 
ATOM     25  C   UNL     1       3.987   5.475  18.236  0.00  0.00    +0.000 A 
ATOM     26  C   UNL     1       4.968   5.834  17.290  0.00  0.00    +0.000 A 
BRANCH  21  28
ATOM     27  N   UNL     1       7.381   5.543  14.735  0.00  0.00    +0.000 NA
ATOM     28  C   UNL     1       6.565   5.232  15.507  0.00  0.00    +0.000 C 
ENDBRANCH  21  28
BRANCH  24  29
ATOM     29  O   UNL     1       2.529   3.783  19.108  0.00  0.00    +0.000 OA
BRANCH  29  30
ATOM     30  C   UNL     1       1.314   3.456  18.460  0.00  0.00    +0.000 C 
ATOM     31  F   UNL     1       1.283   4.033  17.232  0.00  0.00    +0.000 F 
ATOM     32  F   UNL     1       1.288   2.115  18.262  0.00  0.00    +0.000 F 
ENDBRANCH  29  30
ENDBRANCH  24  29
ENDBRANCH   1  25
TORSDOF 6
ENDMDL
MODEL 9
REMARK VINA RESULT:      -7.5      2.560      3.532
REMARK  Name = 
REMARK  6 active torsions:
REMARK  status: ('A' for Active; 'I' for Inactive)
REMARK    1  A    between atoms: C_2  and  C_3
REMARK    2  A    between atoms: C_6  and  O_7
REMARK    3  A    between atoms: O_7  and  C_8
REMARK    4  A    between atoms: C_11  and  N_12
REMARK    5  A    between atoms: N_15  and  C_16
REMARK    6  A    between atoms: C_19  and  C_20
REMARK                            x       y       z     vdW  Elec       q    Type
REMARK                         _______ _______ _______ _____ _____    ______ ____
ROOT
ATOM      1  N   UNL     1       2.614   6.842  20.447  0.00  0.00    +0.000 N 
ATOM      2  C   UNL     1       1.508   7.658  20.616  0.00  0.00    +0.000 C 
ATOM      3  O   UNL     1       0.451   7.563  20.007  0.00  0.00    +0.000 OA
ATOM      4  N   UNL     1       1.733   8.612  21.606  0.00  0.00    +0.000 N 
ATOM      5  H   UNL     1       3.163   6.728  21.287  0.00  0.00    +0.000 HD
ATOM      6  H   UNL     1       2.686   8.952  21.651  0.00  0.00    +0.000 HD
ENDROOT
BRANCH   4   7
ATOM      7  C   UNL     1       0.739   9.582  21.907  0.00  0.00    +0.000 A 
ATOM      8  C   UNL     1      -0.073   9.447  23.041  0.00  0.00    +0.000 A 
ATOM      9  C   UNL     1      -1.063  10.392  23.330  0.00  0.00    +0.000 A 
ATOM     10  C   UNL     1      -1.258  11.498  22.493  0.00  0.00    +0.000 A 
ATOM     11  C   UNL     1      -0.455  11.620  21.346  0.00  0.00    +0.000 A 
ATOM     12  C   UNL     1       0.543  10.681  21.064  0.00  0.00    +0.000 A 
ATOM     13 BR   UNL     1       1.532  10.881  19.454  0.00  0.00    +0.000 Br
BRANCH  10  14
ATOM     14  C   UNL     1      -2.318  12.533  22.819  0.00  0.00    +0.000 C 
ATOM     15  C   UNL     1      -1.709  13.820  23.437  0.00  0.00    +0.000 C 
ATOM     16  N   UNL     1      -2.738  14.800  23.856  0.00  0.00    +0.000 NA
ATOM     17  C   UNL     1      -3.691  14.116  24.748  0.00  0.00    +0.000 C 
ATOM     18  C   UNL     1      -4.287  12.858  24.104  0.00  0.00    +0.000 C 
ATOM     19  O   UNL     1      -3.268  11.932  23.721  0.00  0.00    +0.000 OA
ATOM     20  H   UNL     1      -3.240  15.117  23.026  0.00  0.00    +0.000 HD
ENDBRANCH  10  14
ENDBRANCH   4   7
BRANCH   1  25
ATOM     21  C   UNL     1       3.996   5.351  17.342  0.00  0.00    +0.000 A 
ATOM     22  C   UNL     1       3.372   4.112  17.287  0.00  0.00    +0.000 A 
ATOM     23  C   UNL     1       2.446   3.757  18.266  0.00  0.00    +0.000 A 
ATOM     24  C   UNL     1       2.114   4.644  19.302  0.00  0.00    +0.000 A 
ATOM     25  C   UNL     1       2.804   5.874  19.417  0.00  0.00    +0.000 A 
ATOM     26  C   UNL     1       3.724   6.225  18.409  0.00  0.00    +0.000 A 
BRANCH  21  28
ATOM     27  N   UNL     1       5.683   6.012  15.481  0.00  0.00    +0.000 NA
ATOM     28  C   UNL     1       4.912   5.718  16.305  0.00  0.00    +0.000 C 
ENDBRANCH  21  28
BRANCH  24  29
ATOM     29  O   UNL     1       1.104   4.366  20.181  0.00  0.00    +0.000 OA
BRANCH  29  30
ATOM     30  C   UNL     1       1.344   3.358  21.147  0.00  0.00    +0.000 C 
ATOM     31  F   UNL     1       1.456   2.154  20.530  0.00  0.00    +0.000 F 
ATOM     32  F   UNL     1       2.541   3.610  21.732  0.00  0.00    +0.000 F 
ENDBRANCH  29  30
ENDBRANCH  24  29
ENDBRANCH   1  25
TORSDOF 6
ENDMDL
