MODEL 1
REMARK VINA RESULT:      -7.3      0.000      0.000
REMARK  Name = 
REMARK  6 active torsions:
REMARK  status: ('A' for Active; 'I' for Inactive)
REMARK    1  A    between atoms: C_2  and  C_3
REMARK    2  A    between atoms: C_6  and  N_7
REMARK    3  A    between atoms: C_8  and  C_10
REMARK    4  A    between atoms: C_14  and  C_15
REMARK    5  A    between atoms: N_17  and  C_18
REMARK    6  A    between atoms: C_21  and  C_22
REMARK                            x       y       z     vdW  Elec       q    Type
REMARK                         _______ _______ _______ _____ _____    ______ ____
ROOT
ATOM      1  C   UNL     1      -0.133  11.691  19.840  0.00  0.00    +0.000 A 
ATOM      2  C   UNL     1       0.532  12.827  19.387  0.00  0.00    +0.000 A 
ATOM      3  C   UNL     1       1.653  12.644  18.581  0.00  0.00    +0.000 A 
ATOM      4  N   UNL     1       2.141  11.435  18.205  0.00  0.00    +0.000 NA
ATOM      5  C   UNL     1       1.460  10.348  18.653  0.00  0.00    +0.000 A 
ATOM      6  C   UNL     1       0.336  10.431  19.459  0.00  0.00    +0.000 A 
ENDROOT
BRANCH   1   8
ATOM      7  N   UNL     1      -2.349  12.538  20.522  0.00  0.00    +0.000 N 
ATOM      8  C   UNL     1      -1.266  11.720  20.807  0.00  0.00    +0.000 C 
ATOM      9  O   UNL     1      -1.169  10.977  21.779  0.00  0.00    +0.000 OA
ATOM     10  H   UNL     1      -2.409  12.948  19.598  0.00  0.00    +0.000 HD
BRANCH   7  14
ATOM     11  C   UNL     1      -5.796  12.975  22.962  0.00  0.00    +0.000 A 
ATOM     12  C   UNL     1      -4.528  13.050  23.538  0.00  0.00    +0.000 A 
ATOM     13  C   UNL     1      -3.385  12.918  22.741  0.00  0.00    +0.000 A 
ATOM     14  C   UNL     1      -3.482  12.701  21.362  0.00  0.00    +0.000 A 
ATOM     15  C   UNL     1      -4.756  12.648  20.787  0.00  0.00    +0.000 A 
ATOM     16  C   UNL     1      -5.907  12.775  21.582  0.00  0.00    +0.000 A 
BRANCH  11  18
ATOM     17  N   UNL     1      -7.916  13.201  24.445  0.00  0.00    +0.000 NA
ATOM     18  C   UNL     1      -6.967  13.103  23.781  0.00  0.00    +0.000 C 
ENDBRANCH  11  18
ENDBRANCH   7  14
ENDBRANCH   1   8
BRANCH   5  19
ATOM     19  C   UNL     1       1.970   8.990  18.275  0.00  0.00    +0.000 C 
ATOM     20  O   UNL     1       2.226   8.768  17.097  0.00  0.00    +0.000 OA
ATOM     21  N   UNL     1       2.058   8.078  19.316  0.00  0.00    +0.000 N 
ATOM     22  H   UNL     1       1.688   8.400  20.206  0.00  0.00    +0.000 HD
BRANCH  21  23
ATOM     23  C   UNL     1       2.435   6.722  19.189  0.00  0.00    +0.000 A 
ATOM     24  C   UNL     1       3.125   6.224  18.078  0.00  0.00    +0.000 A 
ATOM     25  C   UNL     1       3.387   4.857  17.946  0.00  0.00    +0.000 A 
ATOM     26  C   UNL     1       2.967   3.965  18.932  0.00  0.00    +0.000 A 
ATOM     27  C   UNL     1       2.329   4.458  20.075  0.00  0.00    +0.000 A 
ATOM     28  C   UNL     1       2.077   5.832  20.208  0.00  0.00    +0.000 A 
BRANCH  26  29
ATOM     29  C   UNL     1       3.169   2.557  18.756  0.00  0.00    +0.000 C 
ATOM     30  N   UNL     1       3.346   1.417  18.624  0.00  0.00    +0.000 NA
ENDBRANCH  26  29
ENDBRANCH  21  23
ENDBRANCH   5  19
TORSDOF 6
ENDMDL
MODEL 2
REMARK VINA RESULT:      -7.2      1.069      1.430
REMARK  Name = 
REMARK  6 active torsions:
REMARK  status: ('A' for Active; 'I' for Inactive)
REMARK    1  A    between atoms: C_2  and  C_3
REMARK    2  A    between atoms: C_6  and  N_7
REMARK    3  A    between atoms: C_8  and  C_10
REMARK    4  A    between atoms: C_14  and  C_15
REMARK    5  A    between atoms: N_17  and  C_18
REMARK    6  A    between atoms: C_21  and  C_22
REMARK                            x       y       z     vdW  Elec       q    Type
REMARK                         _______ _______ _______ _____ _____    ______ ____
ROOT
ATOM      1  C   UNL     1      -0.194  12.878  19.618  0.00  0.00    +0.000 A 
ATOM      2  C   UNL     1       0.844  13.730  19.251  0.00  0.00    +0.000 A 
ATOM      3  C   UNL     1       1.947  13.170  18.612  0.00  0.00    +0.000 A 
ATOM      4  N   UNL     1       2.081  11.852  18.321  0.00  0.00    +0.000 NA
ATOM      5  C   UNL     1       1.045  11.051  18.680  0.00  0.00    +0.000 A 
ATOM      6  C   UNL     1      -0.093  11.516  19.320  0.00  0.00    +0.000 A 
ENDROOT
BRANCH   1   8
ATOM      7  N   UNL     1      -2.147  12.320  21.019  0.00  0.00    +0.000 N 
ATOM      8  C   UNL     1      -1.377  13.303  20.416  0.00  0.00    +0.000 C 
ATOM      9  O   UNL     1      -1.562  14.513  20.510  0.00  0.00    +0.000 OA
ATOM     10  H   UNL     1      -1.785  11.375  21.041  0.00  0.00    +0.000 HD
BRANCH   7  14
ATOM     11  C   UNL     1      -5.718  13.019  23.207  0.00  0.00    +0.000 A 
ATOM     12  C   UNL     1      -4.504  12.910  23.884  0.00  0.00    +0.000 A 
ATOM     13  C   UNL     1      -3.319  12.689  23.172  0.00  0.00    +0.000 A 
ATOM     14  C   UNL     1      -3.322  12.566  21.778  0.00  0.00    +0.000 A 
ATOM     15  C   UNL     1      -4.540  12.699  21.102  0.00  0.00    +0.000 A 
ATOM     16  C   UNL     1      -5.732  12.915  21.813  0.00  0.00    +0.000 A 
BRANCH  11  18
ATOM     17  N   UNL     1      -7.916  13.408  24.533  0.00  0.00    +0.000 NA
ATOM     18  C   UNL     1      -6.933  13.237  23.939  0.00  0.00    +0.000 C 
ENDBRANCH  11  18
ENDBRANCH   7  14
ENDBRANCH   1   8
BRANCH   5  19
ATOM     19  C   UNL     1       1.153   9.583  18.392  0.00  0.00    +0.000 C 
ATOM     20  O   UNL     1       0.425   9.101  17.532  0.00  0.00    +0.000 OA
ATOM     21  N   UNL     1       2.057   8.888  19.182  0.00  0.00    +0.000 N 
ATOM     22  H   UNL     1       2.486   9.430  19.927  0.00  0.00    +0.000 HD
BRANCH  21  23
ATOM     23  C   UNL     1       2.273   7.492  19.147  0.00  0.00    +0.000 A 
ATOM     24  C   UNL     1       1.853   6.631  20.167  0.00  0.00    +0.000 A 
ATOM     25  C   UNL     1       2.178   5.271  20.142  0.00  0.00    +0.000 A 
ATOM     26  C   UNL     1       2.925   4.750  19.087  0.00  0.00    +0.000 A 
ATOM     27  C   UNL     1       3.299   5.588  18.032  0.00  0.00    +0.000 A 
ATOM     28  C   UNL     1       2.962   6.951  18.056  0.00  0.00    +0.000 A 
BRANCH  26  29
ATOM     29  C   UNL     1       3.322   3.373  19.102  0.00  0.00    +0.000 C 
ATOM     30  N   UNL     1       3.632   2.254  19.128  0.00  0.00    +0.000 NA
ENDBRANCH  26  29
ENDBRANCH  21  23
ENDBRANCH   5  19
TORSDOF 6
ENDMDL
MODEL 3
REMARK VINA RESULT:      -7.1      2.581      3.308
REMARK  Name = 
REMARK  6 active torsions:
REMARK  status: ('A' for Active; 'I' for Inactive)
REMARK    1  A    between atoms: C_2  and  C_3
REMARK    2  A    between atoms: C_6  and  N_7
REMARK    3  A    between atoms: C_8  and  C_10
REMARK    4  A    between atoms: C_14  and  C_15
REMARK    5  A    between atoms: N_17  and  C_18
REMARK    6  A    between atoms: C_21  and  C_22
REMARK                            x       y       z     vdW  Elec       q    Type
REMARK                         _______ _______ _______ _____ _____    ______ ____
ROOT
ATOM      1  C   UNL     1      -0.224  10.342  20.405  0.00  0.00    +0.000 A 
ATOM      2  C   UNL     1      -0.138   9.731  21.652  0.00  0.00    +0.000 A 
ATOM      3  C   UNL     1       0.731   8.652  21.788  0.00  0.00    +0.000 A 
ATOM      4  N   UNL     1       1.501   8.155  20.788  0.00  0.00    +0.000 NA
ATOM      5  C   UNL     1       1.404   8.782  19.587  0.00  0.00    +0.000 A 
ATOM      6  C   UNL     1       0.566   9.863  19.357  0.00  0.00    +0.000 A 
ENDROOT
BRANCH   1   8
ATOM      7  N   UNL     1      -1.853  12.055  21.114  0.00  0.00    +0.000 N 
ATOM      8  C   UNL     1      -1.196  11.421  20.071  0.00  0.00    +0.000 C 
ATOM      9  O   UNL     1      -1.314  11.696  18.881  0.00  0.00    +0.000 OA
ATOM     10  H   UNL     1      -1.528  11.887  22.058  0.00  0.00    +0.000 HD
BRANCH   7  14
ATOM     11  C   UNL     1      -4.700  15.165  20.617  0.00  0.00    +0.000 A 
ATOM     12  C   UNL     1      -5.092  13.838  20.451  0.00  0.00    +0.000 A 
ATOM     13  C   UNL     1      -4.164  12.804  20.622  0.00  0.00    +0.000 A 
ATOM     14  C   UNL     1      -2.830  13.072  20.954  0.00  0.00    +0.000 A 
ATOM     15  C   UNL     1      -2.449  14.405  21.141  0.00  0.00    +0.000 A 
ATOM     16  C   UNL     1      -3.375  15.447  20.965  0.00  0.00    +0.000 A 
BRANCH  11  18
ATOM     17  N   UNL     1      -6.423  17.079  20.281  0.00  0.00    +0.000 NA
ATOM     18  C   UNL     1      -5.651  16.225  20.434  0.00  0.00    +0.000 C 
ENDBRANCH  11  18
ENDBRANCH   7  14
ENDBRANCH   1   8
BRANCH   5  19
ATOM     19  C   UNL     1       2.226   8.259  18.448  0.00  0.00    +0.000 C 
ATOM     20  O   UNL     1       2.155   8.831  17.365  0.00  0.00    +0.000 OA
ATOM     21  N   UNL     1       2.968   7.121  18.724  0.00  0.00    +0.000 N 
ATOM     22  H   UNL     1       2.810   6.714  19.642  0.00  0.00    +0.000 HD
BRANCH  21  23
ATOM     23  C   UNL     1       3.753   6.406  17.791  0.00  0.00    +0.000 A 
ATOM     24  C   UNL     1       4.735   7.012  17.000  0.00  0.00    +0.000 A 
ATOM     25  C   UNL     1       5.417   6.288  16.017  0.00  0.00    +0.000 A 
ATOM     26  C   UNL     1       5.128   4.939  15.815  0.00  0.00    +0.000 A 
ATOM     27  C   UNL     1       4.191   4.308  16.639  0.00  0.00    +0.000 A 
ATOM     28  C   UNL     1       3.516   5.037  17.632  0.00  0.00    +0.000 A 
BRANCH  26  29
ATOM     29  C   UNL     1       5.772   4.220  14.756  0.00  0.00    +0.000 C 
ATOM     30  N   UNL     1       6.285   3.646  13.886  0.00  0.00    +0.000 NA
ENDBRANCH  26  29
ENDBRANCH  21  23
ENDBRANCH   5  19
TORSDOF 6
ENDMDL
MODEL 4
REMARK VINA RESULT:      -7.1      0.804     10.186
REMARK  Name = 
REMARK  6 active torsions:
REMARK  status: ('A' for Active; 'I' for Inactive)
REMARK    1  A    between atoms: C_2  and  C_3
REMARK    2  A    between atoms: C_6  and  N_7
REMARK    3  A    between atoms: C_8  and  C_10
REMARK    4  A    between atoms: C_14  and  C_15
REMARK    5  A    between atoms: N_17  and  C_18
REMARK    6  A    between atoms: C_21  and  C_22
REMARK                            x       y       z     vdW  Elec       q    Type
REMARK                         _______ _______ _______ _____ _____    ______ ____
ROOT
ATOM      1  C   UNL     1       1.420   9.933  19.141  0.00  0.00    +0.000 A 
ATOM      2  C   UNL     1       1.972  11.049  18.520  0.00  0.00    +0.000 A 
ATOM      3  C   UNL     1       1.471  12.300  18.869  0.00  0.00    +0.000 A 
ATOM      4  N   UNL     1       0.481  12.507  19.773  0.00  0.00    +0.000 NA
ATOM      5  C   UNL     1      -0.026  11.399  20.371  0.00  0.00    +0.000 A 
ATOM      6  C   UNL     1       0.408  10.113  20.088  0.00  0.00    +0.000 A 
ENDROOT
BRANCH   1   8
ATOM      7  N   UNL     1       2.070   7.648  19.811  0.00  0.00    +0.000 N 
ATOM      8  C   UNL     1       1.760   8.527  18.784  0.00  0.00    +0.000 C 
ATOM      9  O   UNL     1       1.703   8.241  17.592  0.00  0.00    +0.000 OA
ATOM     10  H   UNL     1       1.888   7.940  20.763  0.00  0.00    +0.000 HD
BRANCH   7  14
ATOM     11  C   UNL     1       3.305   3.626  19.244  0.00  0.00    +0.000 A 
ATOM     12  C   UNL     1       2.116   3.894  19.921  0.00  0.00    +0.000 A 
ATOM     13  C   UNL     1       1.694   5.216  20.105  0.00  0.00    +0.000 A 
ATOM     14  C   UNL     1       2.450   6.293  19.627  0.00  0.00    +0.000 A 
ATOM     15  C   UNL     1       3.631   6.016  18.928  0.00  0.00    +0.000 A 
ATOM     16  C   UNL     1       4.060   4.691  18.745  0.00  0.00    +0.000 A 
BRANCH  11  18
ATOM     17  N   UNL     1       4.091   1.173  18.909  0.00  0.00    +0.000 NA
ATOM     18  C   UNL     1       3.739   2.270  19.063  0.00  0.00    +0.000 C 
ENDBRANCH  11  18
ENDBRANCH   7  14
ENDBRANCH   1   8
BRANCH   5  19
ATOM     19  C   UNL     1      -1.132  11.576  21.367  0.00  0.00    +0.000 C 
ATOM     20  O   UNL     1      -1.136  10.869  22.369  0.00  0.00    +0.000 OA
ATOM     21  N   UNL     1      -2.094  12.515  21.026  0.00  0.00    +0.000 N 
ATOM     22  H   UNL     1      -1.994  12.920  20.099  0.00  0.00    +0.000 HD
BRANCH  21  23
ATOM     23  C   UNL     1      -3.264  12.798  21.766  0.00  0.00    +0.000 A 
ATOM     24  C   UNL     1      -3.252  13.058  23.141  0.00  0.00    +0.000 A 
ATOM     25  C   UNL     1      -4.442  13.231  23.853  0.00  0.00    +0.000 A 
ATOM     26  C   UNL     1      -5.669  13.152  23.195  0.00  0.00    +0.000 A 
ATOM     27  C   UNL     1      -5.692  12.951  21.811  0.00  0.00    +0.000 A 
ATOM     28  C   UNL     1      -4.494  12.789  21.099  0.00  0.00    +0.000 A 
BRANCH  26  29
ATOM     29  C   UNL     1      -6.889  13.252  23.941  0.00  0.00    +0.000 C 
ATOM     30  N   UNL     1      -7.873  13.319  24.553  0.00  0.00    +0.000 NA
ENDBRANCH  26  29
ENDBRANCH  21  23
ENDBRANCH   5  19
TORSDOF 6
ENDMDL
MODEL 5
REMARK VINA RESULT:      -7.1      1.191      9.778
REMARK  Name = 
REMARK  6 active torsions:
REMARK  status: ('A' for Active; 'I' for Inactive)
REMARK    1  A    between atoms: C_2  and  C_3
REMARK    2  A    between atoms: C_6  and  N_7
REMARK    3  A    between atoms: C_8  and  C_10
REMARK    4  A    between atoms: C_14  and  C_15
REMARK    5  A    between atoms: N_17  and  C_18
REMARK    6  A    between atoms: C_21  and  C_22
REMARK                            x       y       z     vdW  Elec       q    Type
REMARK                         _______ _______ _______ _____ _____    ______ ____
ROOT
ATOM      1  C   UNL     1       1.209  11.129  19.065  0.00  0.00    +0.000 A 
ATOM      2  C   UNL     1       2.148  12.079  18.676  0.00  0.00    +0.000 A 
ATOM      3  C   UNL     1       1.862  13.417  18.932  0.00  0.00    +0.000 A 
ATOM      4  N   UNL     1       0.730  13.860  19.535  0.00  0.00    +0.000 NA
ATOM      5  C   UNL     1      -0.159  12.906  19.914  0.00  0.00    +0.000 A 
ATOM      6  C   UNL     1       0.039  11.551  19.702  0.00  0.00    +0.000 A 
ENDROOT
BRANCH   1   8
ATOM      7  N   UNL     1       1.938   8.851  19.671  0.00  0.00    +0.000 N 
ATOM      8  C   UNL     1       1.313   9.677  18.750  0.00  0.00    +0.000 C 
ATOM      9  O   UNL     1       0.797   9.312  17.698  0.00  0.00    +0.000 OA
ATOM     10  H   UNL     1       2.143   9.225  20.589  0.00  0.00    +0.000 HD
BRANCH   7  14
ATOM     11  C   UNL     1       2.638   4.705  19.078  0.00  0.00    +0.000 A 
ATOM     12  C   UNL     1       1.973   5.135  20.225  0.00  0.00    +0.000 A 
ATOM     13  C   UNL     1       1.727   6.499  20.426  0.00  0.00    +0.000 A 
ATOM     14  C   UNL     1       2.146   7.457  19.496  0.00  0.00    +0.000 A 
ATOM     15  C   UNL     1       2.793   7.016  18.336  0.00  0.00    +0.000 A 
ATOM     16  C   UNL     1       3.046   5.650  18.132  0.00  0.00    +0.000 A 
BRANCH  11  18
ATOM     17  N   UNL     1       3.099   2.176  18.709  0.00  0.00    +0.000 NA
ATOM     18  C   UNL     1       2.894   3.307  18.877  0.00  0.00    +0.000 C 
ENDBRANCH  11  18
ENDBRANCH   7  14
ENDBRANCH   1   8
BRANCH   5  19
ATOM     19  C   UNL     1      -1.432  13.348  20.573  0.00  0.00    +0.000 C 
ATOM     20  O   UNL     1      -1.624  14.549  20.727  0.00  0.00    +0.000 OA
ATOM     21  N   UNL     1      -2.267  12.326  20.997  0.00  0.00    +0.000 N 
ATOM     22  H   UNL     1      -1.890  11.388  20.894  0.00  0.00    +0.000 HD
BRANCH  21  23
ATOM     23  C   UNL     1      -3.476  12.496  21.709  0.00  0.00    +0.000 A 
ATOM     24  C   UNL     1      -4.711  12.683  21.078  0.00  0.00    +0.000 A 
ATOM     25  C   UNL     1      -5.866  12.950  21.819  0.00  0.00    +0.000 A 
ATOM     26  C   UNL     1      -5.802  13.028  23.210  0.00  0.00    +0.000 A 
ATOM     27  C   UNL     1      -4.585  12.785  23.855  0.00  0.00    +0.000 A 
ATOM     28  C   UNL     1      -3.430  12.507  23.107  0.00  0.00    +0.000 A 
BRANCH  26  29
ATOM     29  C   UNL     1      -6.971  13.379  23.962  0.00  0.00    +0.000 C 
ATOM     30  N   UNL     1      -7.916  13.649  24.580  0.00  0.00    +0.000 NA
ENDBRANCH  26  29
ENDBRANCH  21  23
ENDBRANCH   5  19
TORSDOF 6
ENDMDL
MODEL 6
REMARK VINA RESULT:      -7.0      1.107      9.716
REMARK  Name = 
REMARK  6 active torsions:
REMARK  status: ('A' for Active; 'I' for Inactive)
REMARK    1  A    between atoms: C_2  and  C_3
REMARK    2  A    between atoms: C_6  and  N_7
REMARK    3  A    between atoms: C_8  and  C_10
REMARK    4  A    between atoms: C_14  and  C_15
REMARK    5  A    between atoms: N_17  and  C_18
REMARK    6  A    between atoms: C_21  and  C_22
REMARK                            x       y       z     vdW  Elec       q    Type
REMARK                         _______ _______ _______ _____ _____    ______ ____
ROOT
ATOM      1  C   UNL     1       1.341  10.958  18.908  0.00  0.00    +0.000 A 
ATOM      2  C   UNL     1       2.146  11.894  18.265  0.00  0.00    +0.000 A 
ATOM      3  C   UNL     1       1.914  13.241  18.530  0.00  0.00    +0.000 A 
ATOM      4  N   UNL     1       0.959  13.705  19.374  0.00  0.00    +0.000 NA
ATOM      5  C   UNL     1       0.200  12.766  19.996  0.00  0.00    +0.000 A 
ATOM      6  C   UNL     1       0.356  11.404  19.794  0.00  0.00    +0.000 A 
ENDROOT
BRANCH   1   8
ATOM      7  N   UNL     1       1.911   8.661  19.607  0.00  0.00    +0.000 N 
ATOM      8  C   UNL     1       1.382   9.495  18.633  0.00  0.00    +0.000 C 
ATOM      9  O   UNL     1       0.902   9.130  17.564  0.00  0.00    +0.000 OA
ATOM     10  H   UNL     1       2.088   9.049  20.524  0.00  0.00    +0.000 HD
BRANCH   7  14
ATOM     11  C   UNL     1       2.259   4.442  19.289  0.00  0.00    +0.000 A 
ATOM     12  C   UNL     1       2.673   5.250  18.232  0.00  0.00    +0.000 A 
ATOM     13  C   UNL     1       2.572   6.642  18.329  0.00  0.00    +0.000 A 
ATOM     14  C   UNL     1       2.051   7.255  19.476  0.00  0.00    +0.000 A 
ATOM     15  C   UNL     1       1.658   6.439  20.542  0.00  0.00    +0.000 A 
ATOM     16  C   UNL     1       1.753   5.041  20.447  0.00  0.00    +0.000 A 
BRANCH  11  18
ATOM     17  N   UNL     1       2.433   1.857  19.106  0.00  0.00    +0.000 NA
ATOM     18  C   UNL     1       2.356   3.014  19.185  0.00  0.00    +0.000 C 
ENDBRANCH  11  18
ENDBRANCH   7  14
ENDBRANCH   1   8
BRANCH   5  19
ATOM     19  C   UNL     1      -0.878  13.232  20.927  0.00  0.00    +0.000 C 
ATOM     20  O   UNL     1      -0.604  14.094  21.756  0.00  0.00    +0.000 OA
ATOM     21  N   UNL     1      -2.101  12.592  20.788  0.00  0.00    +0.000 N 
ATOM     22  H   UNL     1      -2.111  11.817  20.130  0.00  0.00    +0.000 HD
BRANCH  21  23
ATOM     23  C   UNL     1      -3.236  12.805  21.602  0.00  0.00    +0.000 A 
ATOM     24  C   UNL     1      -3.234  12.588  22.984  0.00  0.00    +0.000 A 
ATOM     25  C   UNL     1      -4.407  12.712  23.735  0.00  0.00    +0.000 A 
ATOM     26  C   UNL     1      -5.603  13.065  23.111  0.00  0.00    +0.000 A 
ATOM     27  C   UNL     1      -5.605  13.343  21.741  0.00  0.00    +0.000 A 
ATOM     28  C   UNL     1      -4.423  13.226  20.992  0.00  0.00    +0.000 A 
BRANCH  26  29
ATOM     29  C   UNL     1      -6.818  13.116  23.870  0.00  0.00    +0.000 C 
ATOM     30  N   UNL     1      -7.809  13.145  24.475  0.00  0.00    +0.000 NA
ENDBRANCH  26  29
ENDBRANCH  21  23
ENDBRANCH   5  19
TORSDOF 6
ENDMDL
MODEL 7
REMARK VINA RESULT:      -7.0      1.052      1.429
REMARK  Name = 
REMARK  6 active torsions:
REMARK  status: ('A' for Active; 'I' for Inactive)
REMARK    1  A    between atoms: C_2  and  C_3
REMARK    2  A    between atoms: C_6  and  N_7
REMARK    3  A    between atoms: C_8  and  C_10
REMARK    4  A    between atoms: C_14  and  C_15
REMARK    5  A    between atoms: N_17  and  C_18
REMARK    6  A    between atoms: C_21  and  C_22
REMARK                            x       y       z     vdW  Elec       q    Type
REMARK                         _______ _______ _______ _____ _____    ______ ____
ROOT
ATOM      1  C   UNL     1       0.052  12.856  19.713  0.00  0.00    +0.000 A 
ATOM      2  C   UNL     1       1.023  13.760  19.295  0.00  0.00    +0.000 A 
ATOM      3  C   UNL     1       2.128  13.257  18.614  0.00  0.00    +0.000 A 
ATOM      4  N   UNL     1       2.324  11.945  18.329  0.00  0.00    +0.000 NA
ATOM      5  C   UNL     1       1.350  11.091  18.738  0.00  0.00    +0.000 A 
ATOM      6  C   UNL     1       0.216  11.499  19.423  0.00  0.00    +0.000 A 
ENDROOT
BRANCH   1   8
ATOM      7  N   UNL     1      -2.097  12.263  20.772  0.00  0.00    +0.000 N 
ATOM      8  C   UNL     1      -1.119  13.223  20.558  0.00  0.00    +0.000 C 
ATOM      9  O   UNL     1      -1.110  14.352  21.037  0.00  0.00    +0.000 OA
ATOM     10  H   UNL     1      -1.901  11.310  20.497  0.00  0.00    +0.000 HD
BRANCH   7  14
ATOM     11  C   UNL     1      -5.591  12.917  23.094  0.00  0.00    +0.000 A 
ATOM     12  C   UNL     1      -5.661  12.998  21.704  0.00  0.00    +0.000 A 
ATOM     13  C   UNL     1      -4.518  12.774  20.928  0.00  0.00    +0.000 A 
ATOM     14  C   UNL     1      -3.285  12.475  21.520  0.00  0.00    +0.000 A 
ATOM     15  C   UNL     1      -3.227  12.374  22.915  0.00  0.00    +0.000 A 
ATOM     16  C   UNL     1      -4.370  12.601  23.698  0.00  0.00    +0.000 A 
BRANCH  11  18
ATOM     17  N   UNL     1      -7.713  13.338  24.532  0.00  0.00    +0.000 NA
ATOM     18  C   UNL     1      -6.763  13.153  23.888  0.00  0.00    +0.000 C 
ENDBRANCH  11  18
ENDBRANCH   7  14
ENDBRANCH   1   8
BRANCH   5  19
ATOM     19  C   UNL     1       1.529   9.629  18.458  0.00  0.00    +0.000 C 
ATOM     20  O   UNL     1       1.303   9.219  17.325  0.00  0.00    +0.000 OA
ATOM     21  N   UNL     1       1.895   8.855  19.549  0.00  0.00    +0.000 N 
ATOM     22  H   UNL     1       1.920   9.346  20.439  0.00  0.00    +0.000 HD
BRANCH  21  23
ATOM     23  C   UNL     1       2.045   7.450  19.546  0.00  0.00    +0.000 A 
ATOM     24  C   UNL     1       2.639   6.750  18.490  0.00  0.00    +0.000 A 
ATOM     25  C   UNL     1       2.674   5.352  18.481  0.00  0.00    +0.000 A 
ATOM     26  C   UNL     1       2.117   4.632  19.537  0.00  0.00    +0.000 A 
ATOM     27  C   UNL     1       1.573   5.321  20.625  0.00  0.00    +0.000 A 
ATOM     28  C   UNL     1       1.549   6.725  20.635  0.00  0.00    +0.000 A 
BRANCH  26  29
ATOM     29  C   UNL     1       2.085   3.200  19.488  0.00  0.00    +0.000 C 
ATOM     30  N   UNL     1       2.075   2.039  19.443  0.00  0.00    +0.000 NA
ENDBRANCH  26  29
ENDBRANCH  21  23
ENDBRANCH   5  19
TORSDOF 6
ENDMDL
MODEL 8
REMARK VINA RESULT:      -6.9      1.040      1.100
REMARK  Name = 
REMARK  6 active torsions:
REMARK  status: ('A' for Active; 'I' for Inactive)
REMARK    1  A    between atoms: C_2  and  C_3
REMARK    2  A    between atoms: C_6  and  N_7
REMARK    3  A    between atoms: C_8  and  C_10
REMARK    4  A    between atoms: C_14  and  C_15
REMARK    5  A    between atoms: N_17  and  C_18
REMARK    6  A    between atoms: C_21  and  C_22
REMARK                            x       y       z     vdW  Elec       q    Type
REMARK                         _______ _______ _______ _____ _____    ______ ____
ROOT
ATOM      1  C   UNL     1       0.136  11.427  19.021  0.00  0.00    +0.000 A 
ATOM      2  C   UNL     1       0.916  12.553  18.772  0.00  0.00    +0.000 A 
ATOM      3  C   UNL     1       2.179  12.357  18.220  0.00  0.00    +0.000 A 
ATOM      4  N   UNL     1       2.703  11.146  17.906  0.00  0.00    +0.000 NA
ATOM      5  C   UNL     1       1.911  10.070  18.149  0.00  0.00    +0.000 A 
ATOM      6  C   UNL     1       0.641  10.165  18.697  0.00  0.00    +0.000 A 
ENDROOT
BRANCH   1   8
ATOM      7  N   UNL     1      -1.370  12.424  20.702  0.00  0.00    +0.000 N 
ATOM      8  C   UNL     1      -1.178  11.464  19.721  0.00  0.00    +0.000 C 
ATOM      9  O   UNL     1      -2.017  10.651  19.344  0.00  0.00    +0.000 OA
ATOM     10  H   UNL     1      -0.687  13.166  20.787  0.00  0.00    +0.000 HD
BRANCH   7  14
ATOM     11  C   UNL     1      -4.957  12.820  22.940  0.00  0.00    +0.000 A 
ATOM     12  C   UNL     1      -3.784  12.424  23.580  0.00  0.00    +0.000 A 
ATOM     13  C   UNL     1      -2.593  12.301  22.855  0.00  0.00    +0.000 A 
ATOM     14  C   UNL     1      -2.551  12.560  21.479  0.00  0.00    +0.000 A 
ATOM     15  C   UNL     1      -3.727  12.977  20.847  0.00  0.00    +0.000 A 
ATOM     16  C   UNL     1      -4.925  13.099  21.570  0.00  0.00    +0.000 A 
BRANCH  11  18
ATOM     17  N   UNL     1      -7.166  13.030  24.289  0.00  0.00    +0.000 NA
ATOM     18  C   UNL     1      -6.178  12.939  23.684  0.00  0.00    +0.000 C 
ENDBRANCH  11  18
ENDBRANCH   7  14
ENDBRANCH   1   8
BRANCH   5  19
ATOM     19  C   UNL     1       2.452   8.708  17.833  0.00  0.00    +0.000 C 
ATOM     20  O   UNL     1       3.035   8.543  16.767  0.00  0.00    +0.000 OA
ATOM     21  N   UNL     1       2.191   7.729  18.781  0.00  0.00    +0.000 N 
ATOM     22  H   UNL     1       1.588   8.019  19.547  0.00  0.00    +0.000 HD
BRANCH  21  23
ATOM     23  C   UNL     1       2.531   6.363  18.665  0.00  0.00    +0.000 A 
ATOM     24  C   UNL     1       1.773   5.450  17.923  0.00  0.00    +0.000 A 
ATOM     25  C   UNL     1       2.087   4.088  17.919  0.00  0.00    +0.000 A 
ATOM     26  C   UNL     1       3.173   3.618  18.656  0.00  0.00    +0.000 A 
ATOM     27  C   UNL     1       3.973   4.528  19.354  0.00  0.00    +0.000 A 
ATOM     28  C   UNL     1       3.660   5.897  19.346  0.00  0.00    +0.000 A 
BRANCH  26  29
ATOM     29  C   UNL     1       3.445   2.212  18.712  0.00  0.00    +0.000 C 
ATOM     30  N   UNL     1       3.677   1.075  18.770  0.00  0.00    +0.000 NA
ENDBRANCH  26  29
ENDBRANCH  21  23
ENDBRANCH   5  19
TORSDOF 6
ENDMDL
MODEL 9
REMARK VINA RESULT:      -6.9      1.091     10.037
REMARK  Name = 
REMARK  6 active torsions:
REMARK  status: ('A' for Active; 'I' for Inactive)
REMARK    1  A    between atoms: C_2  and  C_3
REMARK    2  A    between atoms: C_6  and  N_7
REMARK    3  A    between atoms: C_8  and  C_10
REMARK    4  A    between atoms: C_14  and  C_15
REMARK    5  A    between atoms: N_17  and  C_18
REMARK    6  A    between atoms: C_21  and  C_22
REMARK                            x       y       z     vdW  Elec       q    Type
REMARK                         _______ _______ _______ _____ _____    ______ ____
ROOT
ATOM      1  C   UNL     1       1.293  10.673  18.664  0.00  0.00    +0.000 A 
ATOM      2  C   UNL     1       1.981  11.838  18.338  0.00  0.00    +0.000 A 
ATOM      3  C   UNL     1       1.313  13.050  18.495  0.00  0.00    +0.000 A 
ATOM      4  N   UNL     1       0.040  13.175  18.945  0.00  0.00    +0.000 NA
ATOM      5  C   UNL     1      -0.597  12.019  19.268  0.00  0.00    +0.000 A 
ATOM      6  C   UNL     1      -0.016  10.767  19.145  0.00  0.00    +0.000 A 
ENDROOT
BRANCH   1   8
ATOM      7  N   UNL     1       1.796   8.401  19.487  0.00  0.00    +0.000 N 
ATOM      8  C   UNL     1       1.824   9.301  18.432  0.00  0.00    +0.000 C 
ATOM      9  O   UNL     1       2.218   9.056  17.296  0.00  0.00    +0.000 OA
ATOM     10  H   UNL     1       1.266   8.649  20.313  0.00  0.00    +0.000 HD
BRANCH   7  14
ATOM     11  C   UNL     1       3.217   4.402  19.377  0.00  0.00    +0.000 A 
ATOM     12  C   UNL     1       3.642   5.312  18.411  0.00  0.00    +0.000 A 
ATOM     13  C   UNL     1       3.188   6.636  18.444  0.00  0.00    +0.000 A 
ATOM     14  C   UNL     1       2.298   7.075  19.431  0.00  0.00    +0.000 A 
ATOM     15  C   UNL     1       1.892   6.161  20.411  0.00  0.00    +0.000 A 
ATOM     16  C   UNL     1       2.341   4.831  20.380  0.00  0.00    +0.000 A 
BRANCH  11  18
ATOM     17  N   UNL     1       4.045   1.941  19.309  0.00  0.00    +0.000 NA
ATOM     18  C   UNL     1       3.678   3.043  19.339  0.00  0.00    +0.000 C 
ENDBRANCH  11  18
ENDBRANCH   7  14
ENDBRANCH   1   8
BRANCH   5  19
ATOM     19  C   UNL     1      -2.012  12.105  19.758  0.00  0.00    +0.000 C 
ATOM     20  O   UNL     1      -2.913  11.755  19.004  0.00  0.00    +0.000 OA
ATOM     21  N   UNL     1      -2.169  12.632  21.031  0.00  0.00    +0.000 N 
ATOM     22  H   UNL     1      -1.318  12.982  21.462  0.00  0.00    +0.000 HD
BRANCH  21  23
ATOM     23  C   UNL     1      -3.404  12.881  21.669  0.00  0.00    +0.000 A 
ATOM     24  C   UNL     1      -4.479  13.509  21.030  0.00  0.00    +0.000 A 
ATOM     25  C   UNL     1      -5.647  13.829  21.728  0.00  0.00    +0.000 A 
ATOM     26  C   UNL     1      -5.760  13.517  23.082  0.00  0.00    +0.000 A 
ATOM     27  C   UNL     1      -4.717  12.836  23.718  0.00  0.00    +0.000 A 
ATOM     28  C   UNL     1      -3.550  12.508  23.010  0.00  0.00    +0.000 A 
BRANCH  26  29
ATOM     29  C   UNL     1      -6.926  13.915  23.814  0.00  0.00    +0.000 C 
ATOM     30  N   UNL     1      -7.881  14.231  24.394  0.00  0.00    +0.000 NA
ENDBRANCH  26  29
ENDBRANCH  21  23
ENDBRANCH   5  19
TORSDOF 6
ENDMDL
