MODEL 1
REMARK VINA RESULT:      -7.9      0.000      0.000
REMARK  Name = 
REMARK  8 active torsions:
REMARK  status: ('A' for Active; 'I' for Inactive)
REMARK    1  A    between atoms: C_1  and  S_2
REMARK    2  A    between atoms: S_2  and  C_5
REMARK    3  A    between atoms: C_8  and  C_9
REMARK    4  A    between atoms: C_9  and  C_19
REMARK    5  A    between atoms: C_10  and  C_11
REMARK    6  A    between atoms: C_14  and  O_15
REMARK    7  A    between atoms: C_16  and  O_17
REMARK    8  A    between atoms: C_19  and  O_21
REMARK                            x       y       z     vdW  Elec       q    Type
REMARK                         _______ _______ _______ _____ _____    ______ ____
ROOT
ATOM      1  C   UNL     1       3.125   4.354  17.914  0.00  0.00    +0.000 C 
ATOM      2  C   UNL     1       4.398   4.162  17.511  0.00  0.00    +0.000 C 
ENDROOT
BRANCH   1   6
ATOM      3  C   UNL     1       1.814   7.677  20.285  0.00  0.00    +0.000 A 
ATOM      4  C   UNL     1       1.960   6.419  20.872  0.00  0.00    +0.000 A 
ATOM      5  C   UNL     1       2.430   5.345  20.105  0.00  0.00    +0.000 A 
ATOM      6  C   UNL     1       2.733   5.519  18.745  0.00  0.00    +0.000 A 
ATOM      7  C   UNL     1       2.614   6.796  18.180  0.00  0.00    +0.000 A 
ATOM      8  C   UNL     1       2.152   7.875  18.945  0.00  0.00    +0.000 A 
BRANCH   3  10
ATOM      9  C   UNL     1       0.913  10.330  20.049  0.00  0.00    +0.000 C 
ATOM     10  S   UNL     1       1.032   8.994  21.205  0.00  0.00    +0.000 S 
ATOM     11  O   UNL     1       1.956   9.391  22.252  0.00  0.00    +0.000 OA
ATOM     12  O   UNL     1      -0.312   8.558  21.527  0.00  0.00    +0.000 OA
ENDBRANCH   3  10
ENDBRANCH   1   6
BRANCH   2  13
ATOM     13  C   UNL     1       5.541   5.027  17.827  0.00  0.00    +0.000 A 
ATOM     14  C   UNL     1       5.878   6.093  16.980  0.00  0.00    +0.000 A 
ATOM     15  C   UNL     1       6.916   6.970  17.320  0.00  0.00    +0.000 A 
ATOM     16  C   UNL     1       7.600   6.774  18.513  0.00  0.00    +0.000 A 
ATOM     17  C   UNL     1       7.292   5.692  19.332  0.00  0.00    +0.000 A 
ATOM     18  C   UNL     1       6.281   4.804  18.992  0.00  0.00    +0.000 A 
BRANCH  16  19
ATOM     19  O   UNL     1       8.581   7.629  18.933  0.00  0.00    +0.000 OA
ATOM     20  H   UNL     1       8.232   8.536  18.894  0.00  0.00    +0.000 HD
ENDBRANCH  16  19
BRANCH  17  21
ATOM     21  O   UNL     1       7.964   5.511  20.508  0.00  0.00    +0.000 OA
ATOM     22  H   UNL     1       7.519   4.749  20.929  0.00  0.00    +0.000 HD
ENDBRANCH  17  21
ENDBRANCH   2  13
BRANCH   1  23
ATOM     23  C   UNL     1       2.150   3.308  17.468  0.00  0.00    +0.000 C 
ATOM     24  O   UNL     1       2.470   2.181  17.126  0.00  0.00    +0.000 OA
BRANCH  23  25
ATOM     25  O   UNL     1       0.863   3.710  17.462  0.00  0.00    +0.000 OA
ATOM     26  H   UNL     1       0.208   3.012  17.283  0.00  0.00    +0.000 HD
ENDBRANCH  23  25
ENDBRANCH   1  23
TORSDOF 7
ENDMDL
MODEL 2
REMARK VINA RESULT:      -7.5      0.840      1.238
REMARK  Name = 
REMARK  8 active torsions:
REMARK  status: ('A' for Active; 'I' for Inactive)
REMARK    1  A    between atoms: C_1  and  S_2
REMARK    2  A    between atoms: S_2  and  C_5
REMARK    3  A    between atoms: C_8  and  C_9
REMARK    4  A    between atoms: C_9  and  C_19
REMARK    5  A    between atoms: C_10  and  C_11
REMARK    6  A    between atoms: C_14  and  O_15
REMARK    7  A    between atoms: C_16  and  O_17
REMARK    8  A    between atoms: C_19  and  O_21
REMARK                            x       y       z     vdW  Elec       q    Type
REMARK                         _______ _______ _______ _____ _____    ______ ____
ROOT
ATOM      1  C   UNL     1       3.056   4.092  18.165  0.00  0.00    +0.000 C 
ATOM      2  C   UNL     1       4.330   3.860  17.785  0.00  0.00    +0.000 C 
ENDROOT
BRANCH   1   6
ATOM      3  C   UNL     1       1.723   7.689  20.079  0.00  0.00    +0.000 A 
ATOM      4  C   UNL     1       1.790   6.498  20.806  0.00  0.00    +0.000 A 
ATOM      5  C   UNL     1       2.268   5.335  20.189  0.00  0.00    +0.000 A 
ATOM      6  C   UNL     1       2.656   5.351  18.840  0.00  0.00    +0.000 A 
ATOM      7  C   UNL     1       2.615   6.562  18.135  0.00  0.00    +0.000 A 
ATOM      8  C   UNL     1       2.147   7.731  18.750  0.00  0.00    +0.000 A 
BRANCH   3  10
ATOM      9  C   UNL     1       1.698   9.289  22.391  0.00  0.00    +0.000 C 
ATOM     10  S   UNL     1       0.935   9.120  20.802  0.00  0.00    +0.000 S 
ATOM     11  O   UNL     1      -0.460   8.778  21.012  0.00  0.00    +0.000 OA
ATOM     12  O   UNL     1       1.306  10.269  20.003  0.00  0.00    +0.000 OA
ENDBRANCH   3  10
ENDBRANCH   1   6
BRANCH   2  13
ATOM     13  C   UNL     1       5.467   4.769  17.981  0.00  0.00    +0.000 A 
ATOM     14  C   UNL     1       5.773   5.740  17.016  0.00  0.00    +0.000 A 
ATOM     15  C   UNL     1       6.804   6.661  17.238  0.00  0.00    +0.000 A 
ATOM     16  C   UNL     1       7.513   6.606  18.432  0.00  0.00    +0.000 A 
ATOM     17  C   UNL     1       7.235   5.616  19.370  0.00  0.00    +0.000 A 
ATOM     18  C   UNL     1       6.231   4.684  19.149  0.00  0.00    +0.000 A 
BRANCH  16  19
ATOM     19  O   UNL     1       8.489   7.514  18.736  0.00  0.00    +0.000 OA
ATOM     20  H   UNL     1       9.025   7.662  17.940  0.00  0.00    +0.000 HD
ENDBRANCH  16  19
BRANCH  17  21
ATOM     21  O   UNL     1       7.931   5.574  20.545  0.00  0.00    +0.000 OA
ATOM     22  H   UNL     1       7.846   6.477  20.911  0.00  0.00    +0.000 HD
ENDBRANCH  17  21
ENDBRANCH   2  13
BRANCH   1  23
ATOM     23  C   UNL     1       2.090   2.988  17.862  0.00  0.00    +0.000 C 
ATOM     24  O   UNL     1       0.880   3.138  17.812  0.00  0.00    +0.000 OA
BRANCH  23  25
ATOM     25  O   UNL     1       2.664   1.786  17.651  0.00  0.00    +0.000 OA
ATOM     26  H   UNL     1       2.049   1.063  17.433  0.00  0.00    +0.000 HD
ENDBRANCH  23  25
ENDBRANCH   1  23
TORSDOF 7
ENDMDL
MODEL 3
REMARK VINA RESULT:      -7.5      2.974      6.026
REMARK  Name = 
REMARK  8 active torsions:
REMARK  status: ('A' for Active; 'I' for Inactive)
REMARK    1  A    between atoms: C_1  and  S_2
REMARK    2  A    between atoms: S_2  and  C_5
REMARK    3  A    between atoms: C_8  and  C_9
REMARK    4  A    between atoms: C_9  and  C_19
REMARK    5  A    between atoms: C_10  and  C_11
REMARK    6  A    between atoms: C_14  and  O_15
REMARK    7  A    between atoms: C_16  and  O_17
REMARK    8  A    between atoms: C_19  and  O_21
REMARK                            x       y       z     vdW  Elec       q    Type
REMARK                         _______ _______ _______ _____ _____    ______ ____
ROOT
ATOM      1  C   UNL     1       2.356   4.606  20.327  0.00  0.00    +0.000 C 
ATOM      2  C   UNL     1       1.603   5.717  20.468  0.00  0.00    +0.000 C 
ENDROOT
BRANCH   1   6
ATOM      3  C   UNL     1       5.579   4.592  17.500  0.00  0.00    +0.000 A 
ATOM      4  C   UNL     1       5.761   5.167  18.759  0.00  0.00    +0.000 A 
ATOM      5  C   UNL     1       4.720   5.131  19.696  0.00  0.00    +0.000 A 
ATOM      6  C   UNL     1       3.488   4.543  19.370  0.00  0.00    +0.000 A 
ATOM      7  C   UNL     1       3.333   3.940  18.114  0.00  0.00    +0.000 A 
ATOM      8  C   UNL     1       4.374   3.965  17.177  0.00  0.00    +0.000 A 
BRANCH   3  10
ATOM      9  C   UNL     1       6.251   3.846  14.874  0.00  0.00    +0.000 C 
ATOM     10  S   UNL     1       6.829   4.809  16.242  0.00  0.00    +0.000 S 
ATOM     11  O   UNL     1       8.046   4.194  16.739  0.00  0.00    +0.000 OA
ATOM     12  O   UNL     1       6.809   6.204  15.848  0.00  0.00    +0.000 OA
ENDBRANCH   3  10
ENDBRANCH   1   6
BRANCH   2  13
ATOM     13  C   UNL     1       1.769   6.971  19.723  0.00  0.00    +0.000 A 
ATOM     14  C   UNL     1       2.255   6.954  18.407  0.00  0.00    +0.000 A 
ATOM     15  C   UNL     1       2.337   8.139  17.665  0.00  0.00    +0.000 A 
ATOM     16  C   UNL     1       1.920   9.330  18.247  0.00  0.00    +0.000 A 
ATOM     17  C   UNL     1       1.477   9.351  19.567  0.00  0.00    +0.000 A 
ATOM     18  C   UNL     1       1.415   8.186  20.318  0.00  0.00    +0.000 A 
BRANCH  16  19
ATOM     19  O   UNL     1       1.917  10.510  17.556  0.00  0.00    +0.000 OA
ATOM     20  H   UNL     1       1.317  10.416  16.797  0.00  0.00    +0.000 HD
ENDBRANCH  16  19
BRANCH  17  21
ATOM     21  O   UNL     1       1.062  10.525  20.129  0.00  0.00    +0.000 OA
ATOM     22  H   UNL     1       1.881  11.048  20.235  0.00  0.00    +0.000 HD
ENDBRANCH  17  21
ENDBRANCH   2  13
BRANCH   1  23
ATOM     23  C   UNL     1       1.961   3.453  21.198  0.00  0.00    +0.000 C 
ATOM     24  O   UNL     1       2.669   2.991  22.077  0.00  0.00    +0.000 OA
BRANCH  23  25
ATOM     25  O   UNL     1       0.741   2.944  20.930  0.00  0.00    +0.000 OA
ATOM     26  H   UNL     1       0.565   2.063  21.307  0.00  0.00    +0.000 HD
ENDBRANCH  23  25
ENDBRANCH   1  23
TORSDOF 7
ENDMDL
MODEL 4
REMARK VINA RESULT:      -7.4      2.160      2.653
REMARK  Name = 
REMARK  8 active torsions:
REMARK  status: ('A' for Active; 'I' for Inactive)
REMARK    1  A    between atoms: C_1  and  S_2
REMARK    2  A    between atoms: S_2  and  C_5
REMARK    3  A    between atoms: C_8  and  C_9
REMARK    4  A    between atoms: C_9  and  C_19
REMARK    5  A    between atoms: C_10  and  C_11
REMARK    6  A    between atoms: C_14  and  O_15
REMARK    7  A    between atoms: C_16  and  O_17
REMARK    8  A    between atoms: C_19  and  O_21
REMARK                            x       y       z     vdW  Elec       q    Type
REMARK                         _______ _______ _______ _____ _____    ______ ____
ROOT
ATOM      1  C   UNL     1       2.636   4.372  20.031  0.00  0.00    +0.000 C 
ATOM      2  C   UNL     1       3.689   3.688  19.536  0.00  0.00    +0.000 C 
ENDROOT
BRANCH   1   6
ATOM      3  C   UNL     1       1.759   8.448  19.029  0.00  0.00    +0.000 A 
ATOM      4  C   UNL     1       1.687   8.027  20.358  0.00  0.00    +0.000 A 
ATOM      5  C   UNL     1       2.017   6.706  20.688  0.00  0.00    +0.000 A 
ATOM      6  C   UNL     1       2.395   5.795  19.688  0.00  0.00    +0.000 A 
ATOM      7  C   UNL     1       2.495   6.242  18.364  0.00  0.00    +0.000 A 
ATOM      8  C   UNL     1       2.176   7.565  18.030  0.00  0.00    +0.000 A 
BRANCH   3  10
ATOM      9  C   UNL     1       0.789  10.845  20.131  0.00  0.00    +0.000 C 
ATOM     10  S   UNL     1       1.154  10.068  18.582  0.00  0.00    +0.000 S 
ATOM     11  O   UNL     1      -0.098   9.876  17.874  0.00  0.00    +0.000 OA
ATOM     12  O   UNL     1       2.252  10.787  17.969  0.00  0.00    +0.000 OA
ENDBRANCH   3  10
ENDBRANCH   1   6
BRANCH   2  13
ATOM     13  C   UNL     1       4.718   4.223  18.637  0.00  0.00    +0.000 A 
ATOM     14  C   UNL     1       4.636   4.000  17.254  0.00  0.00    +0.000 A 
ATOM     15  C   UNL     1       5.570   4.578  16.385  0.00  0.00    +0.000 A 
ATOM     16  C   UNL     1       6.572   5.383  16.911  0.00  0.00    +0.000 A 
ATOM     17  C   UNL     1       6.677   5.570  18.286  0.00  0.00    +0.000 A 
ATOM     18  C   UNL     1       5.770   4.982  19.157  0.00  0.00    +0.000 A 
BRANCH  16  19
ATOM     19  O   UNL     1       7.477   6.026  16.112  0.00  0.00    +0.000 OA
ATOM     20  H   UNL     1       8.361   5.910  16.499  0.00  0.00    +0.000 HD
ENDBRANCH  16  19
BRANCH  17  21
ATOM     21  O   UNL     1       7.661   6.370  18.794  0.00  0.00    +0.000 OA
ATOM     22  H   UNL     1       8.400   5.758  18.983  0.00  0.00    +0.000 HD
ENDBRANCH  17  21
ENDBRANCH   2  13
BRANCH   1  23
ATOM     23  C   UNL     1       1.742   3.593  20.946  0.00  0.00    +0.000 C 
ATOM     24  O   UNL     1       2.069   3.221  22.062  0.00  0.00    +0.000 OA
BRANCH  23  25
ATOM     25  O   UNL     1       0.525   3.316  20.436  0.00  0.00    +0.000 OA
ATOM     26  H   UNL     1       0.300   2.370  20.383  0.00  0.00    +0.000 HD
ENDBRANCH  23  25
ENDBRANCH   1  23
TORSDOF 7
ENDMDL
MODEL 5
REMARK VINA RESULT:      -7.3      1.180      1.398
REMARK  Name = 
REMARK  8 active torsions:
REMARK  status: ('A' for Active; 'I' for Inactive)
REMARK    1  A    between atoms: C_1  and  S_2
REMARK    2  A    between atoms: S_2  and  C_5
REMARK    3  A    between atoms: C_8  and  C_9
REMARK    4  A    between atoms: C_9  and  C_19
REMARK    5  A    between atoms: C_10  and  C_11
REMARK    6  A    between atoms: C_14  and  O_15
REMARK    7  A    between atoms: C_16  and  O_17
REMARK    8  A    between atoms: C_19  and  O_21
REMARK                            x       y       z     vdW  Elec       q    Type
REMARK                         _______ _______ _______ _____ _____    ______ ____
ROOT
ATOM      1  C   UNL     1       2.873   4.619  18.257  0.00  0.00    +0.000 C 
ATOM      2  C   UNL     1       4.142   4.211  18.050  0.00  0.00    +0.000 C 
ENDROOT
BRANCH   1   6
ATOM      3  C   UNL     1       1.762   8.620  19.326  0.00  0.00    +0.000 A 
ATOM      4  C   UNL     1       1.865   7.639  20.315  0.00  0.00    +0.000 A 
ATOM      5  C   UNL     1       2.270   6.344  19.968  0.00  0.00    +0.000 A 
ATOM      6  C   UNL     1       2.551   6.018  18.631  0.00  0.00    +0.000 A 
ATOM      7  C   UNL     1       2.476   7.024  17.657  0.00  0.00    +0.000 A 
ATOM      8  C   UNL     1       2.080   8.323  18.000  0.00  0.00    +0.000 A 
BRANCH   3  10
ATOM      9  C   UNL     1      -0.636  10.085  19.239  0.00  0.00    +0.000 C 
ATOM     10  S   UNL     1       1.060  10.211  19.733  0.00  0.00    +0.000 S 
ATOM     11  O   UNL     1       1.702  11.193  18.879  0.00  0.00    +0.000 OA
ATOM     12  O   UNL     1       1.097  10.345  21.176  0.00  0.00    +0.000 OA
ENDBRANCH   3  10
ENDBRANCH   1   6
BRANCH   2  13
ATOM     13  C   UNL     1       5.345   5.043  18.170  0.00  0.00    +0.000 A 
ATOM     14  C   UNL     1       5.617   6.037  17.218  0.00  0.00    +0.000 A 
ATOM     15  C   UNL     1       6.719   6.887  17.373  0.00  0.00    +0.000 A 
ATOM     16  C   UNL     1       7.533   6.739  18.489  0.00  0.00    +0.000 A 
ATOM     17  C   UNL     1       7.287   5.725  19.411  0.00  0.00    +0.000 A 
ATOM     18  C   UNL     1       6.210   4.863  19.253  0.00  0.00    +0.000 A 
BRANCH  16  19
ATOM     19  O   UNL     1       8.587   7.575  18.731  0.00  0.00    +0.000 OA
ATOM     20  H   UNL     1       8.556   8.300  18.084  0.00  0.00    +0.000 HD
ENDBRANCH  16  19
BRANCH  17  21
ATOM     21  O   UNL     1       8.087   5.592  20.509  0.00  0.00    +0.000 OA
ATOM     22  H   UNL     1       8.298   6.510  20.771  0.00  0.00    +0.000 HD
ENDBRANCH  17  21
ENDBRANCH   2  13
BRANCH   1  23
ATOM     23  C   UNL     1       1.826   3.561  18.088  0.00  0.00    +0.000 C 
ATOM     24  O   UNL     1       0.786   3.725  17.472  0.00  0.00    +0.000 OA
BRANCH  23  25
ATOM     25  O   UNL     1       2.117   2.388  18.686  0.00  0.00    +0.000 OA
ATOM     26  H   UNL     1       1.353   1.899  19.040  0.00  0.00    +0.000 HD
ENDBRANCH  23  25
ENDBRANCH   1  23
TORSDOF 7
ENDMDL
MODEL 6
REMARK VINA RESULT:      -7.2      2.323      3.009
REMARK  Name = 
REMARK  8 active torsions:
REMARK  status: ('A' for Active; 'I' for Inactive)
REMARK    1  A    between atoms: C_1  and  S_2
REMARK    2  A    between atoms: S_2  and  C_5
REMARK    3  A    between atoms: C_8  and  C_9
REMARK    4  A    between atoms: C_9  and  C_19
REMARK    5  A    between atoms: C_10  and  C_11
REMARK    6  A    between atoms: C_14  and  O_15
REMARK    7  A    between atoms: C_16  and  O_17
REMARK    8  A    between atoms: C_19  and  O_21
REMARK                            x       y       z     vdW  Elec       q    Type
REMARK                         _______ _______ _______ _____ _____    ______ ____
ROOT
ATOM      1  C   UNL     1       2.577   4.496  19.962  0.00  0.00    +0.000 C 
ATOM      2  C   UNL     1       3.611   3.827  19.412  0.00  0.00    +0.000 C 
ENDROOT
BRANCH   1   6
ATOM      3  C   UNL     1       1.682   8.603  19.114  0.00  0.00    +0.000 A 
ATOM      4  C   UNL     1       1.592   8.127  20.424  0.00  0.00    +0.000 A 
ATOM      5  C   UNL     1       1.928   6.797  20.704  0.00  0.00    +0.000 A 
ATOM      6  C   UNL     1       2.330   5.930  19.675  0.00  0.00    +0.000 A 
ATOM      7  C   UNL     1       2.448   6.433  18.371  0.00  0.00    +0.000 A 
ATOM      8  C   UNL     1       2.122   7.765  18.087  0.00  0.00    +0.000 A 
BRANCH   3  10
ATOM      9  C   UNL     1       0.836  11.007  20.301  0.00  0.00    +0.000 C 
ATOM     10  S   UNL     1       1.070  10.235  18.724  0.00  0.00    +0.000 S 
ATOM     11  O   UNL     1      -0.235  10.067  18.112  0.00  0.00    +0.000 OA
ATOM     12  O   UNL     1       2.129  10.941  18.032  0.00  0.00    +0.000 OA
ENDBRANCH   3  10
ENDBRANCH   1   6
BRANCH   2  13
ATOM     13  C   UNL     1       4.613   4.389  18.498  0.00  0.00    +0.000 A 
ATOM     14  C   UNL     1       5.685   5.142  18.998  0.00  0.00    +0.000 A 
ATOM     15  C   UNL     1       6.687   5.610  18.139  0.00  0.00    +0.000 A 
ATOM     16  C   UNL     1       6.608   5.309  16.784  0.00  0.00    +0.000 A 
ATOM     17  C   UNL     1       5.522   4.598  16.283  0.00  0.00    +0.000 A 
ATOM     18  C   UNL     1       4.513   4.150  17.124  0.00  0.00    +0.000 A 
BRANCH  16  19
ATOM     19  O   UNL     1       7.584   5.683  15.903  0.00  0.00    +0.000 OA
ATOM     20  H   UNL     1       8.274   6.160  16.396  0.00  0.00    +0.000 HD
ENDBRANCH  16  19
BRANCH  17  21
ATOM     21  O   UNL     1       5.457   4.299  14.952  0.00  0.00    +0.000 OA
ATOM     22  H   UNL     1       5.594   5.156  14.502  0.00  0.00    +0.000 HD
ENDBRANCH  17  21
ENDBRANCH   2  13
BRANCH   1  23
ATOM     23  C   UNL     1       1.711   3.689  20.881  0.00  0.00    +0.000 C 
ATOM     24  O   UNL     1       2.060   3.311  21.987  0.00  0.00    +0.000 OA
BRANCH  23  25
ATOM     25  O   UNL     1       0.492   3.395  20.384  0.00  0.00    +0.000 OA
ATOM     26  H   UNL     1       0.008   2.693  20.854  0.00  0.00    +0.000 HD
ENDBRANCH  23  25
ENDBRANCH   1  23
TORSDOF 7
ENDMDL
MODEL 7
REMARK VINA RESULT:      -7.2      1.204      1.532
REMARK  Name = 
REMARK  8 active torsions:
REMARK  status: ('A' for Active; 'I' for Inactive)
REMARK    1  A    between atoms: C_1  and  S_2
REMARK    2  A    between atoms: S_2  and  C_5
REMARK    3  A    between atoms: C_8  and  C_9
REMARK    4  A    between atoms: C_9  and  C_19
REMARK    5  A    between atoms: C_10  and  C_11
REMARK    6  A    between atoms: C_14  and  O_15
REMARK    7  A    between atoms: C_16  and  O_17
REMARK    8  A    between atoms: C_19  and  O_21
REMARK                            x       y       z     vdW  Elec       q    Type
REMARK                         _______ _______ _______ _____ _____    ______ ____
ROOT
ATOM      1  C   UNL     1       2.691   3.788  18.374  0.00  0.00    +0.000 C 
ATOM      2  C   UNL     1       3.817   3.592  17.656  0.00  0.00    +0.000 C 
ENDROOT
BRANCH   1   6
ATOM      3  C   UNL     1       1.708   7.476  20.327  0.00  0.00    +0.000 A 
ATOM      4  C   UNL     1       1.670   6.278  21.043  0.00  0.00    +0.000 A 
ATOM      5  C   UNL     1       2.034   5.081  20.414  0.00  0.00    +0.000 A 
ATOM      6  C   UNL     1       2.413   5.073  19.062  0.00  0.00    +0.000 A 
ATOM      7  C   UNL     1       2.480   6.288  18.367  0.00  0.00    +0.000 A 
ATOM      8  C   UNL     1       2.125   7.490  18.995  0.00  0.00    +0.000 A 
BRANCH   3  10
ATOM      9  C   UNL     1      -0.555   8.511  21.636  0.00  0.00    +0.000 C 
ATOM     10  S   UNL     1       1.060   8.967  21.068  0.00  0.00    +0.000 S 
ATOM     11  O   UNL     1       0.899   9.938  20.002  0.00  0.00    +0.000 OA
ATOM     12  O   UNL     1       1.875   9.264  22.228  0.00  0.00    +0.000 OA
ENDBRANCH   3  10
ENDBRANCH   1   6
BRANCH   2  13
ATOM     13  C   UNL     1       4.897   4.568  17.464  0.00  0.00    +0.000 A 
ATOM     14  C   UNL     1       4.950   5.344  16.296  0.00  0.00    +0.000 A 
ATOM     15  C   UNL     1       5.930   6.334  16.146  0.00  0.00    +0.000 A 
ATOM     16  C   UNL     1       6.842   6.542  17.173  0.00  0.00    +0.000 A 
ATOM     17  C   UNL     1       6.813   5.744  18.313  0.00  0.00    +0.000 A 
ATOM     18  C   UNL     1       5.860   4.745  18.461  0.00  0.00    +0.000 A 
BRANCH  16  19
ATOM     19  O   UNL     1       7.783   7.532  17.115  0.00  0.00    +0.000 OA
ATOM     20  H   UNL     1       7.940   7.748  16.180  0.00  0.00    +0.000 HD
ENDBRANCH  16  19
BRANCH  17  21
ATOM     21  O   UNL     1       7.707   5.961  19.322  0.00  0.00    +0.000 OA
ATOM     22  H   UNL     1       7.322   6.700  19.835  0.00  0.00    +0.000 HD
ENDBRANCH  17  21
ENDBRANCH   2  13
BRANCH   1  23
ATOM     23  C   UNL     1       1.757   2.618  18.427  0.00  0.00    +0.000 C 
ATOM     24  O   UNL     1       0.545   2.709  18.316  0.00  0.00    +0.000 OA
BRANCH  23  25
ATOM     25  O   UNL     1       2.363   1.428  18.620  0.00  0.00    +0.000 OA
ATOM     26  H   UNL     1       1.813   0.646  18.439  0.00  0.00    +0.000 HD
ENDBRANCH  23  25
ENDBRANCH   1  23
TORSDOF 7
ENDMDL
MODEL 8
REMARK VINA RESULT:      -7.2      1.011      1.187
REMARK  Name = 
REMARK  8 active torsions:
REMARK  status: ('A' for Active; 'I' for Inactive)
REMARK    1  A    between atoms: C_1  and  S_2
REMARK    2  A    between atoms: S_2  and  C_5
REMARK    3  A    between atoms: C_8  and  C_9
REMARK    4  A    between atoms: C_9  and  C_19
REMARK    5  A    between atoms: C_10  and  C_11
REMARK    6  A    between atoms: C_14  and  O_15
REMARK    7  A    between atoms: C_16  and  O_17
REMARK    8  A    between atoms: C_19  and  O_21
REMARK                            x       y       z     vdW  Elec       q    Type
REMARK                         _______ _______ _______ _____ _____    ______ ____
ROOT
ATOM      1  C   UNL     1       2.866   4.534  18.214  0.00  0.00    +0.000 C 
ATOM      2  C   UNL     1       4.143   4.153  18.001  0.00  0.00    +0.000 C 
ENDROOT
BRANCH   1   6
ATOM      3  C   UNL     1       1.676   8.503  19.316  0.00  0.00    +0.000 A 
ATOM      4  C   UNL     1       1.849   7.529  20.302  0.00  0.00    +0.000 A 
ATOM      5  C   UNL     1       2.281   6.246  19.943  0.00  0.00    +0.000 A 
ATOM      6  C   UNL     1       2.516   5.924  18.597  0.00  0.00    +0.000 A 
ATOM      7  C   UNL     1       2.371   6.922  17.623  0.00  0.00    +0.000 A 
ATOM      8  C   UNL     1       1.948   8.209  17.978  0.00  0.00    +0.000 A 
BRANCH   3  10
ATOM      9  C   UNL     1       1.748  11.243  18.690  0.00  0.00    +0.000 C 
ATOM     10  S   UNL     1       0.941  10.073  19.747  0.00  0.00    +0.000 S 
ATOM     11  O   UNL     1       1.329  10.366  21.114  0.00  0.00    +0.000 OA
ATOM     12  O   UNL     1      -0.456  10.016  19.367  0.00  0.00    +0.000 OA
ENDBRANCH   3  10
ENDBRANCH   1   6
BRANCH   2  13
ATOM     13  C   UNL     1       5.329   5.010  18.122  0.00  0.00    +0.000 A 
ATOM     14  C   UNL     1       5.596   5.990  17.154  0.00  0.00    +0.000 A 
ATOM     15  C   UNL     1       6.680   6.864  17.308  0.00  0.00    +0.000 A 
ATOM     16  C   UNL     1       7.481   6.752  18.438  0.00  0.00    +0.000 A 
ATOM     17  C   UNL     1       7.239   5.753  19.376  0.00  0.00    +0.000 A 
ATOM     18  C   UNL     1       6.181   4.867  19.220  0.00  0.00    +0.000 A 
BRANCH  16  19
ATOM     19  O   UNL     1       8.516   7.613  18.679  0.00  0.00    +0.000 OA
ATOM     20  H   UNL     1       9.291   7.302  18.182  0.00  0.00    +0.000 HD
ENDBRANCH  16  19
BRANCH  17  21
ATOM     21  O   UNL     1       8.026   5.655  20.489  0.00  0.00    +0.000 OA
ATOM     22  H   UNL     1       8.115   4.693  20.641  0.00  0.00    +0.000 HD
ENDBRANCH  17  21
ENDBRANCH   2  13
BRANCH   1  23
ATOM     23  C   UNL     1       1.842   3.454  18.043  0.00  0.00    +0.000 C 
ATOM     24  O   UNL     1       0.925   3.256  18.824  0.00  0.00    +0.000 OA
BRANCH  23  25
ATOM     25  O   UNL     1       2.012   2.693  16.943  0.00  0.00    +0.000 OA
ATOM     26  H   UNL     1       1.281   2.717  16.301  0.00  0.00    +0.000 HD
ENDBRANCH  23  25
ENDBRANCH   1  23
TORSDOF 7
ENDMDL
MODEL 9
REMARK VINA RESULT:      -7.1      2.851      6.141
REMARK  Name = 
REMARK  8 active torsions:
REMARK  status: ('A' for Active; 'I' for Inactive)
REMARK    1  A    between atoms: C_1  and  S_2
REMARK    2  A    between atoms: S_2  and  C_5
REMARK    3  A    between atoms: C_8  and  C_9
REMARK    4  A    between atoms: C_9  and  C_19
REMARK    5  A    between atoms: C_10  and  C_11
REMARK    6  A    between atoms: C_14  and  O_15
REMARK    7  A    between atoms: C_16  and  O_17
REMARK    8  A    between atoms: C_19  and  O_21
REMARK                            x       y       z     vdW  Elec       q    Type
REMARK                         _______ _______ _______ _____ _____    ______ ____
ROOT
ATOM      1  C   UNL     1       2.446   4.648  20.150  0.00  0.00    +0.000 C 
ATOM      2  C   UNL     1       1.610   5.660  20.460  0.00  0.00    +0.000 C 
ENDROOT
BRANCH   1   6
ATOM      3  C   UNL     1       5.690   4.955  17.363  0.00  0.00    +0.000 A 
ATOM      4  C   UNL     1       4.492   4.351  16.973  0.00  0.00    +0.000 A 
ATOM      5  C   UNL     1       3.420   4.292  17.872  0.00  0.00    +0.000 A 
ATOM      6  C   UNL     1       3.547   4.812  19.170  0.00  0.00    +0.000 A 
ATOM      7  C   UNL     1       4.744   5.445  19.533  0.00  0.00    +0.000 A 
ATOM      8  C   UNL     1       5.817   5.516  18.635  0.00  0.00    +0.000 A 
BRANCH   3  10
ATOM      9  C   UNL     1       6.549   3.945  14.884  0.00  0.00    +0.000 C 
ATOM     10  S   UNL     1       7.116   4.857  16.292  0.00  0.00    +0.000 S 
ATOM     11  O   UNL     1       8.109   4.050  16.976  0.00  0.00    +0.000 OA
ATOM     12  O   UNL     1       7.425   6.205  15.858  0.00  0.00    +0.000 OA
ENDBRANCH   3  10
ENDBRANCH   1   6
BRANCH   2  13
ATOM     13  C   UNL     1       1.649   7.014  19.893  0.00  0.00    +0.000 A 
ATOM     14  C   UNL     1       1.976   7.208  18.543  0.00  0.00    +0.000 A 
ATOM     15  C   UNL     1       1.934   8.489  17.978  0.00  0.00    +0.000 A 
ATOM     16  C   UNL     1       1.555   9.564  18.773  0.00  0.00    +0.000 A 
ATOM     17  C   UNL     1       1.272   9.376  20.123  0.00  0.00    +0.000 A 
ATOM     18  C   UNL     1       1.333   8.114  20.696  0.00  0.00    +0.000 A 
BRANCH  16  19
ATOM     19  O   UNL     1       1.435  10.829  18.268  0.00  0.00    +0.000 OA
ATOM     20  H   UNL     1       0.623  10.868  17.734  0.00  0.00    +0.000 HD
ENDBRANCH  16  19
BRANCH  17  21
ATOM     21  O   UNL     1       0.891  10.437  20.895  0.00  0.00    +0.000 OA
ATOM     22  H   UNL     1       1.186  10.200  21.797  0.00  0.00    +0.000 HD
ENDBRANCH  17  21
ENDBRANCH   2  13
BRANCH   1  23
ATOM     23  C   UNL     1       2.174   3.357  20.859  0.00  0.00    +0.000 C 
ATOM     24  O   UNL     1       3.047   2.626  21.301  0.00  0.00    +0.000 OA
BRANCH  23  25
ATOM     25  O   UNL     1       0.867   3.046  20.972  0.00  0.00    +0.000 OA
ATOM     26  H   UNL     1       0.265   3.804  21.080  0.00  0.00    +0.000 HD
ENDBRANCH  23  25
ENDBRANCH   1  23
TORSDOF 7
ENDMDL
