MODEL 1
REMARK VINA RESULT:      -8.6      0.000      0.000
REMARK  Name = 
REMARK  3 active torsions:
REMARK  status: ('A' for Active; 'I' for Inactive)
REMARK    1  A    between atoms: C_4  and  N_5
REMARK    2  A    between atoms: N_5  and  C_6
REMARK    3  A    between atoms: C_13  and  C_14
REMARK                            x       y       z     vdW  Elec       q    Type
REMARK                         _______ _______ _______ _____ _____    ______ ____
ROOT
ATOM      1  O   UNL     1       7.879   7.734  17.819  0.00  0.00    +0.000 OA
ATOM      2  C   UNL     1       7.358   6.674  17.496  0.00  0.00    +0.000 A 
ATOM      3  C   UNL     1       6.710   5.825  18.503  0.00  0.00    +0.000 A 
ATOM      4  C   UNL     1       6.134   4.655  18.187  0.00  0.00    +0.000 A 
ATOM      5  C   UNL     1       6.113   4.259  16.798  0.00  0.00    +0.000 A 
ATOM      6  C   UNL     1       6.722   5.007  15.866  0.00  0.00    +0.000 A 
ATOM      7  O   UNL     1       7.358   6.225  16.206  0.00  0.00    +0.000 OA
ENDROOT
BRANCH   6   8
ATOM      8  C   UNL     1       6.762   4.667  14.430  0.00  0.00    +0.000 A 
ATOM      9  C   UNL     1       5.859   3.729  13.905  0.00  0.00    +0.000 A 
ATOM     10  C   UNL     1       5.890   3.378  12.552  0.00  0.00    +0.000 A 
ATOM     11  C   UNL     1       6.820   3.968  11.699  0.00  0.00    +0.000 A 
ATOM     12  C   UNL     1       7.707   4.918  12.195  0.00  0.00    +0.000 A 
ATOM     13  C   UNL     1       7.674   5.270  13.548  0.00  0.00    +0.000 A 
ENDBRANCH   6   8
BRANCH   4  14
ATOM     14  N   UNL     1       5.523   3.819  19.104  0.00  0.00    +0.000 N 
ATOM     15  H   UNL     1       6.006   3.754  19.996  0.00  0.00    +0.000 HD
BRANCH  14  16
ATOM     16  C   UNL     1       4.125   3.674  19.282  0.00  0.00    +0.000 A 
ATOM     17  C   UNL     1       3.299   4.693  19.773  0.00  0.00    +0.000 A 
ATOM     18  C   UNL     1       1.916   4.516  19.876  0.00  0.00    +0.000 A 
ATOM     19  C   UNL     1       1.335   3.316  19.475  0.00  0.00    +0.000 A 
ATOM     20  C   UNL     1       2.137   2.295  18.973  0.00  0.00    +0.000 A 
ATOM     21  C   UNL     1       3.520   2.476  18.872  0.00  0.00    +0.000 A 
ENDBRANCH  14  16
ENDBRANCH   4  14
TORSDOF 3
ENDMDL
MODEL 2
REMARK VINA RESULT:      -8.6      1.422      2.037
REMARK  Name = 
REMARK  3 active torsions:
REMARK  status: ('A' for Active; 'I' for Inactive)
REMARK    1  A    between atoms: C_4  and  N_5
REMARK    2  A    between atoms: N_5  and  C_6
REMARK    3  A    between atoms: C_13  and  C_14
REMARK                            x       y       z     vdW  Elec       q    Type
REMARK                         _______ _______ _______ _____ _____    ______ ____
ROOT
ATOM      1  O   UNL     1       8.208   4.928  18.937  0.00  0.00    +0.000 OA
ATOM      2  C   UNL     1       7.260   5.015  18.164  0.00  0.00    +0.000 A 
ATOM      3  C   UNL     1       5.931   5.397  18.657  0.00  0.00    +0.000 A 
ATOM      4  C   UNL     1       4.870   5.496  17.842  0.00  0.00    +0.000 A 
ATOM      5  C   UNL     1       5.071   5.269  16.429  0.00  0.00    +0.000 A 
ATOM      6  C   UNL     1       6.271   4.892  15.964  0.00  0.00    +0.000 A 
ATOM      7  O   UNL     1       7.383   4.756  16.829  0.00  0.00    +0.000 OA
ENDROOT
BRANCH   6   8
ATOM      8  C   UNL     1       6.558   4.624  14.540  0.00  0.00    +0.000 A 
ATOM      9  C   UNL     1       7.583   5.326  13.886  0.00  0.00    +0.000 A 
ATOM     10  C   UNL     1       7.860   5.103  12.534  0.00  0.00    +0.000 A 
ATOM     11  C   UNL     1       7.122   4.166  11.816  0.00  0.00    +0.000 A 
ATOM     12  C   UNL     1       6.118   3.442  12.452  0.00  0.00    +0.000 A 
ATOM     13  C   UNL     1       5.843   3.664  13.805  0.00  0.00    +0.000 A 
ENDBRANCH   6   8
BRANCH   4  14
ATOM     14  N   UNL     1       3.598   5.842  18.263  0.00  0.00    +0.000 N 
ATOM     15  H   UNL     1       3.146   6.546  17.687  0.00  0.00    +0.000 HD
BRANCH  14  16
ATOM     16  C   UNL     1       2.640   4.951  18.808  0.00  0.00    +0.000 A 
ATOM     17  C   UNL     1       1.979   3.973  18.055  0.00  0.00    +0.000 A 
ATOM     18  C   UNL     1       1.084   3.083  18.654  0.00  0.00    +0.000 A 
ATOM     19  C   UNL     1       0.846   3.148  20.023  0.00  0.00    +0.000 A 
ATOM     20  C   UNL     1       1.502   4.105  20.792  0.00  0.00    +0.000 A 
ATOM     21  C   UNL     1       2.397   4.995  20.189  0.00  0.00    +0.000 A 
ENDBRANCH  14  16
ENDBRANCH   4  14
TORSDOF 3
ENDMDL
MODEL 3
REMARK VINA RESULT:      -8.6      1.423      1.482
REMARK  Name = 
REMARK  3 active torsions:
REMARK  status: ('A' for Active; 'I' for Inactive)
REMARK    1  A    between atoms: C_4  and  N_5
REMARK    2  A    between atoms: N_5  and  C_6
REMARK    3  A    between atoms: C_13  and  C_14
REMARK                            x       y       z     vdW  Elec       q    Type
REMARK                         _______ _______ _______ _____ _____    ______ ____
ROOT
ATOM      1  O   UNL     1       8.214   4.695  18.853  0.00  0.00    +0.000 OA
ATOM      2  C   UNL     1       7.266   4.825  18.087  0.00  0.00    +0.000 A 
ATOM      3  C   UNL     1       5.943   5.204  18.598  0.00  0.00    +0.000 A 
ATOM      4  C   UNL     1       4.882   5.349  17.790  0.00  0.00    +0.000 A 
ATOM      5  C   UNL     1       5.077   5.177  16.369  0.00  0.00    +0.000 A 
ATOM      6  C   UNL     1       6.272   4.805  15.885  0.00  0.00    +0.000 A 
ATOM      7  O   UNL     1       7.383   4.620  16.742  0.00  0.00    +0.000 OA
ENDROOT
BRANCH   6   8
ATOM      8  C   UNL     1       6.553   4.592  14.451  0.00  0.00    +0.000 A 
ATOM      9  C   UNL     1       5.780   3.683  13.712  0.00  0.00    +0.000 A 
ATOM     10  C   UNL     1       6.039   3.451  12.358  0.00  0.00    +0.000 A 
ATOM     11  C   UNL     1       7.072   4.132  11.719  0.00  0.00    +0.000 A 
ATOM     12  C   UNL     1       7.835   5.055  12.428  0.00  0.00    +0.000 A 
ATOM     13  C   UNL     1       7.573   5.288  13.782  0.00  0.00    +0.000 A 
ENDBRANCH   6   8
BRANCH   4  14
ATOM     14  N   UNL     1       3.616   5.694  18.228  0.00  0.00    +0.000 N 
ATOM     15  H   UNL     1       3.127   6.345  17.619  0.00  0.00    +0.000 HD
BRANCH  14  16
ATOM     16  C   UNL     1       2.698   4.822  18.866  0.00  0.00    +0.000 A 
ATOM     17  C   UNL     1       2.349   4.923  20.218  0.00  0.00    +0.000 A 
ATOM     18  C   UNL     1       1.395   4.072  20.783  0.00  0.00    +0.000 A 
ATOM     19  C   UNL     1       0.764   3.112  19.997  0.00  0.00    +0.000 A 
ATOM     20  C   UNL     1       1.088   3.003  18.648  0.00  0.00    +0.000 A 
ATOM     21  C   UNL     1       2.043   3.856  18.086  0.00  0.00    +0.000 A 
ENDBRANCH  14  16
ENDBRANCH   4  14
TORSDOF 3
ENDMDL
MODEL 4
REMARK VINA RESULT:      -8.6      0.282      1.070
REMARK  Name = 
REMARK  3 active torsions:
REMARK  status: ('A' for Active; 'I' for Inactive)
REMARK    1  A    between atoms: C_4  and  N_5
REMARK    2  A    between atoms: N_5  and  C_6
REMARK    3  A    between atoms: C_13  and  C_14
REMARK                            x       y       z     vdW  Elec       q    Type
REMARK                         _______ _______ _______ _____ _____    ______ ____
ROOT
ATOM      1  O   UNL     1       7.912   7.617  17.936  0.00  0.00    +0.000 OA
ATOM      2  C   UNL     1       7.365   6.585  17.567  0.00  0.00    +0.000 A 
ATOM      3  C   UNL     1       6.653   5.735  18.529  0.00  0.00    +0.000 A 
ATOM      4  C   UNL     1       6.047   4.596  18.163  0.00  0.00    +0.000 A 
ATOM      5  C   UNL     1       6.059   4.236  16.763  0.00  0.00    +0.000 A 
ATOM      6  C   UNL     1       6.728   4.984  15.873  0.00  0.00    +0.000 A 
ATOM      7  O   UNL     1       7.394   6.170  16.266  0.00  0.00    +0.000 OA
ENDROOT
BRANCH   6   8
ATOM      8  C   UNL     1       6.805   4.680  14.430  0.00  0.00    +0.000 A 
ATOM      9  C   UNL     1       5.935   3.735  13.864  0.00  0.00    +0.000 A 
ATOM     10  C   UNL     1       6.003   3.417  12.504  0.00  0.00    +0.000 A 
ATOM     11  C   UNL     1       6.936   4.047  11.686  0.00  0.00    +0.000 A 
ATOM     12  C   UNL     1       7.792   5.005  12.222  0.00  0.00    +0.000 A 
ATOM     13  C   UNL     1       7.722   5.324  13.582  0.00  0.00    +0.000 A 
ENDBRANCH   6   8
BRANCH   4  14
ATOM     14  N   UNL     1       5.374   3.760  19.035  0.00  0.00    +0.000 N 
ATOM     15  H   UNL     1       5.756   3.747  19.977  0.00  0.00    +0.000 HD
BRANCH  14  16
ATOM     16  C   UNL     1       3.972   3.552  19.061  0.00  0.00    +0.000 A 
ATOM     17  C   UNL     1       3.320   2.590  18.280  0.00  0.00    +0.000 A 
ATOM     18  C   UNL     1       1.941   2.388  18.386  0.00  0.00    +0.000 A 
ATOM     19  C   UNL     1       1.193   3.137  19.289  0.00  0.00    +0.000 A 
ATOM     20  C   UNL     1       1.825   4.089  20.085  0.00  0.00    +0.000 A 
ATOM     21  C   UNL     1       3.205   4.289  19.975  0.00  0.00    +0.000 A 
ENDBRANCH  14  16
ENDBRANCH   4  14
TORSDOF 3
ENDMDL
MODEL 5
REMARK VINA RESULT:      -8.3      0.291      1.545
REMARK  Name = 
REMARK  3 active torsions:
REMARK  status: ('A' for Active; 'I' for Inactive)
REMARK    1  A    between atoms: C_4  and  N_5
REMARK    2  A    between atoms: N_5  and  C_6
REMARK    3  A    between atoms: C_13  and  C_14
REMARK                            x       y       z     vdW  Elec       q    Type
REMARK                         _______ _______ _______ _____ _____    ______ ____
ROOT
ATOM      1  O   UNL     1       7.665   7.909  17.530  0.00  0.00    +0.000 OA
ATOM      2  C   UNL     1       7.221   6.800  17.258  0.00  0.00    +0.000 A 
ATOM      3  C   UNL     1       6.647   5.950  18.308  0.00  0.00    +0.000 A 
ATOM      4  C   UNL     1       6.157   4.729  18.049  0.00  0.00    +0.000 A 
ATOM      5  C   UNL     1       6.153   4.272  16.678  0.00  0.00    +0.000 A 
ATOM      6  C   UNL     1       6.697   5.022  15.708  0.00  0.00    +0.000 A 
ATOM      7  O   UNL     1       7.244   6.297  15.988  0.00  0.00    +0.000 OA
ENDROOT
BRANCH   6   8
ATOM      8  C   UNL     1       6.750   4.624  14.287  0.00  0.00    +0.000 A 
ATOM      9  C   UNL     1       7.640   5.265  13.411  0.00  0.00    +0.000 A 
ATOM     10  C   UNL     1       7.694   4.918  12.058  0.00  0.00    +0.000 A 
ATOM     11  C   UNL     1       6.864   3.917  11.560  0.00  0.00    +0.000 A 
ATOM     12  C   UNL     1       5.991   3.253  12.417  0.00  0.00    +0.000 A 
ATOM     13  C   UNL     1       5.940   3.599  13.771  0.00  0.00    +0.000 A 
ENDBRANCH   6   8
BRANCH   4  14
ATOM     14  N   UNL     1       5.617   3.890  19.007  0.00  0.00    +0.000 N 
ATOM     15  H   UNL     1       6.166   3.823  19.860  0.00  0.00    +0.000 HD
BRANCH  14  16
ATOM     16  C   UNL     1       4.236   3.744  19.290  0.00  0.00    +0.000 A 
ATOM     17  C   UNL     1       3.543   2.534  19.154  0.00  0.00    +0.000 A 
ATOM     18  C   UNL     1       2.194   2.431  19.501  0.00  0.00    +0.000 A 
ATOM     19  C   UNL     1       1.516   3.538  20.004  0.00  0.00    +0.000 A 
ATOM     20  C   UNL     1       2.190   4.746  20.159  0.00  0.00    +0.000 A 
ATOM     21  C   UNL     1       3.540   4.846  19.811  0.00  0.00    +0.000 A 
ENDBRANCH  14  16
ENDBRANCH   4  14
TORSDOF 3
ENDMDL
MODEL 6
REMARK VINA RESULT:      -8.2      1.283      1.747
REMARK  Name = 
REMARK  3 active torsions:
REMARK  status: ('A' for Active; 'I' for Inactive)
REMARK    1  A    between atoms: C_4  and  N_5
REMARK    2  A    between atoms: N_5  and  C_6
REMARK    3  A    between atoms: C_13  and  C_14
REMARK                            x       y       z     vdW  Elec       q    Type
REMARK                         _______ _______ _______ _____ _____    ______ ____
ROOT
ATOM      1  O   UNL     1       7.996   5.888  18.761  0.00  0.00    +0.000 OA
ATOM      2  C   UNL     1       7.049   5.673  18.013  0.00  0.00    +0.000 A 
ATOM      3  C   UNL     1       5.671   5.825  18.496  0.00  0.00    +0.000 A 
ATOM      4  C   UNL     1       4.610   5.593  17.709  0.00  0.00    +0.000 A 
ATOM      5  C   UNL     1       4.849   5.236  16.329  0.00  0.00    +0.000 A 
ATOM      6  C   UNL     1       6.100   5.065  15.876  0.00  0.00    +0.000 A 
ATOM      7  O   UNL     1       7.218   5.278  16.717  0.00  0.00    +0.000 OA
ENDROOT
BRANCH   6   8
ATOM      8  C   UNL     1       6.432   4.685  14.489  0.00  0.00    +0.000 A 
ATOM      9  C   UNL     1       7.501   5.308  13.826  0.00  0.00    +0.000 A 
ATOM     10  C   UNL     1       7.822   4.978  12.506  0.00  0.00    +0.000 A 
ATOM     11  C   UNL     1       7.083   4.011  11.830  0.00  0.00    +0.000 A 
ATOM     12  C   UNL     1       6.035   3.364  12.476  0.00  0.00    +0.000 A 
ATOM     13  C   UNL     1       5.716   3.693  13.798  0.00  0.00    +0.000 A 
ENDBRANCH   6   8
BRANCH   4  14
ATOM     14  N   UNL     1       3.295   5.714  18.123  0.00  0.00    +0.000 N 
ATOM     15  H   UNL     1       2.683   6.155  17.443  0.00  0.00    +0.000 HD
BRANCH  14  16
ATOM     16  C   UNL     1       2.583   4.759  18.891  0.00  0.00    +0.000 A 
ATOM     17  C   UNL     1       2.505   4.795  20.289  0.00  0.00    +0.000 A 
ATOM     18  C   UNL     1       1.741   3.861  20.994  0.00  0.00    +0.000 A 
ATOM     19  C   UNL     1       1.030   2.881  20.308  0.00  0.00    +0.000 A 
ATOM     20  C   UNL     1       1.084   2.836  18.918  0.00  0.00    +0.000 A 
ATOM     21  C   UNL     1       1.850   3.772  18.216  0.00  0.00    +0.000 A 
ENDBRANCH  14  16
ENDBRANCH   4  14
TORSDOF 3
ENDMDL
MODEL 7
REMARK VINA RESULT:      -8.0      1.793      6.353
REMARK  Name = 
REMARK  3 active torsions:
REMARK  status: ('A' for Active; 'I' for Inactive)
REMARK    1  A    between atoms: C_4  and  N_5
REMARK    2  A    between atoms: N_5  and  C_6
REMARK    3  A    between atoms: C_13  and  C_14
REMARK                            x       y       z     vdW  Elec       q    Type
REMARK                         _______ _______ _______ _____ _____    ______ ____
ROOT
ATOM      1  O   UNL     1       7.846   5.418  20.209  0.00  0.00    +0.000 OA
ATOM      2  C   UNL     1       6.970   5.388  19.352  0.00  0.00    +0.000 A 
ATOM      3  C   UNL     1       7.273   5.755  17.964  0.00  0.00    +0.000 A 
ATOM      4  C   UNL     1       6.339   5.740  17.001  0.00  0.00    +0.000 A 
ATOM      5  C   UNL     1       5.010   5.293  17.348  0.00  0.00    +0.000 A 
ATOM      6  C   UNL     1       4.705   4.979  18.617  0.00  0.00    +0.000 A 
ATOM      7  O   UNL     1       5.684   5.027  19.638  0.00  0.00    +0.000 OA
ENDROOT
BRANCH   6   8
ATOM      8  C   UNL     1       3.370   4.531  19.059  0.00  0.00    +0.000 A 
ATOM      9  C   UNL     1       2.920   4.834  20.354  0.00  0.00    +0.000 A 
ATOM     10  C   UNL     1       1.668   4.404  20.801  0.00  0.00    +0.000 A 
ATOM     11  C   UNL     1       0.839   3.670  19.957  0.00  0.00    +0.000 A 
ATOM     12  C   UNL     1       1.256   3.379  18.661  0.00  0.00    +0.000 A 
ATOM     13  C   UNL     1       2.508   3.812  18.214  0.00  0.00    +0.000 A 
ENDBRANCH   6   8
BRANCH   4  14
ATOM     14  N   UNL     1       6.577   6.087  15.684  0.00  0.00    +0.000 N 
ATOM     15  H   UNL     1       7.321   6.769  15.560  0.00  0.00    +0.000 HD
BRANCH  14  16
ATOM     16  C   UNL     1       6.519   5.206  14.575  0.00  0.00    +0.000 A 
ATOM     17  C   UNL     1       5.440   4.348  14.327  0.00  0.00    +0.000 A 
ATOM     18  C   UNL     1       5.408   3.540  13.187  0.00  0.00    +0.000 A 
ATOM     19  C   UNL     1       6.452   3.587  12.269  0.00  0.00    +0.000 A 
ATOM     20  C   UNL     1       7.528   4.442  12.491  0.00  0.00    +0.000 A 
ATOM     21  C   UNL     1       7.557   5.249  13.632  0.00  0.00    +0.000 A 
ENDBRANCH  14  16
ENDBRANCH   4  14
TORSDOF 3
ENDMDL
MODEL 8
REMARK VINA RESULT:      -8.0      1.763      6.356
REMARK  Name = 
REMARK  3 active torsions:
REMARK  status: ('A' for Active; 'I' for Inactive)
REMARK    1  A    between atoms: C_4  and  N_5
REMARK    2  A    between atoms: N_5  and  C_6
REMARK    3  A    between atoms: C_13  and  C_14
REMARK                            x       y       z     vdW  Elec       q    Type
REMARK                         _______ _______ _______ _____ _____    ______ ____
ROOT
ATOM      1  O   UNL     1       7.740   5.443  20.159  0.00  0.00    +0.000 OA
ATOM      2  C   UNL     1       6.856   5.397  19.311  0.00  0.00    +0.000 A 
ATOM      3  C   UNL     1       7.136   5.783  17.923  0.00  0.00    +0.000 A 
ATOM      4  C   UNL     1       6.192   5.751  16.970  0.00  0.00    +0.000 A 
ATOM      5  C   UNL     1       4.878   5.266  17.327  0.00  0.00    +0.000 A 
ATOM      6  C   UNL     1       4.596   4.935  18.595  0.00  0.00    +0.000 A 
ATOM      7  O   UNL     1       5.583   5.000  19.607  0.00  0.00    +0.000 OA
ENDROOT
BRANCH   6   8
ATOM      8  C   UNL     1       3.277   4.448  19.048  0.00  0.00    +0.000 A 
ATOM      9  C   UNL     1       2.572   3.510  18.277  0.00  0.00    +0.000 A 
ATOM     10  C   UNL     1       1.314   3.049  18.676  0.00  0.00    +0.000 A 
ATOM     11  C   UNL     1       0.744   3.512  19.859  0.00  0.00    +0.000 A 
ATOM     12  C   UNL     1       1.437   4.424  20.650  0.00  0.00    +0.000 A 
ATOM     13  C   UNL     1       2.697   4.883  20.251  0.00  0.00    +0.000 A 
ENDBRANCH   6   8
BRANCH   4  14
ATOM     14  N   UNL     1       6.407   6.115  15.653  0.00  0.00    +0.000 N 
ATOM     15  H   UNL     1       7.075   6.872  15.533  0.00  0.00    +0.000 HD
BRANCH  14  16
ATOM     16  C   UNL     1       6.458   5.226  14.550  0.00  0.00    +0.000 A 
ATOM     17  C   UNL     1       5.470   4.270  14.282  0.00  0.00    +0.000 A 
ATOM     18  C   UNL     1       5.541   3.456  13.148  0.00  0.00    +0.000 A 
ATOM     19  C   UNL     1       6.597   3.597  12.253  0.00  0.00    +0.000 A 
ATOM     20  C   UNL     1       7.582   4.551  12.494  0.00  0.00    +0.000 A 
ATOM     21  C   UNL     1       7.509   5.363  13.630  0.00  0.00    +0.000 A 
ENDBRANCH  14  16
ENDBRANCH   4  14
TORSDOF 3
ENDMDL
MODEL 9
REMARK VINA RESULT:      -7.9      1.123      1.735
REMARK  Name = 
REMARK  3 active torsions:
REMARK  status: ('A' for Active; 'I' for Inactive)
REMARK    1  A    between atoms: C_4  and  N_5
REMARK    2  A    between atoms: N_5  and  C_6
REMARK    3  A    between atoms: C_13  and  C_14
REMARK                            x       y       z     vdW  Elec       q    Type
REMARK                         _______ _______ _______ _____ _____    ______ ____
ROOT
ATOM      1  O   UNL     1       8.044   7.284  17.951  0.00  0.00    +0.000 OA
ATOM      2  C   UNL     1       7.119   6.681  17.420  0.00  0.00    +0.000 A 
ATOM      3  C   UNL     1       5.814   6.586  18.085  0.00  0.00    +0.000 A 
ATOM      4  C   UNL     1       4.780   5.929  17.537  0.00  0.00    +0.000 A 
ATOM      5  C   UNL     1       4.959   5.349  16.226  0.00  0.00    +0.000 A 
ATOM      6  C   UNL     1       6.151   5.401  15.614  0.00  0.00    +0.000 A 
ATOM      7  O   UNL     1       7.250   6.067  16.207  0.00  0.00    +0.000 OA
ENDROOT
BRANCH   6   8
ATOM      8  C   UNL     1       6.424   4.821  14.283  0.00  0.00    +0.000 A 
ATOM      9  C   UNL     1       7.528   5.263  13.537  0.00  0.00    +0.000 A 
ATOM     10  C   UNL     1       7.794   4.741  12.268  0.00  0.00    +0.000 A 
ATOM     11  C   UNL     1       6.966   3.762  11.728  0.00  0.00    +0.000 A 
ATOM     12  C   UNL     1       5.880   3.293  12.461  0.00  0.00    +0.000 A 
ATOM     13  C   UNL     1       5.615   3.813  13.732  0.00  0.00    +0.000 A 
ENDBRANCH   6   8
BRANCH   4  14
ATOM     14  N   UNL     1       3.537   5.804  18.131  0.00  0.00    +0.000 N 
ATOM     15  H   UNL     1       2.841   6.458  17.782  0.00  0.00    +0.000 HD
BRANCH  14  16
ATOM     16  C   UNL     1       2.928   4.585  18.520  0.00  0.00    +0.000 A 
ATOM     17  C   UNL     1       1.649   4.195  18.105  0.00  0.00    +0.000 A 
ATOM     18  C   UNL     1       1.118   2.955  18.472  0.00  0.00    +0.000 A 
ATOM     19  C   UNL     1       1.866   2.078  19.251  0.00  0.00    +0.000 A 
ATOM     20  C   UNL     1       3.145   2.442  19.663  0.00  0.00    +0.000 A 
ATOM     21  C   UNL     1       3.673   3.684  19.294  0.00  0.00    +0.000 A 
ENDBRANCH  14  16
ENDBRANCH   4  14
TORSDOF 3
ENDMDL
