MODEL 1
REMARK VINA RESULT:      -7.6      0.000      0.000
REMARK  Name = 
REMARK  7 active torsions:
REMARK  status: ('A' for Active; 'I' for Inactive)
REMARK    1  A    between atoms: C_1  and  C_2
REMARK    2  A    between atoms: C_2  and  C_3
REMARK    3  A    between atoms: C_2  and  O_4
REMARK    4  A    between atoms: O_4  and  C_5
REMARK    5  A    between atoms: C_11  and  C_12
REMARK    6  A    between atoms: N_16  and  C_17
REMARK    7  A    between atoms: C_17  and  C_18
REMARK                            x       y       z     vdW  Elec       q    Type
REMARK                         _______ _______ _______ _____ _____    ______ ____
ROOT
ATOM      1  C   UNL     1       6.337   4.440  14.095  0.00  0.00    +0.000 C 
ATOM      2  O   UNL     1       7.453   4.580  13.611  0.00  0.00    +0.000 OA
ATOM      3  N   UNL     1       5.963   4.954  15.323  0.00  0.00    +0.000 N 
ATOM      4  C   UNL     1       6.962   5.576  16.184  0.00  0.00    +0.000 C 
ATOM      5  C   UNL     1       7.174   4.729  17.439  0.00  0.00    +0.000 C 
ATOM      6  C   UNL     1       5.848   4.417  18.143  0.00  0.00    +0.000 C 
ATOM      7  C   UNL     1       4.835   3.787  17.167  0.00  0.00    +0.000 C 
ATOM      8  C   UNL     1       4.661   4.714  15.951  0.00  0.00    +0.000 C 
ENDROOT
BRANCH   7   9
ATOM      9  C   UNL     1       3.526   3.522  17.847  0.00  0.00    +0.000 A 
ATOM     10  N   UNL     1       2.668   2.588  17.480  0.00  0.00    +0.000 NA
ATOM     11  C   UNL     1       1.612   2.674  18.341  0.00  0.00    +0.000 A 
ATOM     12  C   UNL     1       1.808   3.684  19.246  0.00  0.00    +0.000 A 
ATOM     13  N   UNL     1       3.034   4.218  18.935  0.00  0.00    +0.000 N 
BRANCH  13  14
ATOM     14  C   UNL     1       3.615   5.376  19.603  0.00  0.00    +0.000 C 
BRANCH  14  15
ATOM     15  C   UNL     1       2.872   6.646  19.281  0.00  0.00    +0.000 A 
ATOM     16  C   UNL     1       2.986   7.249  18.025  0.00  0.00    +0.000 A 
ATOM     17  C   UNL     1       2.317   8.440  17.789  0.00  0.00    +0.000 A 
ATOM     18  N   UNL     1       1.538   9.056  18.702  0.00  0.00    +0.000 NA
ATOM     19  C   UNL     1       1.425   8.457  19.905  0.00  0.00    +0.000 A 
ATOM     20  C   UNL     1       2.060   7.268  20.238  0.00  0.00    +0.000 A 
ENDBRANCH  14  15
ENDBRANCH  13  14
ENDBRANCH   7   9
BRANCH   1  21
ATOM     21  O   UNL     1       5.340   3.730  13.498  0.00  0.00    +0.000 OA
BRANCH  21  23
ATOM     22  C   UNL     1       6.164   2.160  11.843  0.00  0.00    +0.000 C 
ATOM     23  C   UNL     1       5.483   3.504  12.082  0.00  0.00    +0.000 C 
ATOM     24  C   UNL     1       4.085   3.499  11.471  0.00  0.00    +0.000 C 
ENDBRANCH  21  23
ENDBRANCH   1  21
TORSDOF 5
ENDMDL
MODEL 2
REMARK VINA RESULT:      -7.5      0.827      1.027
REMARK  Name = 
REMARK  7 active torsions:
REMARK  status: ('A' for Active; 'I' for Inactive)
REMARK    1  A    between atoms: C_1  and  C_2
REMARK    2  A    between atoms: C_2  and  C_3
REMARK    3  A    between atoms: C_2  and  O_4
REMARK    4  A    between atoms: O_4  and  C_5
REMARK    5  A    between atoms: C_11  and  C_12
REMARK    6  A    between atoms: N_16  and  C_17
REMARK    7  A    between atoms: C_17  and  C_18
REMARK                            x       y       z     vdW  Elec       q    Type
REMARK                         _______ _______ _______ _____ _____    ______ ____
ROOT
ATOM      1  C   UNL     1       6.703   4.991  14.849  0.00  0.00    +0.000 C 
ATOM      2  O   UNL     1       7.876   5.154  14.538  0.00  0.00    +0.000 OA
ATOM      3  N   UNL     1       6.152   5.451  16.031  0.00  0.00    +0.000 N 
ATOM      4  C   UNL     1       7.012   6.037  17.052  0.00  0.00    +0.000 C 
ATOM      5  C   UNL     1       7.048   5.137  18.288  0.00  0.00    +0.000 C 
ATOM      6  C   UNL     1       5.637   4.793  18.780  0.00  0.00    +0.000 C 
ATOM      7  C   UNL     1       4.780   4.203  17.642  0.00  0.00    +0.000 C 
ATOM      8  C   UNL     1       4.775   5.182  16.454  0.00  0.00    +0.000 C 
ENDROOT
BRANCH   7   9
ATOM      9  C   UNL     1       3.389   3.907  18.114  0.00  0.00    +0.000 A 
ATOM     10  N   UNL     1       2.615   2.961  17.614  0.00  0.00    +0.000 NA
ATOM     11  C   UNL     1       1.440   3.018  18.307  0.00  0.00    +0.000 A 
ATOM     12  C   UNL     1       1.477   4.021  19.240  0.00  0.00    +0.000 A 
ATOM     13  N   UNL     1       2.725   4.580  19.122  0.00  0.00    +0.000 N 
BRANCH  13  14
ATOM     14  C   UNL     1       3.176   5.741  19.880  0.00  0.00    +0.000 C 
BRANCH  14  15
ATOM     15  C   UNL     1       2.472   7.003  19.453  0.00  0.00    +0.000 A 
ATOM     16  C   UNL     1       2.549   7.460  18.135  0.00  0.00    +0.000 A 
ATOM     17  C   UNL     1       1.921   8.649  17.799  0.00  0.00    +0.000 A 
ATOM     18  N   UNL     1       1.215   9.397  18.672  0.00  0.00    +0.000 NA
ATOM     19  C   UNL     1       1.137   8.938  19.938  0.00  0.00    +0.000 A 
ATOM     20  C   UNL     1       1.736   7.763  20.371  0.00  0.00    +0.000 A 
ENDBRANCH  14  15
ENDBRANCH  13  14
ENDBRANCH   7   9
BRANCH   1  21
ATOM     21  O   UNL     1       5.808   4.306  14.085  0.00  0.00    +0.000 OA
BRANCH  21  23
ATOM     22  C   UNL     1       5.174   3.215  12.013  0.00  0.00    +0.000 C 
ATOM     23  C   UNL     1       6.328   3.708  12.882  0.00  0.00    +0.000 C 
ATOM     24  C   UNL     1       7.123   4.777  12.139  0.00  0.00    +0.000 C 
ENDBRANCH  21  23
ENDBRANCH   1  21
TORSDOF 5
ENDMDL
MODEL 3
REMARK VINA RESULT:      -7.3      2.698      4.922
REMARK  Name = 
REMARK  7 active torsions:
REMARK  status: ('A' for Active; 'I' for Inactive)
REMARK    1  A    between atoms: C_1  and  C_2
REMARK    2  A    between atoms: C_2  and  C_3
REMARK    3  A    between atoms: C_2  and  O_4
REMARK    4  A    between atoms: O_4  and  C_5
REMARK    5  A    between atoms: C_11  and  C_12
REMARK    6  A    between atoms: N_16  and  C_17
REMARK    7  A    between atoms: C_17  and  C_18
REMARK                            x       y       z     vdW  Elec       q    Type
REMARK                         _______ _______ _______ _____ _____    ______ ____
ROOT
ATOM      1  C   UNL     1       5.735   5.256  17.110  0.00  0.00    +0.000 C 
ATOM      2  O   UNL     1       6.174   4.577  16.191  0.00  0.00    +0.000 OA
ATOM      3  N   UNL     1       4.725   4.838  17.957  0.00  0.00    +0.000 N 
ATOM      4  C   UNL     1       4.020   3.592  17.687  0.00  0.00    +0.000 C 
ATOM      5  C   UNL     1       2.566   3.882  17.309  0.00  0.00    +0.000 C 
ATOM      6  C   UNL     1       1.879   4.777  18.347  0.00  0.00    +0.000 C 
ATOM      7  C   UNL     1       2.693   6.062  18.600  0.00  0.00    +0.000 C 
ATOM      8  C   UNL     1       4.129   5.679  19.000  0.00  0.00    +0.000 C 
ENDROOT
BRANCH   7   9
ATOM      9  C   UNL     1       2.041   6.915  19.644  0.00  0.00    +0.000 A 
ATOM     10  N   UNL     1       1.703   6.494  20.850  0.00  0.00    +0.000 NA
ATOM     11  C   UNL     1       1.140   7.563  21.487  0.00  0.00    +0.000 A 
ATOM     12  C   UNL     1       1.114   8.658  20.664  0.00  0.00    +0.000 A 
ATOM     13  N   UNL     1       1.697   8.245  19.492  0.00  0.00    +0.000 N 
BRANCH  13  14
ATOM     14  C   UNL     1       1.814   9.075  18.299  0.00  0.00    +0.000 C 
BRANCH  14  15
ATOM     15  C   UNL     1       0.922  10.288  18.365  0.00  0.00    +0.000 A 
ATOM     16  C   UNL     1      -0.447  10.189  18.104  0.00  0.00    +0.000 A 
ATOM     17  C   UNL     1      -1.220  11.340  18.134  0.00  0.00    +0.000 A 
ATOM     18  N   UNL     1      -0.732  12.564  18.420  0.00  0.00    +0.000 NA
ATOM     19  C   UNL     1       0.588  12.643  18.685  0.00  0.00    +0.000 A 
ATOM     20  C   UNL     1       1.444  11.551  18.673  0.00  0.00    +0.000 A 
ENDBRANCH  14  15
ENDBRANCH  13  14
ENDBRANCH   7   9
BRANCH   1  21
ATOM     21  O   UNL     1       6.163   6.519  17.385  0.00  0.00    +0.000 OA
BRANCH  21  23
ATOM     22  C   UNL     1       7.933   8.153  17.665  0.00  0.00    +0.000 C 
ATOM     23  C   UNL     1       7.573   6.671  17.634  0.00  0.00    +0.000 C 
ATOM     24  C   UNL     1       7.877   6.029  18.985  0.00  0.00    +0.000 C 
ENDBRANCH  21  23
ENDBRANCH   1  21
TORSDOF 5
ENDMDL
MODEL 4
REMARK VINA RESULT:      -7.3      1.178      1.605
REMARK  Name = 
REMARK  7 active torsions:
REMARK  status: ('A' for Active; 'I' for Inactive)
REMARK    1  A    between atoms: C_1  and  C_2
REMARK    2  A    between atoms: C_2  and  C_3
REMARK    3  A    between atoms: C_2  and  O_4
REMARK    4  A    between atoms: O_4  and  C_5
REMARK    5  A    between atoms: C_11  and  C_12
REMARK    6  A    between atoms: N_16  and  C_17
REMARK    7  A    between atoms: C_17  and  C_18
REMARK                            x       y       z     vdW  Elec       q    Type
REMARK                         _______ _______ _______ _____ _____    ______ ____
ROOT
ATOM      1  C   UNL     1       6.726   4.830  14.623  0.00  0.00    +0.000 C 
ATOM      2  O   UNL     1       7.743   5.438  14.309  0.00  0.00    +0.000 OA
ATOM      3  N   UNL     1       5.919   5.186  15.688  0.00  0.00    +0.000 N 
ATOM      4  C   UNL     1       6.340   6.244  16.598  0.00  0.00    +0.000 C 
ATOM      5  C   UNL     1       6.635   5.661  17.980  0.00  0.00    +0.000 C 
ATOM      6  C   UNL     1       5.465   4.817  18.501  0.00  0.00    +0.000 C 
ATOM      7  C   UNL     1       5.058   3.739  17.478  0.00  0.00    +0.000 C 
ATOM      8  C   UNL     1       4.753   4.413  16.127  0.00  0.00    +0.000 C 
ENDROOT
BRANCH   7   9
ATOM      9  C   UNL     1       3.888   2.944  17.970  0.00  0.00    +0.000 A 
ATOM     10  N   UNL     1       3.969   1.723  18.467  0.00  0.00    +0.000 NA
ATOM     11  C   UNL     1       2.695   1.354  18.793  0.00  0.00    +0.000 A 
ATOM     12  C   UNL     1       1.808   2.351  18.480  0.00  0.00    +0.000 A 
ATOM     13  N   UNL     1       2.572   3.368  17.964  0.00  0.00    +0.000 N 
BRANCH  13  14
ATOM     14  C   UNL     1       2.028   4.610  17.428  0.00  0.00    +0.000 C 
BRANCH  14  15
ATOM     15  C   UNL     1       2.033   5.716  18.450  0.00  0.00    +0.000 A 
ATOM     16  C   UNL     1       1.836   5.444  19.807  0.00  0.00    +0.000 A 
ATOM     17  C   UNL     1       1.806   6.499  20.706  0.00  0.00    +0.000 A 
ATOM     18  N   UNL     1       1.973   7.790  20.352  0.00  0.00    +0.000 NA
ATOM     19  C   UNL     1       2.176   8.038  19.042  0.00  0.00    +0.000 A 
ATOM     20  C   UNL     1       2.217   7.051  18.067  0.00  0.00    +0.000 A 
ENDBRANCH  14  15
ENDBRANCH  13  14
ENDBRANCH   7   9
BRANCH   1  21
ATOM     21  O   UNL     1       6.290   3.710  13.984  0.00  0.00    +0.000 OA
BRANCH  21  23
ATOM     22  C   UNL     1       7.105   2.857  11.865  0.00  0.00    +0.000 C 
ATOM     23  C   UNL     1       6.138   3.814  12.555  0.00  0.00    +0.000 C 
ATOM     24  C   UNL     1       4.698   3.441  12.214  0.00  0.00    +0.000 C 
ENDBRANCH  21  23
ENDBRANCH   1  21
TORSDOF 5
ENDMDL
MODEL 5
REMARK VINA RESULT:      -7.2      0.976      1.545
REMARK  Name = 
REMARK  7 active torsions:
REMARK  status: ('A' for Active; 'I' for Inactive)
REMARK    1  A    between atoms: C_1  and  C_2
REMARK    2  A    between atoms: C_2  and  C_3
REMARK    3  A    between atoms: C_2  and  O_4
REMARK    4  A    between atoms: O_4  and  C_5
REMARK    5  A    between atoms: C_11  and  C_12
REMARK    6  A    between atoms: N_16  and  C_17
REMARK    7  A    between atoms: C_17  and  C_18
REMARK                            x       y       z     vdW  Elec       q    Type
REMARK                         _______ _______ _______ _____ _____    ______ ____
ROOT
ATOM      1  C   UNL     1       6.865   5.322  15.040  0.00  0.00    +0.000 C 
ATOM      2  O   UNL     1       8.053   5.391  14.753  0.00  0.00    +0.000 OA
ATOM      3  N   UNL     1       6.362   5.611  16.296  0.00  0.00    +0.000 N 
ATOM      4  C   UNL     1       7.275   5.873  17.401  0.00  0.00    +0.000 C 
ATOM      5  C   UNL     1       7.179   4.753  18.438  0.00  0.00    +0.000 C 
ATOM      6  C   UNL     1       5.730   4.502  18.870  0.00  0.00    +0.000 C 
ATOM      7  C   UNL     1       4.820   4.259  17.650  0.00  0.00    +0.000 C 
ATOM      8  C   UNL     1       4.955   5.442  16.675  0.00  0.00    +0.000 C 
ENDROOT
BRANCH   7   9
ATOM      9  C   UNL     1       3.397   4.056  18.071  0.00  0.00    +0.000 A 
ATOM     10  N   UNL     1       2.582   3.157  17.549  0.00  0.00    +0.000 NA
ATOM     11  C   UNL     1       1.388   3.295  18.197  0.00  0.00    +0.000 A 
ATOM     12  C   UNL     1       1.456   4.302  19.124  0.00  0.00    +0.000 A 
ATOM     13  N   UNL     1       2.740   4.780  19.049  0.00  0.00    +0.000 N 
BRANCH  13  14
ATOM     14  C   UNL     1       3.237   5.916  19.816  0.00  0.00    +0.000 C 
BRANCH  14  15
ATOM     15  C   UNL     1       2.502   7.188  19.481  0.00  0.00    +0.000 A 
ATOM     16  C   UNL     1       1.684   7.816  20.424  0.00  0.00    +0.000 A 
ATOM     17  C   UNL     1       0.993   8.961  20.057  0.00  0.00    +0.000 A 
ATOM     18  N   UNL     1       1.073   9.525  18.835  0.00  0.00    +0.000 NA
ATOM     19  C   UNL     1       1.877   8.917  17.938  0.00  0.00    +0.000 A 
ATOM     20  C   UNL     1       2.603   7.766  18.209  0.00  0.00    +0.000 A 
ENDBRANCH  14  15
ENDBRANCH  13  14
ENDBRANCH   7   9
BRANCH   1  21
ATOM     21  O   UNL     1       5.901   4.918  14.168  0.00  0.00    +0.000 OA
BRANCH  21  23
ATOM     22  C   UNL     1       5.044   3.392  12.489  0.00  0.00    +0.000 C 
ATOM     23  C   UNL     1       6.278   3.885  13.239  0.00  0.00    +0.000 C 
ATOM     24  C   UNL     1       7.281   4.487  12.259  0.00  0.00    +0.000 C 
ENDBRANCH  21  23
ENDBRANCH   1  21
TORSDOF 5
ENDMDL
MODEL 6
REMARK VINA RESULT:      -7.1      2.754      5.076
REMARK  Name = 
REMARK  7 active torsions:
REMARK  status: ('A' for Active; 'I' for Inactive)
REMARK    1  A    between atoms: C_1  and  C_2
REMARK    2  A    between atoms: C_2  and  C_3
REMARK    3  A    between atoms: C_2  and  O_4
REMARK    4  A    between atoms: O_4  and  C_5
REMARK    5  A    between atoms: C_11  and  C_12
REMARK    6  A    between atoms: N_16  and  C_17
REMARK    7  A    between atoms: C_17  and  C_18
REMARK                            x       y       z     vdW  Elec       q    Type
REMARK                         _______ _______ _______ _____ _____    ______ ____
ROOT
ATOM      1  C   UNL     1       5.554   5.220  17.223  0.00  0.00    +0.000 C 
ATOM      2  O   UNL     1       5.957   4.519  16.303  0.00  0.00    +0.000 OA
ATOM      3  N   UNL     1       4.500   4.872  18.047  0.00  0.00    +0.000 N 
ATOM      4  C   UNL     1       3.706   3.686  17.749  0.00  0.00    +0.000 C 
ATOM      5  C   UNL     1       2.286   4.092  17.351  0.00  0.00    +0.000 C 
ATOM      6  C   UNL     1       1.651   5.025  18.388  0.00  0.00    +0.000 C 
ATOM      7  C   UNL     1       2.557   6.240  18.671  0.00  0.00    +0.000 C 
ATOM      8  C   UNL     1       3.952   5.744  19.091  0.00  0.00    +0.000 C 
ENDROOT
BRANCH   7   9
ATOM      9  C   UNL     1       1.954   7.129  19.715  0.00  0.00    +0.000 A 
ATOM     10  N   UNL     1       1.729   6.768  20.966  0.00  0.00    +0.000 NA
ATOM     11  C   UNL     1       1.174   7.851  21.585  0.00  0.00    +0.000 A 
ATOM     12  C   UNL     1       1.038   8.894  20.707  0.00  0.00    +0.000 A 
ATOM     13  N   UNL     1       1.545   8.435  19.517  0.00  0.00    +0.000 N 
BRANCH  13  14
ATOM     14  C   UNL     1       1.534   9.197  18.274  0.00  0.00    +0.000 C 
BRANCH  14  15
ATOM     15  C   UNL     1       0.407  10.196  18.234  0.00  0.00    +0.000 A 
ATOM     16  C   UNL     1       0.579  11.496  18.717  0.00  0.00    +0.000 A 
ATOM     17  C   UNL     1      -0.499  12.367  18.699  0.00  0.00    +0.000 A 
ATOM     18  N   UNL     1      -1.718  12.041  18.223  0.00  0.00    +0.000 NA
ATOM     19  C   UNL     1      -1.867  10.788  17.746  0.00  0.00    +0.000 A 
ATOM     20  C   UNL     1      -0.850   9.844  17.727  0.00  0.00    +0.000 A 
ENDBRANCH  14  15
ENDBRANCH  13  14
ENDBRANCH   7   9
BRANCH   1  21
ATOM     21  O   UNL     1       6.073   6.443  17.522  0.00  0.00    +0.000 OA
BRANCH  21  23
ATOM     22  C   UNL     1       7.963   7.958  17.657  0.00  0.00    +0.000 C 
ATOM     23  C   UNL     1       7.503   6.503  17.686  0.00  0.00    +0.000 C 
ATOM     24  C   UNL     1       7.841   5.873  19.034  0.00  0.00    +0.000 C 
ENDBRANCH  21  23
ENDBRANCH   1  21
TORSDOF 5
ENDMDL
MODEL 7
REMARK VINA RESULT:      -7.0      2.831      6.818
REMARK  Name = 
REMARK  7 active torsions:
REMARK  status: ('A' for Active; 'I' for Inactive)
REMARK    1  A    between atoms: C_1  and  C_2
REMARK    2  A    between atoms: C_2  and  C_3
REMARK    3  A    between atoms: C_2  and  O_4
REMARK    4  A    between atoms: O_4  and  C_5
REMARK    5  A    between atoms: C_11  and  C_12
REMARK    6  A    between atoms: N_16  and  C_17
REMARK    7  A    between atoms: C_17  and  C_18
REMARK                            x       y       z     vdW  Elec       q    Type
REMARK                         _______ _______ _______ _____ _____    ______ ____
ROOT
ATOM      1  C   UNL     1       1.769   4.346  20.338  0.00  0.00    +0.000 C 
ATOM      2  O   UNL     1       0.587   4.585  20.552  0.00  0.00    +0.000 OA
ATOM      3  N   UNL     1       2.701   5.315  20.014  0.00  0.00    +0.000 N 
ATOM      4  C   UNL     1       2.267   6.683  19.760  0.00  0.00    +0.000 C 
ATOM      5  C   UNL     1       2.486   7.039  18.289  0.00  0.00    +0.000 C 
ATOM      6  C   UNL     1       3.924   6.745  17.843  0.00  0.00    +0.000 C 
ATOM      7  C   UNL     1       4.320   5.291  18.166  0.00  0.00    +0.000 C 
ATOM      8  C   UNL     1       4.096   5.028  19.666  0.00  0.00    +0.000 C 
ENDROOT
BRANCH   7   9
ATOM      9  C   UNL     1       5.738   5.019  17.768  0.00  0.00    +0.000 A 
ATOM     10  N   UNL     1       6.698   4.672  18.607  0.00  0.00    +0.000 NA
ATOM     11  C   UNL     1       7.830   4.522  17.858  0.00  0.00    +0.000 A 
ATOM     12  C   UNL     1       7.576   4.793  16.539  0.00  0.00    +0.000 A 
ATOM     13  N   UNL     1       6.240   5.101  16.482  0.00  0.00    +0.000 N 
BRANCH  13  14
ATOM     14  C   UNL     1       5.549   5.529  15.271  0.00  0.00    +0.000 C 
BRANCH  14  15
ATOM     15  C   UNL     1       6.046   4.799  14.050  0.00  0.00    +0.000 A 
ATOM     16  C   UNL     1       7.220   5.194  13.404  0.00  0.00    +0.000 A 
ATOM     17  C   UNL     1       7.615   4.520  12.259  0.00  0.00    +0.000 A 
ATOM     18  N   UNL     1       6.937   3.481  11.729  0.00  0.00    +0.000 NA
ATOM     19  C   UNL     1       5.813   3.101  12.370  0.00  0.00    +0.000 A 
ATOM     20  C   UNL     1       5.335   3.716  13.518  0.00  0.00    +0.000 A 
ENDBRANCH  14  15
ENDBRANCH  13  14
ENDBRANCH   7   9
BRANCH   1  21
ATOM     21  O   UNL     1       2.300   3.092  20.359  0.00  0.00    +0.000 OA
BRANCH  21  23
ATOM     22  C   UNL     1       1.284   3.063  18.156  0.00  0.00    +0.000 C 
ATOM     23  C   UNL     1       1.953   2.238  19.253  0.00  0.00    +0.000 C 
ATOM     24  C   UNL     1       3.241   1.614  18.727  0.00  0.00    +0.000 C 
ENDBRANCH  21  23
ENDBRANCH   1  21
TORSDOF 5
ENDMDL
MODEL 8
REMARK VINA RESULT:      -7.0      0.909      1.042
REMARK  Name = 
REMARK  7 active torsions:
REMARK  status: ('A' for Active; 'I' for Inactive)
REMARK    1  A    between atoms: C_1  and  C_2
REMARK    2  A    between atoms: C_2  and  C_3
REMARK    3  A    between atoms: C_2  and  O_4
REMARK    4  A    between atoms: O_4  and  C_5
REMARK    5  A    between atoms: C_11  and  C_12
REMARK    6  A    between atoms: N_16  and  C_17
REMARK    7  A    between atoms: C_17  and  C_18
REMARK                            x       y       z     vdW  Elec       q    Type
REMARK                         _______ _______ _______ _____ _____    ______ ____
ROOT
ATOM      1  C   UNL     1       6.284   4.119  13.462  0.00  0.00    +0.000 C 
ATOM      2  O   UNL     1       7.387   4.003  12.942  0.00  0.00    +0.000 OA
ATOM      3  N   UNL     1       6.068   4.767  14.665  0.00  0.00    +0.000 N 
ATOM      4  C   UNL     1       7.203   5.223  15.458  0.00  0.00    +0.000 C 
ATOM      5  C   UNL     1       7.290   4.424  16.758  0.00  0.00    +0.000 C 
ATOM      6  C   UNL     1       5.957   4.426  17.516  0.00  0.00    +0.000 C 
ATOM      7  C   UNL     1       4.802   3.958  16.609  0.00  0.00    +0.000 C 
ATOM      8  C   UNL     1       4.769   4.831  15.341  0.00  0.00    +0.000 C 
ENDROOT
BRANCH   7   9
ATOM      9  C   UNL     1       3.494   4.001  17.337  0.00  0.00    +0.000 A 
ATOM     10  N   UNL     1       2.724   2.950  17.557  0.00  0.00    +0.000 NA
ATOM     11  C   UNL     1       1.634   3.407  18.242  0.00  0.00    +0.000 A 
ATOM     12  C   UNL     1       1.719   4.761  18.437  0.00  0.00    +0.000 A 
ATOM     13  N   UNL     1       2.910   5.136  17.868  0.00  0.00    +0.000 N 
BRANCH  13  14
ATOM     14  C   UNL     1       3.375   6.515  17.779  0.00  0.00    +0.000 C 
BRANCH  14  15
ATOM     15  C   UNL     1       2.510   7.456  18.577  0.00  0.00    +0.000 A 
ATOM     16  C   UNL     1       1.941   8.587  17.985  0.00  0.00    +0.000 A 
ATOM     17  C   UNL     1       1.188   9.447  18.769  0.00  0.00    +0.000 A 
ATOM     18  N   UNL     1       0.951   9.251  20.083  0.00  0.00    +0.000 NA
ATOM     19  C   UNL     1       1.494   8.149  20.638  0.00  0.00    +0.000 A 
ATOM     20  C   UNL     1       2.267   7.233  19.938  0.00  0.00    +0.000 A 
ENDBRANCH  14  15
ENDBRANCH  13  14
ENDBRANCH   7   9
BRANCH   1  21
ATOM     21  O   UNL     1       5.144   3.591  12.938  0.00  0.00    +0.000 OA
BRANCH  21  23
ATOM     22  C   UNL     1       5.727   1.756  11.463  0.00  0.00    +0.000 C 
ATOM     23  C   UNL     1       5.208   3.189  11.556  0.00  0.00    +0.000 C 
ATOM     24  C   UNL     1       3.797   3.273  10.984  0.00  0.00    +0.000 C 
ENDBRANCH  21  23
ENDBRANCH   1  21
TORSDOF 5
ENDMDL
MODEL 9
REMARK VINA RESULT:      -6.7      2.973      7.147
REMARK  Name = 
REMARK  7 active torsions:
REMARK  status: ('A' for Active; 'I' for Inactive)
REMARK    1  A    between atoms: C_1  and  C_2
REMARK    2  A    between atoms: C_2  and  C_3
REMARK    3  A    between atoms: C_2  and  O_4
REMARK    4  A    between atoms: O_4  and  C_5
REMARK    5  A    between atoms: C_11  and  C_12
REMARK    6  A    between atoms: N_16  and  C_17
REMARK    7  A    between atoms: C_17  and  C_18
REMARK                            x       y       z     vdW  Elec       q    Type
REMARK                         _______ _______ _______ _____ _____    ______ ____
ROOT
ATOM      1  C   UNL     1       1.711   5.749  20.605  0.00  0.00    +0.000 C 
ATOM      2  O   UNL     1       0.564   6.144  20.770  0.00  0.00    +0.000 OA
ATOM      3  N   UNL     1       2.690   6.483  19.963  0.00  0.00    +0.000 N 
ATOM      4  C   UNL     1       2.343   7.737  19.304  0.00  0.00    +0.000 C 
ATOM      5  C   UNL     1       2.502   7.596  17.790  0.00  0.00    +0.000 C 
ATOM      6  C   UNL     1       3.887   7.055  17.413  0.00  0.00    +0.000 C 
ATOM      7  C   UNL     1       4.195   5.745  18.165  0.00  0.00    +0.000 C 
ATOM      8  C   UNL     1       4.038   5.982  19.679  0.00  0.00    +0.000 C 
ENDROOT
BRANCH   7   9
ATOM      9  C   UNL     1       5.564   5.240  17.829  0.00  0.00    +0.000 A 
ATOM     10  N   UNL     1       6.615   5.340  18.623  0.00  0.00    +0.000 NA
ATOM     11  C   UNL     1       7.660   4.769  17.954  0.00  0.00    +0.000 A 
ATOM     12  C   UNL     1       7.259   4.322  16.723  0.00  0.00    +0.000 A 
ATOM     13  N   UNL     1       5.920   4.615  16.648  0.00  0.00    +0.000 N 
BRANCH  13  14
ATOM     14  C   UNL     1       5.094   4.378  15.470  0.00  0.00    +0.000 C 
BRANCH  14  15
ATOM     15  C   UNL     1       5.912   4.343  14.205  0.00  0.00    +0.000 A 
ATOM     16  C   UNL     1       5.601   3.457  13.170  0.00  0.00    +0.000 A 
ATOM     17  C   UNL     1       6.408   3.431  12.043  0.00  0.00    +0.000 A 
ATOM     18  N   UNL     1       7.481   4.230  11.871  0.00  0.00    +0.000 NA
ATOM     19  C   UNL     1       7.763   5.090  12.871  0.00  0.00    +0.000 A 
ATOM     20  C   UNL     1       7.019   5.186  14.039  0.00  0.00    +0.000 A 
ENDBRANCH  14  15
ENDBRANCH  13  14
ENDBRANCH   7   9
BRANCH   1  21
ATOM     21  O   UNL     1       2.150   4.523  21.003  0.00  0.00    +0.000 OA
BRANCH  21  23
ATOM     22  C   UNL     1       1.247   3.082  19.273  0.00  0.00    +0.000 C 
ATOM     23  C   UNL     1       1.257   3.419  20.762  0.00  0.00    +0.000 C 
ATOM     24  C   UNL     1       1.765   2.227  21.566  0.00  0.00    +0.000 C 
ENDBRANCH  21  23
ENDBRANCH   1  21
TORSDOF 5
ENDMDL
