MODEL 1
REMARK VINA RESULT:      -8.7      0.000      0.000
REMARK  Name = 
REMARK  5 active torsions:
REMARK  status: ('A' for Active; 'I' for Inactive)
REMARK    1  A    between atoms: C_1  and  O_2
REMARK    2  A    between atoms: O_2  and  C_3
REMARK    3  A    between atoms: C_6  and  C_7
REMARK    4  A    between atoms: C_10  and  N_11
REMARK    5  A    between atoms: N_14  and  C_15
REMARK                            x       y       z     vdW  Elec       q    Type
REMARK                         _______ _______ _______ _____ _____    ______ ____
ROOT
ATOM      1  C   UNL     1       2.677   7.302  18.347  0.00  0.00    +0.000 A 
ATOM      2  C   UNL     1       2.353   7.204  19.702  0.00  0.00    +0.000 A 
ATOM      3  C   UNL     1       1.791   8.274  20.405  0.00  0.00    +0.000 A 
ATOM      4  C   UNL     1       1.416   9.445  19.753  0.00  0.00    +0.000 A 
ATOM      5  C   UNL     1       1.563   9.505  18.369  0.00  0.00    +0.000 A 
ATOM      6  C   UNL     1       2.218   8.460  17.683  0.00  0.00    +0.000 A 
ENDROOT
BRANCH   1  10
ATOM      7  C   UNL     1       5.030   4.291  16.248  0.00  0.00    +0.000 A 
ATOM      8  C   UNL     1       5.331   5.646  16.158  0.00  0.00    +0.000 A 
ATOM      9  C   UNL     1       4.556   6.596  16.827  0.00  0.00    +0.000 A 
ATOM     10  C   UNL     1       3.456   6.248  17.655  0.00  0.00    +0.000 A 
ATOM     11  C   UNL     1       3.170   4.853  17.789  0.00  0.00    +0.000 A 
ATOM     12  C   UNL     1       2.256   3.974  18.476  0.00  0.00    +0.000 A 
ATOM     13  N   UNL     1       1.265   4.328  19.316  0.00  0.00    +0.000 N 
ATOM     14  N   UNL     1       2.471   2.696  18.186  0.00  0.00    +0.000 NA
ATOM     15  O   UNL     1       3.550   2.683  17.331  0.00  0.00    +0.000 OA
ATOM     16  C   UNL     1       3.960   3.945  17.081  0.00  0.00    +0.000 A 
ATOM     17  H   UNL     1       1.261   5.200  19.825  0.00  0.00    +0.000 HD
ATOM     18  H   UNL     1       0.759   3.581  19.791  0.00  0.00    +0.000 HD
BRANCH   7  20
ATOM     19  C   UNL     1       6.361   3.949  14.328  0.00  0.00    +0.000 C 
ATOM     20  O   UNL     1       5.864   3.431  15.559  0.00  0.00    +0.000 OA
ENDBRANCH   7  20
ENDBRANCH   1  10
BRANCH   4  21
ATOM     21  N   UNL     1       0.875  10.550  20.455  0.00  0.00    +0.000 N 
ATOM     22  C   UNL     1      -0.490  10.726  20.670  0.00  0.00    +0.000 C 
ATOM     23  O   UNL     1      -1.353   9.907  20.366  0.00  0.00    +0.000 OA
ATOM     24  N   UNL     1      -0.768  11.949  21.258  0.00  0.00    +0.000 N 
ATOM     25  H   UNL     1       1.492  11.059  21.069  0.00  0.00    +0.000 HD
ATOM     26  H   UNL     1      -0.153  12.696  20.965  0.00  0.00    +0.000 HD
BRANCH  24  27
ATOM     27  C   UNL     1      -2.107  12.312  21.551  0.00  0.00    +0.000 A 
ATOM     28  C   UNL     1      -2.950  12.853  20.573  0.00  0.00    +0.000 A 
ATOM     29  C   UNL     1      -4.260  13.221  20.889  0.00  0.00    +0.000 A 
ATOM     30  C   UNL     1      -4.728  13.071  22.194  0.00  0.00    +0.000 A 
ATOM     31  C   UNL     1      -3.885  12.538  23.170  0.00  0.00    +0.000 A 
ATOM     32 CL   UNL     1      -4.443  12.402  24.792  0.00  0.00    +0.000 Cl
ATOM     33  C   UNL     1      -2.585  12.135  22.850  0.00  0.00    +0.000 A 
ENDBRANCH  24  27
ENDBRANCH   4  21
TORSDOF 4
ENDMDL
MODEL 2
REMARK VINA RESULT:      -8.4      8.768     12.074
REMARK  Name = 
REMARK  5 active torsions:
REMARK  status: ('A' for Active; 'I' for Inactive)
REMARK    1  A    between atoms: C_1  and  O_2
REMARK    2  A    between atoms: O_2  and  C_3
REMARK    3  A    between atoms: C_6  and  C_7
REMARK    4  A    between atoms: C_10  and  N_11
REMARK    5  A    between atoms: N_14  and  C_15
REMARK                            x       y       z     vdW  Elec       q    Type
REMARK                         _______ _______ _______ _____ _____    ______ ____
ROOT
ATOM      1  C   UNL     1       9.847  12.701  19.028  0.00  0.00    +0.000 A 
ATOM      2  C   UNL     1       9.428  12.043  17.869  0.00  0.00    +0.000 A 
ATOM      3  C   UNL     1       9.142  10.674  17.861  0.00  0.00    +0.000 A 
ATOM      4  C   UNL     1       9.146   9.932  19.038  0.00  0.00    +0.000 A 
ATOM      5  C   UNL     1       9.387  10.599  20.238  0.00  0.00    +0.000 A 
ATOM      6  C   UNL     1       9.767  11.957  20.225  0.00  0.00    +0.000 A 
ENDROOT
BRANCH   1  10
ATOM      7  C   UNL     1      11.420  16.766  18.969  0.00  0.00    +0.000 A 
ATOM      8  C   UNL     1      12.243  15.669  19.198  0.00  0.00    +0.000 A 
ATOM      9  C   UNL     1      11.717  14.376  19.228  0.00  0.00    +0.000 A 
ATOM     10  C   UNL     1      10.344  14.097  18.994  0.00  0.00    +0.000 A 
ATOM     11  C   UNL     1       9.501  15.217  18.711  0.00  0.00    +0.000 A 
ATOM     12  C   UNL     1       8.127  15.511  18.387  0.00  0.00    +0.000 A 
ATOM     13  N   UNL     1       7.119  14.630  18.244  0.00  0.00    +0.000 N 
ATOM     14  N   UNL     1       7.911  16.814  18.241  0.00  0.00    +0.000 NA
ATOM     15  O   UNL     1       9.134  17.419  18.428  0.00  0.00    +0.000 OA
ATOM     16  C   UNL     1      10.072  16.491  18.717  0.00  0.00    +0.000 A 
ATOM     17  H   UNL     1       7.267  13.659  18.012  0.00  0.00    +0.000 HD
ATOM     18  H   UNL     1       6.219  14.989  17.928  0.00  0.00    +0.000 HD
BRANCH   7  20
ATOM     19  C   UNL     1      12.333  18.494  17.644  0.00  0.00    +0.000 C 
ATOM     20  O   UNL     1      12.039  18.003  18.948  0.00  0.00    +0.000 OA
ENDBRANCH   7  20
ENDBRANCH   1  10
BRANCH   4  21
ATOM     21  N   UNL     1       8.890   8.538  19.043  0.00  0.00    +0.000 N 
ATOM     22  C   UNL     1       7.980   7.925  18.186  0.00  0.00    +0.000 C 
ATOM     23  O   UNL     1       7.381   8.499  17.282  0.00  0.00    +0.000 OA
ATOM     24  N   UNL     1       7.813   6.581  18.483  0.00  0.00    +0.000 N 
ATOM     25  H   UNL     1       9.589   7.939  19.455  0.00  0.00    +0.000 HD
ATOM     26  H   UNL     1       7.877   6.367  19.469  0.00  0.00    +0.000 HD
BRANCH  24  27
ATOM     27  C   UNL     1       6.920   5.788  17.720  0.00  0.00    +0.000 A 
ATOM     28  C   UNL     1       7.359   5.044  16.618  0.00  0.00    +0.000 A 
ATOM     29  C   UNL     1       6.457   4.285  15.869  0.00  0.00    +0.000 A 
ATOM     30  C   UNL     1       5.103   4.284  16.205  0.00  0.00    +0.000 A 
ATOM     31  C   UNL     1       4.666   5.031  17.299  0.00  0.00    +0.000 A 
ATOM     32 CL   UNL     1       2.988   5.074  17.682  0.00  0.00    +0.000 Cl
ATOM     33  C   UNL     1       5.570   5.764  18.073  0.00  0.00    +0.000 A 
ENDBRANCH  24  27
ENDBRANCH   4  21
TORSDOF 4
ENDMDL
MODEL 3
REMARK VINA RESULT:      -8.3      0.932      1.291
REMARK  Name = 
REMARK  5 active torsions:
REMARK  status: ('A' for Active; 'I' for Inactive)
REMARK    1  A    between atoms: C_1  and  O_2
REMARK    2  A    between atoms: O_2  and  C_3
REMARK    3  A    between atoms: C_6  and  C_7
REMARK    4  A    between atoms: C_10  and  N_11
REMARK    5  A    between atoms: N_14  and  C_15
REMARK                            x       y       z     vdW  Elec       q    Type
REMARK                         _______ _______ _______ _____ _____    ______ ____
ROOT
ATOM      1  C   UNL     1       2.714   7.394  18.270  0.00  0.00    +0.000 A 
ATOM      2  C   UNL     1       2.342   7.313  19.614  0.00  0.00    +0.000 A 
ATOM      3  C   UNL     1       1.787   8.402  20.293  0.00  0.00    +0.000 A 
ATOM      4  C   UNL     1       1.468   9.579  19.623  0.00  0.00    +0.000 A 
ATOM      5  C   UNL     1       1.663   9.628  18.244  0.00  0.00    +0.000 A 
ATOM      6  C   UNL     1       2.310   8.561  17.586  0.00  0.00    +0.000 A 
ENDROOT
BRANCH   1  10
ATOM      7  C   UNL     1       5.045   4.306  16.261  0.00  0.00    +0.000 A 
ATOM      8  C   UNL     1       5.361   5.655  16.139  0.00  0.00    +0.000 A 
ATOM      9  C   UNL     1       4.593   6.630  16.779  0.00  0.00    +0.000 A 
ATOM     10  C   UNL     1       3.484   6.314  17.609  0.00  0.00    +0.000 A 
ATOM     11  C   UNL     1       3.183   4.926  17.777  0.00  0.00    +0.000 A 
ATOM     12  C   UNL     1       2.255   4.075  18.480  0.00  0.00    +0.000 A 
ATOM     13  N   UNL     1       1.264   4.461  19.307  0.00  0.00    +0.000 N 
ATOM     14  N   UNL     1       2.458   2.788  18.224  0.00  0.00    +0.000 NA
ATOM     15  O   UNL     1       3.542   2.742  17.376  0.00  0.00    +0.000 OA
ATOM     16  C   UNL     1       3.967   3.993  17.097  0.00  0.00    +0.000 A 
ATOM     17  H   UNL     1       1.267   5.345  19.793  0.00  0.00    +0.000 HD
ATOM     18  H   UNL     1       0.748   3.731  19.797  0.00  0.00    +0.000 HD
BRANCH   7  20
ATOM     19  C   UNL     1       6.313   3.866  14.319  0.00  0.00    +0.000 C 
ATOM     20  O   UNL     1       5.873   3.419  15.599  0.00  0.00    +0.000 OA
ENDBRANCH   7  20
ENDBRANCH   1  10
BRANCH   4  21
ATOM     21  N   UNL     1       0.935  10.704  20.302  0.00  0.00    +0.000 N 
ATOM     22  C   UNL     1      -0.389  10.785  20.725  0.00  0.00    +0.000 C 
ATOM     23  O   UNL     1      -1.201   9.868  20.646  0.00  0.00    +0.000 OA
ATOM     24  N   UNL     1      -0.693  12.036  21.237  0.00  0.00    +0.000 N 
ATOM     25  H   UNL     1       1.587  11.325  20.755  0.00  0.00    +0.000 HD
ATOM     26  H   UNL     1      -0.211  12.797  20.778  0.00  0.00    +0.000 HD
BRANCH  24  27
ATOM     27  C   UNL     1      -1.999  12.313  21.716  0.00  0.00    +0.000 A 
ATOM     28  C   UNL     1      -2.337  12.140  23.063  0.00  0.00    +0.000 A 
ATOM     29  C   UNL     1      -3.635  12.399  23.509  0.00  0.00    +0.000 A 
ATOM     30  C   UNL     1      -4.611  12.812  22.602  0.00  0.00    +0.000 A 
ATOM     31  C   UNL     1      -4.275  12.977  21.258  0.00  0.00    +0.000 A 
ATOM     32 CL   UNL     1      -5.490  13.435  20.128  0.00  0.00    +0.000 Cl
ATOM     33  C   UNL     1      -2.968  12.753  20.814  0.00  0.00    +0.000 A 
ENDBRANCH  24  27
ENDBRANCH   4  21
TORSDOF 4
ENDMDL
MODEL 4
REMARK VINA RESULT:      -8.3      1.907      2.375
REMARK  Name = 
REMARK  5 active torsions:
REMARK  status: ('A' for Active; 'I' for Inactive)
REMARK    1  A    between atoms: C_1  and  O_2
REMARK    2  A    between atoms: O_2  and  C_3
REMARK    3  A    between atoms: C_6  and  C_7
REMARK    4  A    between atoms: C_10  and  N_11
REMARK    5  A    between atoms: N_14  and  C_15
REMARK                            x       y       z     vdW  Elec       q    Type
REMARK                         _______ _______ _______ _____ _____    ______ ____
ROOT
ATOM      1  C   UNL     1       2.636   7.464  18.430  0.00  0.00    +0.000 A 
ATOM      2  C   UNL     1       2.064   8.517  17.711  0.00  0.00    +0.000 A 
ATOM      3  C   UNL     1       1.073   9.334  18.262  0.00  0.00    +0.000 A 
ATOM      4  C   UNL     1       0.702   9.211  19.598  0.00  0.00    +0.000 A 
ATOM      5  C   UNL     1       1.382   8.288  20.390  0.00  0.00    +0.000 A 
ATOM      6  C   UNL     1       2.311   7.404  19.802  0.00  0.00    +0.000 A 
ENDROOT
BRANCH   1  10
ATOM      7  C   UNL     1       5.333   4.652  16.474  0.00  0.00    +0.000 A 
ATOM      8  C   UNL     1       5.566   6.023  16.451  0.00  0.00    +0.000 A 
ATOM      9  C   UNL     1       4.682   6.909  17.071  0.00  0.00    +0.000 A 
ATOM     10  C   UNL     1       3.532   6.476  17.783  0.00  0.00    +0.000 A 
ATOM     11  C   UNL     1       3.313   5.064  17.852  0.00  0.00    +0.000 A 
ATOM     12  C   UNL     1       2.391   4.116  18.426  0.00  0.00    +0.000 A 
ATOM     13  N   UNL     1       1.310   4.389  19.182  0.00  0.00    +0.000 N 
ATOM     14  N   UNL     1       2.702   2.862  18.122  0.00  0.00    +0.000 NA
ATOM     15  O   UNL     1       3.853   2.934  17.370  0.00  0.00    +0.000 OA
ATOM     16  C   UNL     1       4.214   4.223  17.195  0.00  0.00    +0.000 A 
ATOM     17  H   UNL     1       1.211   5.242  19.712  0.00  0.00    +0.000 HD
ATOM     18  H   UNL     1       0.805   3.601  19.586  0.00  0.00    +0.000 HD
BRANCH   7  20
ATOM     19  C   UNL     1       6.401   4.099  14.442  0.00  0.00    +0.000 C 
ATOM     20  O   UNL     1       6.273   3.860  15.841  0.00  0.00    +0.000 OA
ENDBRANCH   7  20
ENDBRANCH   1  10
BRANCH   4  21
ATOM     21  N   UNL     1      -0.323  10.010  20.164  0.00  0.00    +0.000 N 
ATOM     22  C   UNL     1      -0.124  11.322  20.585  0.00  0.00    +0.000 C 
ATOM     23  O   UNL     1       0.916  11.954  20.425  0.00  0.00    +0.000 OA
ATOM     24  N   UNL     1      -1.241  11.835  21.226  0.00  0.00    +0.000 N 
ATOM     25  H   UNL     1      -1.277   9.738  19.985  0.00  0.00    +0.000 HD
ATOM     26  H   UNL     1      -1.755  11.152  21.766  0.00  0.00    +0.000 HD
BRANCH  24  27
ATOM     27  C   UNL     1      -1.228  13.160  21.731  0.00  0.00    +0.000 A 
ATOM     28  C   UNL     1      -1.026  13.424  23.091  0.00  0.00    +0.000 A 
ATOM     29  C   UNL     1      -1.037  14.736  23.570  0.00  0.00    +0.000 A 
ATOM     30  C   UNL     1      -1.274  15.793  22.691  0.00  0.00    +0.000 A 
ATOM     31  C   UNL     1      -1.482  15.529  21.337  0.00  0.00    +0.000 A 
ATOM     32 CL   UNL     1      -1.827  16.827  20.261  0.00  0.00    +0.000 Cl
ATOM     33  C   UNL     1      -1.436  14.220  20.848  0.00  0.00    +0.000 A 
ENDBRANCH  24  27
ENDBRANCH   4  21
TORSDOF 4
ENDMDL
MODEL 5
REMARK VINA RESULT:      -8.3      1.735      2.184
REMARK  Name = 
REMARK  5 active torsions:
REMARK  status: ('A' for Active; 'I' for Inactive)
REMARK    1  A    between atoms: C_1  and  O_2
REMARK    2  A    between atoms: O_2  and  C_3
REMARK    3  A    between atoms: C_6  and  C_7
REMARK    4  A    between atoms: C_10  and  N_11
REMARK    5  A    between atoms: N_14  and  C_15
REMARK                            x       y       z     vdW  Elec       q    Type
REMARK                         _______ _______ _______ _____ _____    ______ ____
ROOT
ATOM      1  C   UNL     1       2.552   7.435  18.558  0.00  0.00    +0.000 A 
ATOM      2  C   UNL     1       2.035   8.543  17.881  0.00  0.00    +0.000 A 
ATOM      3  C   UNL     1       1.127   9.418  18.483  0.00  0.00    +0.000 A 
ATOM      4  C   UNL     1       0.791   9.291  19.828  0.00  0.00    +0.000 A 
ATOM      5  C   UNL     1       1.426   8.302  20.576  0.00  0.00    +0.000 A 
ATOM      6  C   UNL     1       2.267   7.367  19.939  0.00  0.00    +0.000 A 
ENDROOT
BRANCH   1  10
ATOM      7  C   UNL     1       4.961   4.479  16.444  0.00  0.00    +0.000 A 
ATOM      8  C   UNL     1       5.243   5.839  16.370  0.00  0.00    +0.000 A 
ATOM      9  C   UNL     1       4.450   6.771  17.043  0.00  0.00    +0.000 A 
ATOM     10  C   UNL     1       3.349   6.399  17.860  0.00  0.00    +0.000 A 
ATOM     11  C   UNL     1       3.083   4.998  17.979  0.00  0.00    +0.000 A 
ATOM     12  C   UNL     1       2.177   4.100  18.650  0.00  0.00    +0.000 A 
ATOM     13  N   UNL     1       1.176   4.431  19.488  0.00  0.00    +0.000 N 
ATOM     14  N   UNL     1       2.412   2.828  18.349  0.00  0.00    +0.000 NA
ATOM     15  O   UNL     1       3.498   2.840  17.501  0.00  0.00    +0.000 OA
ATOM     16  C   UNL     1       3.891   4.110  17.267  0.00  0.00    +0.000 A 
ATOM     17  H   UNL     1       1.156   5.297  20.005  0.00  0.00    +0.000 HD
ATOM     18  H   UNL     1       0.678   3.672  19.951  0.00  0.00    +0.000 HD
BRANCH   7  20
ATOM     19  C   UNL     1       6.600   4.284  14.756  0.00  0.00    +0.000 C 
ATOM     20  O   UNL     1       5.812   3.638  15.752  0.00  0.00    +0.000 OA
ENDBRANCH   7  20
ENDBRANCH   1  10
BRANCH   4  21
ATOM     21  N   UNL     1      -0.152  10.149  20.446  0.00  0.00    +0.000 N 
ATOM     22  C   UNL     1       0.184  11.380  21.002  0.00  0.00    +0.000 C 
ATOM     23  O   UNL     1       1.297  11.894  20.934  0.00  0.00    +0.000 OA
ATOM     24  N   UNL     1      -0.887  11.960  21.664  0.00  0.00    +0.000 N 
ATOM     25  H   UNL     1      -1.125  10.014  20.216  0.00  0.00    +0.000 HD
ATOM     26  H   UNL     1      -1.498  11.295  22.118  0.00  0.00    +0.000 HD
BRANCH  24  27
ATOM     27  C   UNL     1      -0.737  13.218  22.300  0.00  0.00    +0.000 A 
ATOM     28  C   UNL     1       0.179  14.169  21.834  0.00  0.00    +0.000 A 
ATOM     29  C   UNL     1       0.325  15.394  22.489  0.00  0.00    +0.000 A 
ATOM     30  C   UNL     1      -0.430  15.666  23.631  0.00  0.00    +0.000 A 
ATOM     31  C   UNL     1      -1.336  14.714  24.098  0.00  0.00    +0.000 A 
ATOM     32 CL   UNL     1      -2.229  15.026  25.536  0.00  0.00    +0.000 Cl
ATOM     33  C   UNL     1      -1.512  13.502  23.426  0.00  0.00    +0.000 A 
ENDBRANCH  24  27
ENDBRANCH   4  21
TORSDOF 4
ENDMDL
MODEL 6
REMARK VINA RESULT:      -8.2      8.659     12.059
REMARK  Name = 
REMARK  5 active torsions:
REMARK  status: ('A' for Active; 'I' for Inactive)
REMARK    1  A    between atoms: C_1  and  O_2
REMARK    2  A    between atoms: O_2  and  C_3
REMARK    3  A    between atoms: C_6  and  C_7
REMARK    4  A    between atoms: C_10  and  N_11
REMARK    5  A    between atoms: N_14  and  C_15
REMARK                            x       y       z     vdW  Elec       q    Type
REMARK                         _______ _______ _______ _____ _____    ______ ____
ROOT
ATOM      1  C   UNL     1       9.466  12.395  18.848  0.00  0.00    +0.000 A 
ATOM      2  C   UNL     1       9.879  11.607  19.926  0.00  0.00    +0.000 A 
ATOM      3  C   UNL     1       9.601  10.239  19.989  0.00  0.00    +0.000 A 
ATOM      4  C   UNL     1       9.007   9.576  18.919  0.00  0.00    +0.000 A 
ATOM      5  C   UNL     1       8.745  10.301  17.758  0.00  0.00    +0.000 A 
ATOM      6  C   UNL     1       8.940  11.698  17.739  0.00  0.00    +0.000 A 
ENDROOT
BRANCH   1  10
ATOM      7  C   UNL     1       9.688  16.746  18.992  0.00  0.00    +0.000 A 
ATOM      8  C   UNL     1       8.727  16.041  19.708  0.00  0.00    +0.000 A 
ATOM      9  C   UNL     1       8.663  14.647  19.637  0.00  0.00    +0.000 A 
ATOM     10  C   UNL     1       9.578  13.872  18.875  0.00  0.00    +0.000 A 
ATOM     11  C   UNL     1      10.599  14.589  18.174  0.00  0.00    +0.000 A 
ATOM     12  C   UNL     1      11.739  14.342  17.327  0.00  0.00    +0.000 A 
ATOM     13  N   UNL     1      12.204  13.146  16.919  0.00  0.00    +0.000 N 
ATOM     14  N   UNL     1      12.332  15.465  16.940  0.00  0.00    +0.000 NA
ATOM     15  O   UNL     1      11.631  16.485  17.543  0.00  0.00    +0.000 OA
ATOM     16  C   UNL     1      10.603  15.983  18.259  0.00  0.00    +0.000 A 
ATOM     17  H   UNL     1      12.027  12.288  17.420  0.00  0.00    +0.000 HD
ATOM     18  H   UNL     1      13.075  13.134  16.390  0.00  0.00    +0.000 HD
BRANCH   7  20
ATOM     19  C   UNL     1       8.601  18.620  19.931  0.00  0.00    +0.000 C 
ATOM     20  O   UNL     1       9.674  18.121  19.138  0.00  0.00    +0.000 OA
ENDBRANCH   7  20
ENDBRANCH   1  10
BRANCH   4  21
ATOM     21  N   UNL     1       8.690   8.197  18.978  0.00  0.00    +0.000 N 
ATOM     22  C   UNL     1       7.820   7.574  18.086  0.00  0.00    +0.000 C 
ATOM     23  O   UNL     1       7.318   8.119  17.108  0.00  0.00    +0.000 OA
ATOM     24  N   UNL     1       7.571   6.257  18.441  0.00  0.00    +0.000 N 
ATOM     25  H   UNL     1       9.326   7.593  19.475  0.00  0.00    +0.000 HD
ATOM     26  H   UNL     1       7.550   6.097  19.439  0.00  0.00    +0.000 HD
BRANCH  24  27
ATOM     27  C   UNL     1       6.703   5.459  17.654  0.00  0.00    +0.000 A 
ATOM     28  C   UNL     1       7.154   4.803  16.502  0.00  0.00    +0.000 A 
ATOM     29  C   UNL     1       6.277   4.038  15.730  0.00  0.00    +0.000 A 
ATOM     30  C   UNL     1       4.934   3.943  16.095  0.00  0.00    +0.000 A 
ATOM     31  C   UNL     1       4.484   4.602  17.239  0.00  0.00    +0.000 A 
ATOM     32 CL   UNL     1       2.817   4.529  17.662  0.00  0.00    +0.000 Cl
ATOM     33  C   UNL     1       5.365   5.339  18.034  0.00  0.00    +0.000 A 
ENDBRANCH  24  27
ENDBRANCH   4  21
TORSDOF 4
ENDMDL
MODEL 7
REMARK VINA RESULT:      -8.1      2.587      2.969
REMARK  Name = 
REMARK  5 active torsions:
REMARK  status: ('A' for Active; 'I' for Inactive)
REMARK    1  A    between atoms: C_1  and  O_2
REMARK    2  A    between atoms: O_2  and  C_3
REMARK    3  A    between atoms: C_6  and  C_7
REMARK    4  A    between atoms: C_10  and  N_11
REMARK    5  A    between atoms: N_14  and  C_15
REMARK                            x       y       z     vdW  Elec       q    Type
REMARK                         _______ _______ _______ _____ _____    ______ ____
ROOT
ATOM      1  C   UNL     1       2.522   7.373  18.422  0.00  0.00    +0.000 A 
ATOM      2  C   UNL     1       2.274   7.347  19.797  0.00  0.00    +0.000 A 
ATOM      3  C   UNL     1       1.582   8.377  20.442  0.00  0.00    +0.000 A 
ATOM      4  C   UNL     1       1.003   9.415  19.718  0.00  0.00    +0.000 A 
ATOM      5  C   UNL     1       1.081   9.375  18.328  0.00  0.00    +0.000 A 
ATOM      6  C   UNL     1       1.861   8.385  17.694  0.00  0.00    +0.000 A 
ENDROOT
BRANCH   1  10
ATOM      7  C   UNL     1       5.238   4.581  16.464  0.00  0.00    +0.000 A 
ATOM      8  C   UNL     1       5.441   5.956  16.411  0.00  0.00    +0.000 A 
ATOM      9  C   UNL     1       4.551   6.834  17.032  0.00  0.00    +0.000 A 
ATOM     10  C   UNL     1       3.425   6.391  17.776  0.00  0.00    +0.000 A 
ATOM     11  C   UNL     1       3.237   4.976  17.874  0.00  0.00    +0.000 A 
ATOM     12  C   UNL     1       2.346   4.021  18.484  0.00  0.00    +0.000 A 
ATOM     13  N   UNL     1       1.275   4.286  19.256  0.00  0.00    +0.000 N 
ATOM     14  N   UNL     1       2.678   2.767  18.196  0.00  0.00    +0.000 NA
ATOM     15  O   UNL     1       3.812   2.850  17.420  0.00  0.00    +0.000 OA
ATOM     16  C   UNL     1       4.142   4.143  17.214  0.00  0.00    +0.000 A 
ATOM     17  H   UNL     1       1.169   5.146  19.772  0.00  0.00    +0.000 HD
ATOM     18  H   UNL     1       0.795   3.495  19.684  0.00  0.00    +0.000 HD
BRANCH   7  20
ATOM     19  C   UNL     1       6.844   4.437  14.739  0.00  0.00    +0.000 C 
ATOM     20  O   UNL     1       6.182   3.797  15.826  0.00  0.00    +0.000 OA
ENDBRANCH   7  20
ENDBRANCH   1  10
BRANCH   4  21
ATOM     21  N   UNL     1       0.327  10.484  20.358  0.00  0.00    +0.000 N 
ATOM     22  C   UNL     1       0.682  11.820  20.193  0.00  0.00    +0.000 C 
ATOM     23  O   UNL     1       1.541  12.221  19.414  0.00  0.00    +0.000 OA
ATOM     24  N   UNL     1      -0.042  12.656  21.030  0.00  0.00    +0.000 N 
ATOM     25  H   UNL     1      -0.607  10.309  20.694  0.00  0.00    +0.000 HD
ATOM     26  H   UNL     1      -0.262  12.247  21.928  0.00  0.00    +0.000 HD
BRANCH  24  27
ATOM     27  C   UNL     1       0.183  14.055  21.009  0.00  0.00    +0.000 A 
ATOM     28  C   UNL     1       1.067  14.668  21.906  0.00  0.00    +0.000 A 
ATOM     29  C   UNL     1       1.258  16.051  21.881  0.00  0.00    +0.000 A 
ATOM     30  C   UNL     1       0.548  16.834  20.971  0.00  0.00    +0.000 A 
ATOM     31  C   UNL     1      -0.338  16.223  20.083  0.00  0.00    +0.000 A 
ATOM     32 CL   UNL     1      -1.255  17.193  18.996  0.00  0.00    +0.000 Cl
ATOM     33  C   UNL     1      -0.506  14.836  20.080  0.00  0.00    +0.000 A 
ENDBRANCH  24  27
ENDBRANCH   4  21
TORSDOF 4
ENDMDL
MODEL 8
REMARK VINA RESULT:      -8.0      2.578      2.850
REMARK  Name = 
REMARK  5 active torsions:
REMARK  status: ('A' for Active; 'I' for Inactive)
REMARK    1  A    between atoms: C_1  and  O_2
REMARK    2  A    between atoms: O_2  and  C_3
REMARK    3  A    between atoms: C_6  and  C_7
REMARK    4  A    between atoms: C_10  and  N_11
REMARK    5  A    between atoms: N_14  and  C_15
REMARK                            x       y       z     vdW  Elec       q    Type
REMARK                         _______ _______ _______ _____ _____    ______ ____
ROOT
ATOM      1  C   UNL     1       2.569   7.360  18.401  0.00  0.00    +0.000 A 
ATOM      2  C   UNL     1       2.294   7.313  19.770  0.00  0.00    +0.000 A 
ATOM      3  C   UNL     1       1.584   8.329  20.416  0.00  0.00    +0.000 A 
ATOM      4  C   UNL     1       1.014   9.375  19.697  0.00  0.00    +0.000 A 
ATOM      5  C   UNL     1       1.120   9.356  18.308  0.00  0.00    +0.000 A 
ATOM      6  C   UNL     1       1.917   8.380  17.675  0.00  0.00    +0.000 A 
ENDROOT
BRANCH   1  10
ATOM      7  C   UNL     1       5.341   4.613  16.458  0.00  0.00    +0.000 A 
ATOM      8  C   UNL     1       5.548   5.988  16.447  0.00  0.00    +0.000 A 
ATOM      9  C   UNL     1       4.640   6.852  17.063  0.00  0.00    +0.000 A 
ATOM     10  C   UNL     1       3.490   6.393  17.759  0.00  0.00    +0.000 A 
ATOM     11  C   UNL     1       3.296   4.977  17.814  0.00  0.00    +0.000 A 
ATOM     12  C   UNL     1       2.385   4.008  18.370  0.00  0.00    +0.000 A 
ATOM     13  N   UNL     1       1.290   4.256  19.115  0.00  0.00    +0.000 N 
ATOM     14  N   UNL     1       2.723   2.762  18.061  0.00  0.00    +0.000 NA
ATOM     15  O   UNL     1       3.882   2.861  17.323  0.00  0.00    +0.000 OA
ATOM     16  C   UNL     1       4.220   4.158  17.162  0.00  0.00    +0.000 A 
ATOM     17  H   UNL     1       1.170   5.103  19.650  0.00  0.00    +0.000 HD
ATOM     18  H   UNL     1       0.795   3.456  19.507  0.00  0.00    +0.000 HD
BRANCH   7  20
ATOM     19  C   UNL     1       6.289   3.924  14.408  0.00  0.00    +0.000 C 
ATOM     20  O   UNL     1       6.302   3.843  15.831  0.00  0.00    +0.000 OA
ENDBRANCH   7  20
ENDBRANCH   1  10
BRANCH   4  21
ATOM     21  N   UNL     1       0.319  10.431  20.338  0.00  0.00    +0.000 N 
ATOM     22  C   UNL     1       0.651  11.774  20.176  0.00  0.00    +0.000 C 
ATOM     23  O   UNL     1       1.503  12.190  19.398  0.00  0.00    +0.000 OA
ATOM     24  N   UNL     1      -0.088  12.594  21.014  0.00  0.00    +0.000 N 
ATOM     25  H   UNL     1      -0.612  10.239  20.674  0.00  0.00    +0.000 HD
ATOM     26  H   UNL     1      -0.301  12.181  21.912  0.00  0.00    +0.000 HD
BRANCH  24  27
ATOM     27  C   UNL     1       0.113  13.998  20.997  0.00  0.00    +0.000 A 
ATOM     28  C   UNL     1      -0.573  14.825  20.099  0.00  0.00    +0.000 A 
ATOM     29  C   UNL     1      -0.344  16.202  20.086  0.00  0.00    +0.000 A 
ATOM     30  C   UNL     1       0.592  16.760  20.958  0.00  0.00    +0.000 A 
ATOM     31  C   UNL     1       1.280  15.934  21.847  0.00  0.00    +0.000 A 
ATOM     32 CL   UNL     1       2.473  16.611  22.886  0.00  0.00    +0.000 Cl
ATOM     33  C   UNL     1       1.029  14.559  21.888  0.00  0.00    +0.000 A 
ENDBRANCH  24  27
ENDBRANCH   4  21
TORSDOF 4
ENDMDL
MODEL 9
REMARK VINA RESULT:      -7.9      8.992     12.335
REMARK  Name = 
REMARK  5 active torsions:
REMARK  status: ('A' for Active; 'I' for Inactive)
REMARK    1  A    between atoms: C_1  and  O_2
REMARK    2  A    between atoms: O_2  and  C_3
REMARK    3  A    between atoms: C_6  and  C_7
REMARK    4  A    between atoms: C_10  and  N_11
REMARK    5  A    between atoms: N_14  and  C_15
REMARK                            x       y       z     vdW  Elec       q    Type
REMARK                         _______ _______ _______ _____ _____    ______ ____
ROOT
ATOM      1  C   UNL     1       9.425  12.610  18.993  0.00  0.00    +0.000 A 
ATOM      2  C   UNL     1      10.057  11.745  19.891  0.00  0.00    +0.000 A 
ATOM      3  C   UNL     1       9.814  10.368  19.884  0.00  0.00    +0.000 A 
ATOM      4  C   UNL     1       9.023   9.783  18.900  0.00  0.00    +0.000 A 
ATOM      5  C   UNL     1       8.523  10.596  17.885  0.00  0.00    +0.000 A 
ATOM      6  C   UNL     1       8.694  11.995  17.953  0.00  0.00    +0.000 A 
ENDROOT
BRANCH   1  10
ATOM      7  C   UNL     1       9.627  16.936  19.487  0.00  0.00    +0.000 A 
ATOM      8  C   UNL     1       8.909  16.134  20.367  0.00  0.00    +0.000 A 
ATOM      9  C   UNL     1       8.844  14.751  20.183  0.00  0.00    +0.000 A 
ATOM     10  C   UNL     1       9.523  14.082  19.130  0.00  0.00    +0.000 A 
ATOM     11  C   UNL     1      10.303  14.896  18.249  0.00  0.00    +0.000 A 
ATOM     12  C   UNL     1      11.168  14.768  17.103  0.00  0.00    +0.000 A 
ATOM     13  N   UNL     1      11.517  13.631  16.471  0.00  0.00    +0.000 N 
ATOM     14  N   UNL     1      11.619  15.943  16.678  0.00  0.00    +0.000 NA
ATOM     15  O   UNL     1      11.099  16.879  17.544  0.00  0.00    +0.000 OA
ATOM     16  C   UNL     1      10.314  16.276  18.463  0.00  0.00    +0.000 A 
ATOM     17  H   UNL     1      11.495  12.726  16.916  0.00  0.00    +0.000 HD
ATOM     18  H   UNL     1      12.209  13.699  15.726  0.00  0.00    +0.000 HD
BRANCH   7  20
ATOM     19  C   UNL     1       9.204  18.630  21.077  0.00  0.00    +0.000 C 
ATOM     20  O   UNL     1       9.638  18.291  19.763  0.00  0.00    +0.000 OA
ENDBRANCH   7  20
ENDBRANCH   1  10
BRANCH   4  21
ATOM     21  N   UNL     1       8.740   8.394  18.897  0.00  0.00    +0.000 N 
ATOM     22  C   UNL     1       7.809   7.806  18.046  0.00  0.00    +0.000 C 
ATOM     23  O   UNL     1       7.212   8.399  17.152  0.00  0.00    +0.000 OA
ATOM     24  N   UNL     1       7.619   6.464  18.334  0.00  0.00    +0.000 N 
ATOM     25  H   UNL     1       9.431   7.778  19.297  0.00  0.00    +0.000 HD
ATOM     26  H   UNL     1       7.688   6.241  19.318  0.00  0.00    +0.000 HD
BRANCH  24  27
ATOM     27  C   UNL     1       6.701   5.694  17.576  0.00  0.00    +0.000 A 
ATOM     28  C   UNL     1       5.521   5.194  18.140  0.00  0.00    +0.000 A 
ATOM     29  C   UNL     1       4.642   4.421  17.379  0.00  0.00    +0.000 A 
ATOM     30  C   UNL     1       4.950   4.123  16.051  0.00  0.00    +0.000 A 
ATOM     31  C   UNL     1       6.129   4.616  15.492  0.00  0.00    +0.000 A 
ATOM     32 CL   UNL     1       6.536   4.206  13.870  0.00  0.00    +0.000 Cl
ATOM     33  C   UNL     1       6.994   5.420  16.239  0.00  0.00    +0.000 A 
ENDBRANCH  24  27
ENDBRANCH   4  21
TORSDOF 4
ENDMDL
