MODEL 1
REMARK VINA RESULT:      -7.4      0.000      0.000
REMARK  Name = 
REMARK  8 active torsions:
REMARK  status: ('A' for Active; 'I' for Inactive)
REMARK    1  A    between atoms: O_1  and  C_2
REMARK    2  A    between atoms: C_2  and  C_3
REMARK    3  A    between atoms: C_2  and  C_14
REMARK    4  A    between atoms: C_3  and  S_4
REMARK    5  A    between atoms: S_4  and  C_5
REMARK    6  A    between atoms: C_14  and  N_15
REMARK    7  A    between atoms: N_18  and  C_19
REMARK    8  A    between atoms: C_19  and  C_20
REMARK                            x       y       z     vdW  Elec       q    Type
REMARK                         _______ _______ _______ _____ _____    ______ ____
ROOT
ATOM      1  C   UNL     1       7.705   8.076  18.113  0.00  0.00    +0.000 C 
ENDROOT
BRANCH   1   2
ATOM      2  O   UNL     1       8.593   7.384  19.003  0.00  0.00    +0.000 OA
ATOM      3  H   UNL     1       8.439   7.729  19.898  0.00  0.00    +0.000 HD
ENDBRANCH   1   2
BRANCH   1   4
ATOM      4  C   UNL     1       8.326   9.439  17.769  0.00  0.00    +0.000 C 
BRANCH   4   5
ATOM      5  S   UNL     1       9.243  10.139  19.182  0.00  0.00    +0.000 S 
BRANCH   5   6
ATOM      6  C   UNL     1       9.921  11.616  18.543  0.00  0.00    +0.000 A 
ATOM      7  N   UNL     1      10.873  11.572  17.538  0.00  0.00    +0.000 N 
ATOM      8  C   UNL     1      11.347  12.711  16.950  0.00  0.00    +0.000 A 
ATOM      9  N   UNL     1      11.005  13.920  17.263  0.00  0.00    +0.000 NA
ATOM     10  C   UNL     1      10.082  14.003  18.261  0.00  0.00    +0.000 A 
ATOM     11  N   UNL     1       9.559  15.085  18.752  0.00  0.00    +0.000 NA
ATOM     12  C   UNL     1       8.676  14.596  19.698  0.00  0.00    +0.000 A 
ATOM     13  N   UNL     1       8.597  13.301  19.841  0.00  0.00    +0.000 NA
ATOM     14  C   UNL     1       9.506  12.830  18.932  0.00  0.00    +0.000 A 
ATOM     15  H   UNL     1      11.147  10.651  17.220  0.00  0.00    +0.000 HD
ENDBRANCH   5   6
ENDBRANCH   4   5
ENDBRANCH   1   4
BRANCH   1  16
ATOM     16  C   UNL     1       7.464   7.206  16.855  0.00  0.00    +0.000 C 
BRANCH  16  17
ATOM     17  N   UNL     1       6.054   6.827  16.606  0.00  0.00    +0.000 NA
ATOM     18  C   UNL     1       5.917   5.537  15.899  0.00  0.00    +0.000 C 
ATOM     19  C   UNL     1       6.220   4.284  16.762  0.00  0.00    +0.000 C 
ATOM     20  N   UNL     1       5.455   4.220  18.030  0.00  0.00    +0.000 NA
ATOM     21  C   UNL     1       5.635   5.504  18.743  0.00  0.00    +0.000 C 
ATOM     22  C   UNL     1       5.318   6.760  17.891  0.00  0.00    +0.000 C 
BRANCH  20  23
ATOM     23  C   UNL     1       4.037   3.937  17.730  0.00  0.00    +0.000 C 
BRANCH  23  24
ATOM     24  C   UNL     1       3.160   3.732  18.942  0.00  0.00    +0.000 A 
ATOM     25  C   UNL     1       1.903   4.355  19.015  0.00  0.00    +0.000 A 
ATOM     26  C   UNL     1       1.057   4.116  20.095  0.00  0.00    +0.000 A 
ATOM     27  C   UNL     1       1.458   3.255  21.116  0.00  0.00    +0.000 A 
ATOM     28  C   UNL     1       2.714   2.651  21.066  0.00  0.00    +0.000 A 
ATOM     29  C   UNL     1       3.564   2.891  19.987  0.00  0.00    +0.000 A 
ENDBRANCH  23  24
ENDBRANCH  20  23
ENDBRANCH  16  17
ENDBRANCH   1  16
TORSDOF 8
ENDMDL
MODEL 2
REMARK VINA RESULT:      -7.4      0.931      1.641
REMARK  Name = 
REMARK  8 active torsions:
REMARK  status: ('A' for Active; 'I' for Inactive)
REMARK    1  A    between atoms: O_1  and  C_2
REMARK    2  A    between atoms: C_2  and  C_3
REMARK    3  A    between atoms: C_2  and  C_14
REMARK    4  A    between atoms: C_3  and  S_4
REMARK    5  A    between atoms: S_4  and  C_5
REMARK    6  A    between atoms: C_14  and  N_15
REMARK    7  A    between atoms: N_18  and  C_19
REMARK    8  A    between atoms: C_19  and  C_20
REMARK                            x       y       z     vdW  Elec       q    Type
REMARK                         _______ _______ _______ _____ _____    ______ ____
ROOT
ATOM      1  C   UNL     1       7.880   8.445  18.296  0.00  0.00    +0.000 C 
ENDROOT
BRANCH   1   2
ATOM      2  O   UNL     1       8.830   7.748  19.114  0.00  0.00    +0.000 OA
ATOM      3  H   UNL     1       8.340   7.333  19.844  0.00  0.00    +0.000 HD
ENDBRANCH   1   2
BRANCH   1   4
ATOM      4  C   UNL     1       8.516   9.763  17.826  0.00  0.00    +0.000 C 
BRANCH   4   5
ATOM      5  S   UNL     1       9.457  10.572  19.162  0.00  0.00    +0.000 S 
BRANCH   5   6
ATOM      6  C   UNL     1      10.126  11.991  18.394  0.00  0.00    +0.000 A 
ATOM      7  N   UNL     1      11.219  11.881  17.550  0.00  0.00    +0.000 N 
ATOM      8  C   UNL     1      11.700  12.957  16.858  0.00  0.00    +0.000 A 
ATOM      9  N   UNL     1      11.237  14.164  16.923  0.00  0.00    +0.000 NA
ATOM     10  C   UNL     1      10.172  14.314  17.759  0.00  0.00    +0.000 A 
ATOM     11  N   UNL     1       9.512  15.408  17.993  0.00  0.00    +0.000 NA
ATOM     12  C   UNL     1       8.532  14.990  18.874  0.00  0.00    +0.000 A 
ATOM     13  N   UNL     1       8.516  13.729  19.211  0.00  0.00    +0.000 NA
ATOM     14  C   UNL     1       9.580  13.209  18.523  0.00  0.00    +0.000 A 
ATOM     15  H   UNL     1      11.596  10.950  17.425  0.00  0.00    +0.000 HD
ENDBRANCH   5   6
ENDBRANCH   4   5
ENDBRANCH   1   4
BRANCH   1  16
ATOM     16  C   UNL     1       7.464   7.538  17.112  0.00  0.00    +0.000 C 
BRANCH  16  17
ATOM     17  N   UNL     1       7.311   6.101  17.437  0.00  0.00    +0.000 NA
ATOM     18  C   UNL     1       6.246   5.841  18.428  0.00  0.00    +0.000 C 
ATOM     19  C   UNL     1       4.800   5.989  17.884  0.00  0.00    +0.000 C 
ATOM     20  N   UNL     1       4.525   5.193  16.664  0.00  0.00    +0.000 NA
ATOM     21  C   UNL     1       5.579   5.495  15.670  0.00  0.00    +0.000 C 
ATOM     22  C   UNL     1       7.026   5.334  16.201  0.00  0.00    +0.000 C 
BRANCH  20  23
ATOM     23  C   UNL     1       4.477   3.761  17.016  0.00  0.00    +0.000 C 
BRANCH  23  24
ATOM     24  C   UNL     1       3.395   3.383  18.000  0.00  0.00    +0.000 A 
ATOM     25  C   UNL     1       3.736   2.842  19.249  0.00  0.00    +0.000 A 
ATOM     26  C   UNL     1       2.750   2.557  20.191  0.00  0.00    +0.000 A 
ATOM     27  C   UNL     1       1.411   2.806  19.892  0.00  0.00    +0.000 A 
ATOM     28  C   UNL     1       1.058   3.320  18.645  0.00  0.00    +0.000 A 
ATOM     29  C   UNL     1       2.044   3.604  17.700  0.00  0.00    +0.000 A 
ENDBRANCH  23  24
ENDBRANCH  20  23
ENDBRANCH  16  17
ENDBRANCH   1  16
TORSDOF 8
ENDMDL
MODEL 3
REMARK VINA RESULT:      -7.3      1.136      1.760
REMARK  Name = 
REMARK  8 active torsions:
REMARK  status: ('A' for Active; 'I' for Inactive)
REMARK    1  A    between atoms: O_1  and  C_2
REMARK    2  A    between atoms: C_2  and  C_3
REMARK    3  A    between atoms: C_2  and  C_14
REMARK    4  A    between atoms: C_3  and  S_4
REMARK    5  A    between atoms: S_4  and  C_5
REMARK    6  A    between atoms: C_14  and  N_15
REMARK    7  A    between atoms: N_18  and  C_19
REMARK    8  A    between atoms: C_19  and  C_20
REMARK                            x       y       z     vdW  Elec       q    Type
REMARK                         _______ _______ _______ _____ _____    ______ ____
ROOT
ATOM      1  C   UNL     1       7.468   7.773  17.910  0.00  0.00    +0.000 C 
ENDROOT
BRANCH   1   2
ATOM      2  O   UNL     1       8.272   6.999  18.811  0.00  0.00    +0.000 OA
ATOM      3  H   UNL     1       9.185   7.328  18.748  0.00  0.00    +0.000 HD
ENDBRANCH   1   2
BRANCH   1   4
ATOM      4  C   UNL     1       8.237   9.053  17.548  0.00  0.00    +0.000 C 
BRANCH   4   5
ATOM      5  S   UNL     1       9.091   9.759  18.997  0.00  0.00    +0.000 S 
BRANCH   5   6
ATOM      6  C   UNL     1       9.393  11.416  18.530  0.00  0.00    +0.000 A 
ATOM      7  N   UNL     1       8.429  12.137  17.847  0.00  0.00    +0.000 N 
ATOM      8  C   UNL     1       8.597  13.462  17.558  0.00  0.00    +0.000 A 
ATOM      9  N   UNL     1       9.641  14.170  17.846  0.00  0.00    +0.000 NA
ATOM     10  C   UNL     1      10.620  13.488  18.504  0.00  0.00    +0.000 A 
ATOM     11  N   UNL     1      11.754  13.961  18.922  0.00  0.00    +0.000 NA
ATOM     12  C   UNL     1      12.333  12.866  19.539  0.00  0.00    +0.000 A 
ATOM     13  N   UNL     1      11.659  11.749  19.548  0.00  0.00    +0.000 NA
ATOM     14  C   UNL     1      10.512  12.070  18.871  0.00  0.00    +0.000 A 
ATOM     15  H   UNL     1       7.569  11.646  17.633  0.00  0.00    +0.000 HD
ENDBRANCH   5   6
ENDBRANCH   4   5
ENDBRANCH   1   4
BRANCH   1  16
ATOM     16  C   UNL     1       7.133   6.917  16.663  0.00  0.00    +0.000 C 
BRANCH  16  17
ATOM     17  N   UNL     1       5.691   6.664  16.437  0.00  0.00    +0.000 NA
ATOM     18  C   UNL     1       5.438   5.535  15.517  0.00  0.00    +0.000 C 
ATOM     19  C   UNL     1       5.707   4.131  16.119  0.00  0.00    +0.000 C 
ATOM     20  N   UNL     1       5.004   3.873  17.398  0.00  0.00    +0.000 NA
ATOM     21  C   UNL     1       5.300   4.993  18.320  0.00  0.00    +0.000 C 
ATOM     22  C   UNL     1       5.019   6.398  17.731  0.00  0.00    +0.000 C 
BRANCH  20  23
ATOM     23  C   UNL     1       3.559   3.724  17.139  0.00  0.00    +0.000 C 
BRANCH  23  24
ATOM     24  C   UNL     1       2.710   3.519  18.372  0.00  0.00    +0.000 A 
ATOM     25  C   UNL     1       2.958   2.431  19.225  0.00  0.00    +0.000 A 
ATOM     26  C   UNL     1       2.227   2.274  20.401  0.00  0.00    +0.000 A 
ATOM     27  C   UNL     1       1.238   3.199  20.735  0.00  0.00    +0.000 A 
ATOM     28  C   UNL     1       0.967   4.268  19.882  0.00  0.00    +0.000 A 
ATOM     29  C   UNL     1       1.695   4.426  18.703  0.00  0.00    +0.000 A 
ENDBRANCH  23  24
ENDBRANCH  20  23
ENDBRANCH  16  17
ENDBRANCH   1  16
TORSDOF 8
ENDMDL
MODEL 4
REMARK VINA RESULT:      -7.2      0.386      1.007
REMARK  Name = 
REMARK  8 active torsions:
REMARK  status: ('A' for Active; 'I' for Inactive)
REMARK    1  A    between atoms: O_1  and  C_2
REMARK    2  A    between atoms: C_2  and  C_3
REMARK    3  A    between atoms: C_2  and  C_14
REMARK    4  A    between atoms: C_3  and  S_4
REMARK    5  A    between atoms: S_4  and  C_5
REMARK    6  A    between atoms: C_14  and  N_15
REMARK    7  A    between atoms: N_18  and  C_19
REMARK    8  A    between atoms: C_19  and  C_20
REMARK                            x       y       z     vdW  Elec       q    Type
REMARK                         _______ _______ _______ _____ _____    ______ ____
ROOT
ATOM      1  C   UNL     1       7.637   7.971  18.103  0.00  0.00    +0.000 C 
ENDROOT
BRANCH   1   2
ATOM      2  O   UNL     1       8.516   7.228  18.960  0.00  0.00    +0.000 OA
ATOM      3  H   UNL     1       8.540   7.681  19.820  0.00  0.00    +0.000 HD
ENDBRANCH   1   2
BRANCH   1   4
ATOM      4  C   UNL     1       8.284   9.333  17.805  0.00  0.00    +0.000 C 
BRANCH   4   5
ATOM      5  S   UNL     1       9.117  10.021  19.275  0.00  0.00    +0.000 S 
BRANCH   5   6
ATOM      6  C   UNL     1       9.662  11.593  18.741  0.00  0.00    +0.000 A 
ATOM      7  N   UNL     1      10.423  11.717  17.591  0.00  0.00    +0.000 N 
ATOM      8  C   UNL     1      10.778  12.940  17.096  0.00  0.00    +0.000 A 
ATOM      9  N   UNL     1      10.488  14.083  17.630  0.00  0.00    +0.000 NA
ATOM     10  C   UNL     1       9.754  14.000  18.775  0.00  0.00    +0.000 A 
ATOM     11  N   UNL     1       9.318  14.987  19.495  0.00  0.00    +0.000 NA
ATOM     12  C   UNL     1       8.618  14.345  20.501  0.00  0.00    +0.000 A 
ATOM     13  N   UNL     1       8.574  13.042  20.473  0.00  0.00    +0.000 NA
ATOM     14  C   UNL     1       9.314  12.728  19.363  0.00  0.00    +0.000 A 
ATOM     15  H   UNL     1      10.643  10.857  17.105  0.00  0.00    +0.000 HD
ENDBRANCH   5   6
ENDBRANCH   4   5
ENDBRANCH   1   4
BRANCH   1  16
ATOM     16  C   UNL     1       7.368   7.153  16.816  0.00  0.00    +0.000 C 
BRANCH  16  17
ATOM     17  N   UNL     1       5.948   6.815  16.564  0.00  0.00    +0.000 NA
ATOM     18  C   UNL     1       5.777   5.558  15.807  0.00  0.00    +0.000 C 
ATOM     19  C   UNL     1       6.061   4.265  16.617  0.00  0.00    +0.000 C 
ATOM     20  N   UNL     1       5.304   4.167  17.888  0.00  0.00    +0.000 NA
ATOM     21  C   UNL     1       5.517   5.417  18.650  0.00  0.00    +0.000 C 
ATOM     22  C   UNL     1       5.221   6.712  17.852  0.00  0.00    +0.000 C 
BRANCH  20  23
ATOM     23  C   UNL     1       3.878   3.926  17.590  0.00  0.00    +0.000 C 
BRANCH  23  24
ATOM     24  C   UNL     1       3.008   3.676  18.799  0.00  0.00    +0.000 A 
ATOM     25  C   UNL     1       3.449   2.815  19.817  0.00  0.00    +0.000 A 
ATOM     26  C   UNL     1       2.686   2.633  20.969  0.00  0.00    +0.000 A 
ATOM     27  C   UNL     1       1.474   3.306  21.114  0.00  0.00    +0.000 A 
ATOM     28  C   UNL     1       1.015   4.144  20.098  0.00  0.00    +0.000 A 
ATOM     29  C   UNL     1       1.775   4.325  18.943  0.00  0.00    +0.000 A 
ENDBRANCH  23  24
ENDBRANCH  20  23
ENDBRANCH  16  17
ENDBRANCH   1  16
TORSDOF 8
ENDMDL
MODEL 5
REMARK VINA RESULT:      -7.0      5.425      7.868
REMARK  Name = 
REMARK  8 active torsions:
REMARK  status: ('A' for Active; 'I' for Inactive)
REMARK    1  A    between atoms: O_1  and  C_2
REMARK    2  A    between atoms: C_2  and  C_3
REMARK    3  A    between atoms: C_2  and  C_14
REMARK    4  A    between atoms: C_3  and  S_4
REMARK    5  A    between atoms: S_4  and  C_5
REMARK    6  A    between atoms: C_14  and  N_15
REMARK    7  A    between atoms: N_18  and  C_19
REMARK    8  A    between atoms: C_19  and  C_20
REMARK                            x       y       z     vdW  Elec       q    Type
REMARK                         _______ _______ _______ _____ _____    ______ ____
ROOT
ATOM      1  C   UNL     1       2.582   4.800  19.255  0.00  0.00    +0.000 C 
ENDROOT
BRANCH   1   2
ATOM      2  O   UNL     1       1.817   4.629  20.456  0.00  0.00    +0.000 OA
ATOM      3  H   UNL     1       1.825   3.683  20.677  0.00  0.00    +0.000 HD
ENDBRANCH   1   2
BRANCH   1   4
ATOM      4  C   UNL     1       1.843   5.793  18.343  0.00  0.00    +0.000 C 
BRANCH   4   5
ATOM      5  S   UNL     1       2.629   7.439  18.362  0.00  0.00    +0.000 S 
BRANCH   5   6
ATOM      6  C   UNL     1       1.756   8.298  19.607  0.00  0.00    +0.000 A 
ATOM      7  N   UNL     1       1.821   7.878  20.925  0.00  0.00    +0.000 N 
ATOM      8  C   UNL     1       1.231   8.588  21.933  0.00  0.00    +0.000 A 
ATOM      9  N   UNL     1       0.543   9.675  21.787  0.00  0.00    +0.000 NA
ATOM     10  C   UNL     1       0.443  10.109  20.500  0.00  0.00    +0.000 A 
ATOM     11  N   UNL     1      -0.171  11.175  20.082  0.00  0.00    +0.000 NA
ATOM     12  C   UNL     1       0.068  11.150  18.720  0.00  0.00    +0.000 A 
ATOM     13  N   UNL     1       0.782  10.164  18.247  0.00  0.00    +0.000 NA
ATOM     14  C   UNL     1       1.063   9.419  19.362  0.00  0.00    +0.000 A 
ATOM     15  H   UNL     1       2.383   7.056  21.106  0.00  0.00    +0.000 HD
ENDBRANCH   5   6
ENDBRANCH   4   5
ENDBRANCH   1   4
BRANCH   1  16
ATOM     16  C   UNL     1       4.006   5.287  19.622  0.00  0.00    +0.000 C 
BRANCH  16  17
ATOM     17  N   UNL     1       5.116   4.503  19.033  0.00  0.00    +0.000 NA
ATOM     18  C   UNL     1       4.800   3.967  17.693  0.00  0.00    +0.000 C 
ATOM     19  C   UNL     1       4.789   5.022  16.555  0.00  0.00    +0.000 C 
ATOM     20  N   UNL     1       6.027   5.834  16.468  0.00  0.00    +0.000 NA
ATOM     21  C   UNL     1       6.306   6.394  17.809  0.00  0.00    +0.000 C 
ATOM     22  C   UNL     1       6.334   5.343  18.948  0.00  0.00    +0.000 C 
BRANCH  20  23
ATOM     23  C   UNL     1       7.130   4.990  15.969  0.00  0.00    +0.000 C 
BRANCH  23  24
ATOM     24  C   UNL     1       7.067   4.666  14.495  0.00  0.00    +0.000 A 
ATOM     25  C   UNL     1       6.211   3.653  14.033  0.00  0.00    +0.000 A 
ATOM     26  C   UNL     1       6.093   3.395  12.669  0.00  0.00    +0.000 A 
ATOM     27  C   UNL     1       6.830   4.144  11.752  0.00  0.00    +0.000 A 
ATOM     28  C   UNL     1       7.701   5.135  12.202  0.00  0.00    +0.000 A 
ATOM     29  C   UNL     1       7.824   5.393  13.567  0.00  0.00    +0.000 A 
ENDBRANCH  23  24
ENDBRANCH  20  23
ENDBRANCH  16  17
ENDBRANCH   1  16
TORSDOF 8
ENDMDL
MODEL 6
REMARK VINA RESULT:      -6.9      5.431      8.051
REMARK  Name = 
REMARK  8 active torsions:
REMARK  status: ('A' for Active; 'I' for Inactive)
REMARK    1  A    between atoms: O_1  and  C_2
REMARK    2  A    between atoms: C_2  and  C_3
REMARK    3  A    between atoms: C_2  and  C_14
REMARK    4  A    between atoms: C_3  and  S_4
REMARK    5  A    between atoms: S_4  and  C_5
REMARK    6  A    between atoms: C_14  and  N_15
REMARK    7  A    between atoms: N_18  and  C_19
REMARK    8  A    between atoms: C_19  and  C_20
REMARK                            x       y       z     vdW  Elec       q    Type
REMARK                         _______ _______ _______ _____ _____    ______ ____
ROOT
ATOM      1  C   UNL     1       2.979   2.961  20.248  0.00  0.00    +0.000 C 
ENDROOT
BRANCH   1   2
ATOM      2  O   UNL     1       1.837   2.467  19.533  0.00  0.00    +0.000 OA
ATOM      3  H   UNL     1       1.788   2.948  18.690  0.00  0.00    +0.000 HD
ENDBRANCH   1   2
BRANCH   1   4
ATOM      4  C   UNL     1       4.249   2.433  19.561  0.00  0.00    +0.000 C 
BRANCH   4   5
ATOM      5  S   UNL     1       4.226   2.752  17.765  0.00  0.00    +0.000 S 
BRANCH   5   6
ATOM      6  C   UNL     1       5.487   3.941  17.542  0.00  0.00    +0.000 A 
ATOM      7  N   UNL     1       6.087   4.539  18.637  0.00  0.00    +0.000 N 
ATOM      8  C   UNL     1       7.143   5.396  18.496  0.00  0.00    +0.000 A 
ATOM      9  N   UNL     1       7.670   5.764  17.373  0.00  0.00    +0.000 NA
ATOM     10  C   UNL     1       7.092   5.210  16.271  0.00  0.00    +0.000 A 
ATOM     11  N   UNL     1       7.436   5.395  15.033  0.00  0.00    +0.000 NA
ATOM     12  C   UNL     1       6.554   4.581  14.346  0.00  0.00    +0.000 A 
ATOM     13  N   UNL     1       5.690   3.897  15.044  0.00  0.00    +0.000 NA
ATOM     14  C   UNL     1       5.970   4.265  16.334  0.00  0.00    +0.000 A 
ATOM     15  H   UNL     1       5.745   4.254  19.546  0.00  0.00    +0.000 HD
ENDBRANCH   5   6
ENDBRANCH   4   5
ENDBRANCH   1   4
BRANCH   1  16
ATOM     16  C   UNL     1       2.930   4.508  20.283  0.00  0.00    +0.000 C 
BRANCH  16  17
ATOM     17  N   UNL     1       1.811   5.124  19.532  0.00  0.00    +0.000 NA
ATOM     18  C   UNL     1       1.248   6.313  20.204  0.00  0.00    +0.000 C 
ATOM     19  C   UNL     1       2.139   7.581  20.141  0.00  0.00    +0.000 C 
ATOM     20  N   UNL     1       2.562   7.959  18.771  0.00  0.00    +0.000 NA
ATOM     21  C   UNL     1       3.159   6.768  18.127  0.00  0.00    +0.000 C 
ATOM     22  C   UNL     1       2.267   5.501  18.173  0.00  0.00    +0.000 C 
BRANCH  20  23
ATOM     23  C   UNL     1       1.397   8.478  18.027  0.00  0.00    +0.000 C 
BRANCH  23  24
ATOM     24  C   UNL     1       1.062   9.925  18.299  0.00  0.00    +0.000 A 
ATOM     25  C   UNL     1      -0.238  10.286  18.688  0.00  0.00    +0.000 A 
ATOM     26  C   UNL     1      -0.540  11.607  19.009  0.00  0.00    +0.000 A 
ATOM     27  C   UNL     1       0.453  12.584  18.941  0.00  0.00    +0.000 A 
ATOM     28  C   UNL     1       1.741  12.241  18.531  0.00  0.00    +0.000 A 
ATOM     29  C   UNL     1       2.045  10.919  18.206  0.00  0.00    +0.000 A 
ENDBRANCH  23  24
ENDBRANCH  20  23
ENDBRANCH  16  17
ENDBRANCH   1  16
TORSDOF 8
ENDMDL
MODEL 7
REMARK VINA RESULT:      -6.9      6.664      9.552
REMARK  Name = 
REMARK  8 active torsions:
REMARK  status: ('A' for Active; 'I' for Inactive)
REMARK    1  A    between atoms: O_1  and  C_2
REMARK    2  A    between atoms: C_2  and  C_3
REMARK    3  A    between atoms: C_2  and  C_14
REMARK    4  A    between atoms: C_3  and  S_4
REMARK    5  A    between atoms: S_4  and  C_5
REMARK    6  A    between atoms: C_14  and  N_15
REMARK    7  A    between atoms: N_18  and  C_19
REMARK    8  A    between atoms: C_19  and  C_20
REMARK                            x       y       z     vdW  Elec       q    Type
REMARK                         _______ _______ _______ _____ _____    ______ ____
ROOT
ATOM      1  C   UNL     1       2.173   6.528  20.359  0.00  0.00    +0.000 C 
ENDROOT
BRANCH   1   2
ATOM      2  O   UNL     1       1.073   5.618  20.498  0.00  0.00    +0.000 OA
ATOM      3  H   UNL     1       0.489   5.967  21.193  0.00  0.00    +0.000 HD
ENDBRANCH   1   2
BRANCH   1   4
ATOM      4  C   UNL     1       2.457   6.724  18.861  0.00  0.00    +0.000 C 
BRANCH   4   5
ATOM      5  S   UNL     1       2.926   5.157  18.053  0.00  0.00    +0.000 S 
BRANCH   5   6
ATOM      6  C   UNL     1       4.672   5.170  18.111  0.00  0.00    +0.000 A 
ATOM      7  N   UNL     1       5.331   5.444  19.298  0.00  0.00    +0.000 N 
ATOM      8  C   UNL     1       6.692   5.362  19.397  0.00  0.00    +0.000 A 
ATOM      9  N   UNL     1       7.501   5.063  18.432  0.00  0.00    +0.000 NA
ATOM     10  C   UNL     1       6.889   4.805  17.243  0.00  0.00    +0.000 A 
ATOM     11  N   UNL     1       7.462   4.466  16.128  0.00  0.00    +0.000 NA
ATOM     12  C   UNL     1       6.388   4.298  15.272  0.00  0.00    +0.000 A 
ATOM     13  N   UNL     1       5.192   4.498  15.754  0.00  0.00    +0.000 NA
ATOM     14  C   UNL     1       5.433   4.849  17.055  0.00  0.00    +0.000 A 
ATOM     15  H   UNL     1       4.746   5.641  20.100  0.00  0.00    +0.000 HD
ENDBRANCH   5   6
ENDBRANCH   4   5
ENDBRANCH   1   4
BRANCH   1  16
ATOM     16  C   UNL     1       1.827   7.859  21.070  0.00  0.00    +0.000 C 
BRANCH  16  17
ATOM     17  N   UNL     1       0.485   8.409  20.769  0.00  0.00    +0.000 NA
ATOM     18  C   UNL     1      -0.374   8.529  21.966  0.00  0.00    +0.000 C 
ATOM     19  C   UNL     1       0.009   9.682  22.930  0.00  0.00    +0.000 C 
ATOM     20  N   UNL     1       0.111  11.010  22.278  0.00  0.00    +0.000 NA
ATOM     21  C   UNL     1       1.005  10.880  21.106  0.00  0.00    +0.000 C 
ATOM     22  C   UNL     1       0.620   9.740  20.130  0.00  0.00    +0.000 C 
BRANCH  20  23
ATOM     23  C   UNL     1      -1.239  11.477  21.908  0.00  0.00    +0.000 C 
BRANCH  23  24
ATOM     24  C   UNL     1      -1.874  12.432  22.892  0.00  0.00    +0.000 A 
ATOM     25  C   UNL     1      -1.230  13.635  23.222  0.00  0.00    +0.000 A 
ATOM     26  C   UNL     1      -1.840  14.554  24.073  0.00  0.00    +0.000 A 
ATOM     27  C   UNL     1      -3.098  14.278  24.607  0.00  0.00    +0.000 A 
ATOM     28  C   UNL     1      -3.735  13.075  24.306  0.00  0.00    +0.000 A 
ATOM     29  C   UNL     1      -3.126  12.153  23.457  0.00  0.00    +0.000 A 
ENDBRANCH  23  24
ENDBRANCH  20  23
ENDBRANCH  16  17
ENDBRANCH   1  16
TORSDOF 8
ENDMDL
MODEL 8
REMARK VINA RESULT:      -6.9      1.314      2.057
REMARK  Name = 
REMARK  8 active torsions:
REMARK  status: ('A' for Active; 'I' for Inactive)
REMARK    1  A    between atoms: O_1  and  C_2
REMARK    2  A    between atoms: C_2  and  C_3
REMARK    3  A    between atoms: C_2  and  C_14
REMARK    4  A    between atoms: C_3  and  S_4
REMARK    5  A    between atoms: S_4  and  C_5
REMARK    6  A    between atoms: C_14  and  N_15
REMARK    7  A    between atoms: N_18  and  C_19
REMARK    8  A    between atoms: C_19  and  C_20
REMARK                            x       y       z     vdW  Elec       q    Type
REMARK                         _______ _______ _______ _____ _____    ______ ____
ROOT
ATOM      1  C   UNL     1       7.750   8.134  18.262  0.00  0.00    +0.000 C 
ENDROOT
BRANCH   1   2
ATOM      2  O   UNL     1       8.769   7.579  19.105  0.00  0.00    +0.000 OA
ATOM      3  H   UNL     1       9.624   7.720  18.664  0.00  0.00    +0.000 HD
ENDBRANCH   1   2
BRANCH   1   4
ATOM      4  C   UNL     1       8.230   9.502  17.752  0.00  0.00    +0.000 C 
BRANCH   4   5
ATOM      5  S   UNL     1       9.522  10.208  18.829  0.00  0.00    +0.000 S 
BRANCH   5   6
ATOM      6  C   UNL     1       9.108  11.902  18.913  0.00  0.00    +0.000 A 
ATOM      7  N   UNL     1       8.611  12.558  17.799  0.00  0.00    +0.000 N 
ATOM      8  C   UNL     1       8.185  13.855  17.862  0.00  0.00    +0.000 A 
ATOM      9  N   UNL     1       8.219  14.609  18.913  0.00  0.00    +0.000 NA
ATOM     10  C   UNL     1       8.719  14.003  20.025  0.00  0.00    +0.000 A 
ATOM     11  N   UNL     1       8.847  14.525  21.207  0.00  0.00    +0.000 NA
ATOM     12  C   UNL     1       9.366  13.478  21.948  0.00  0.00    +0.000 A 
ATOM     13  N   UNL     1       9.571  12.345  21.336  0.00  0.00    +0.000 NA
ATOM     14  C   UNL     1       9.179  12.609  20.050  0.00  0.00    +0.000 A 
ATOM     15  H   UNL     1       8.520  12.004  16.956  0.00  0.00    +0.000 HD
ENDBRANCH   5   6
ENDBRANCH   4   5
ENDBRANCH   1   4
BRANCH   1  16
ATOM     16  C   UNL     1       7.451   7.147  17.106  0.00  0.00    +0.000 C 
BRANCH  16  17
ATOM     17  N   UNL     1       7.243   5.738  17.512  0.00  0.00    +0.000 NA
ATOM     18  C   UNL     1       6.319   5.596  18.656  0.00  0.00    +0.000 C 
ATOM     19  C   UNL     1       4.824   5.841  18.322  0.00  0.00    +0.000 C 
ATOM     20  N   UNL     1       4.314   5.031  17.190  0.00  0.00    +0.000 NA
ATOM     21  C   UNL     1       5.229   5.215  16.041  0.00  0.00    +0.000 C 
ATOM     22  C   UNL     1       6.722   4.957  16.364  0.00  0.00    +0.000 C 
BRANCH  20  23
ATOM     23  C   UNL     1       4.213   3.618  17.607  0.00  0.00    +0.000 C 
BRANCH  23  24
ATOM     24  C   UNL     1       3.200   3.348  18.695  0.00  0.00    +0.000 A 
ATOM     25  C   UNL     1       3.625   2.922  19.963  0.00  0.00    +0.000 A 
ATOM     26  C   UNL     1       2.706   2.738  20.993  0.00  0.00    +0.000 A 
ATOM     27  C   UNL     1       1.350   2.974  20.766  0.00  0.00    +0.000 A 
ATOM     28  C   UNL     1       0.914   3.373  19.503  0.00  0.00    +0.000 A 
ATOM     29  C   UNL     1       1.832   3.555  18.470  0.00  0.00    +0.000 A 
ENDBRANCH  23  24
ENDBRANCH  20  23
ENDBRANCH  16  17
ENDBRANCH   1  16
TORSDOF 8
ENDMDL
MODEL 9
REMARK VINA RESULT:      -6.8      5.637      8.295
REMARK  Name = 
REMARK  8 active torsions:
REMARK  status: ('A' for Active; 'I' for Inactive)
REMARK    1  A    between atoms: O_1  and  C_2
REMARK    2  A    between atoms: C_2  and  C_3
REMARK    3  A    between atoms: C_2  and  C_14
REMARK    4  A    between atoms: C_3  and  S_4
REMARK    5  A    between atoms: S_4  and  C_5
REMARK    6  A    between atoms: C_14  and  N_15
REMARK    7  A    between atoms: N_18  and  C_19
REMARK    8  A    between atoms: C_19  and  C_20
REMARK                            x       y       z     vdW  Elec       q    Type
REMARK                         _______ _______ _______ _____ _____    ______ ____
ROOT
ATOM      1  C   UNL     1       2.155   5.076  20.058  0.00  0.00    +0.000 C 
ENDROOT
BRANCH   1   2
ATOM      2  O   UNL     1       2.562   4.081  21.008  0.00  0.00    +0.000 OA
ATOM      3  H   UNL     1       2.569   3.223  20.550  0.00  0.00    +0.000 HD
ENDBRANCH   1   2
BRANCH   1   4
ATOM      4  C   UNL     1       1.493   6.235  20.820  0.00  0.00    +0.000 C 
BRANCH   4   5
ATOM      5  S   UNL     1       1.822   7.842  20.023  0.00  0.00    +0.000 S 
BRANCH   5   6
ATOM      6  C   UNL     1       0.783   8.950  20.885  0.00  0.00    +0.000 A 
ATOM      7  N   UNL     1       0.648   8.857  22.260  0.00  0.00    +0.000 N 
ATOM      8  C   UNL     1      -0.076   9.772  22.972  0.00  0.00    +0.000 A 
ATOM      9  N   UNL     1      -0.724  10.775  22.472  0.00  0.00    +0.000 NA
ATOM     10  C   UNL     1      -0.629  10.888  21.118  0.00  0.00    +0.000 A 
ATOM     11  N   UNL     1      -1.163  11.807  20.372  0.00  0.00    +0.000 NA
ATOM     12  C   UNL     1      -0.726  11.464  19.106  0.00  0.00    +0.000 A 
ATOM     13  N   UNL     1       0.039  10.414  18.991  0.00  0.00    +0.000 NA
ATOM     14  C   UNL     1       0.145   9.963  20.280  0.00  0.00    +0.000 A 
ATOM     15  H   UNL     1       1.169   8.117  22.713  0.00  0.00    +0.000 HD
ENDBRANCH   5   6
ENDBRANCH   4   5
ENDBRANCH   1   4
BRANCH   1  16
ATOM     16  C   UNL     1       3.389   5.537  19.244  0.00  0.00    +0.000 C 
BRANCH  16  17
ATOM     17  N   UNL     1       4.149   4.455  18.576  0.00  0.00    +0.000 NA
ATOM     18  C   UNL     1       4.025   4.484  17.104  0.00  0.00    +0.000 C 
ATOM     19  C   UNL     1       4.812   5.624  16.405  0.00  0.00    +0.000 C 
ATOM     20  N   UNL     1       6.248   5.681  16.767  0.00  0.00    +0.000 NA
ATOM     21  C   UNL     1       6.352   5.691  18.243  0.00  0.00    +0.000 C 
ATOM     22  C   UNL     1       5.581   4.546  18.947  0.00  0.00    +0.000 C 
BRANCH  20  23
ATOM     23  C   UNL     1       6.950   4.532  16.161  0.00  0.00    +0.000 C 
BRANCH  23  24
ATOM     24  C   UNL     1       6.936   4.503  14.651  0.00  0.00    +0.000 A 
ATOM     25  C   UNL     1       7.740   5.395  13.922  0.00  0.00    +0.000 A 
ATOM     26  C   UNL     1       7.788   5.328  12.531  0.00  0.00    +0.000 A 
ATOM     27  C   UNL     1       7.031   4.374  11.853  0.00  0.00    +0.000 A 
ATOM     28  C   UNL     1       6.210   3.500  12.566  0.00  0.00    +0.000 A 
ATOM     29  C   UNL     1       6.158   3.567  13.958  0.00  0.00    +0.000 A 
ENDBRANCH  23  24
ENDBRANCH  20  23
ENDBRANCH  16  17
ENDBRANCH   1  16
TORSDOF 8
ENDMDL
