MODEL 1
REMARK VINA RESULT:      -7.0      0.000      0.000
REMARK  Name = 
REMARK  3 active torsions:
REMARK  status: ('A' for Active; 'I' for Inactive)
REMARK    1  A    between atoms: C_1  and  C_2
REMARK    2  A    between atoms: C_5  and  N_6
REMARK    3  A    between atoms: C_10  and  N_11
REMARK                            x       y       z     vdW  Elec       q    Type
REMARK                         _______ _______ _______ _____ _____    ______ ____
ROOT
ATOM      1  C   UNL     1       2.511   7.359  17.978  0.00  0.00    +0.000 C 
ATOM      2  C   UNL     1       3.839   6.647  17.995  0.00  0.00    +0.000 A 
ATOM      3  C   UNL     1       4.716   6.868  16.913  0.00  0.00    +0.000 A 
ATOM      4  C   UNL     1       5.967   6.253  16.862  0.00  0.00    +0.000 A 
ATOM      5  C   UNL     1       6.364   5.439  17.920  0.00  0.00    +0.000 A 
ATOM      6  C   UNL     1       5.507   5.218  19.001  0.00  0.00    +0.000 A 
ATOM      7  C   UNL     1       4.211   5.763  19.036  0.00  0.00    +0.000 A 
ENDROOT
BRANCH   7   8
ATOM      8  N   UNL     1       3.305   5.429  20.067  0.00  0.00    +0.000 N 
ATOM      9  C   UNL     1       2.694   4.220  20.238  0.00  0.00    +0.000 C 
ATOM     10  N   UNL     1       2.983   3.063  19.745  0.00  0.00    +0.000 NA
ATOM     11  C   UNL     1       1.912   2.176  20.179  0.00  0.00    +0.000 C 
ATOM     12  C   UNL     1       1.170   2.963  21.230  0.00  0.00    +0.000 C 
ATOM     13  O   UNL     1       1.605   4.305  21.053  0.00  0.00    +0.000 OA
ATOM     14  H   UNL     1       2.805   6.198  20.488  0.00  0.00    +0.000 HD
ENDBRANCH   7   8
BRANCH   5  15
ATOM     15  N   UNL     1       7.680   4.787  17.895  0.00  0.00    +0.000 N 
ATOM     16  O   UNL     1       8.027   4.244  16.838  0.00  0.00    +0.000 OA
ATOM     17  O   UNL     1       8.364   4.813  18.928  0.00  0.00    +0.000 OA
ENDBRANCH   5  15
TORSDOF 2
ENDMDL
MODEL 2
REMARK VINA RESULT:      -6.7      1.503      1.746
REMARK  Name = 
REMARK  3 active torsions:
REMARK  status: ('A' for Active; 'I' for Inactive)
REMARK    1  A    between atoms: C_1  and  C_2
REMARK    2  A    between atoms: C_5  and  N_6
REMARK    3  A    between atoms: C_10  and  N_11
REMARK                            x       y       z     vdW  Elec       q    Type
REMARK                         _______ _______ _______ _____ _____    ______ ____
ROOT
ATOM      1  C   UNL     1       2.436   7.364  18.397  0.00  0.00    +0.000 C 
ATOM      2  C   UNL     1       3.495   6.530  17.722  0.00  0.00    +0.000 A 
ATOM      3  C   UNL     1       4.558   7.206  17.089  0.00  0.00    +0.000 A 
ATOM      4  C   UNL     1       5.581   6.504  16.452  0.00  0.00    +0.000 A 
ATOM      5  C   UNL     1       5.565   5.112  16.479  0.00  0.00    +0.000 A 
ATOM      6  C   UNL     1       4.519   4.430  17.108  0.00  0.00    +0.000 A 
ATOM      7  C   UNL     1       3.437   5.116  17.687  0.00  0.00    +0.000 A 
ENDROOT
BRANCH   7   8
ATOM      8  N   UNL     1       2.323   4.420  18.204  0.00  0.00    +0.000 N 
ATOM      9  C   UNL     1       2.160   4.011  19.497  0.00  0.00    +0.000 C 
ATOM     10  N   UNL     1       2.769   4.384  20.571  0.00  0.00    +0.000 NA
ATOM     11  C   UNL     1       2.262   3.518  21.627  0.00  0.00    +0.000 C 
ATOM     12  C   UNL     1       1.068   2.831  21.014  0.00  0.00    +0.000 C 
ATOM     13  O   UNL     1       1.204   3.047  19.615  0.00  0.00    +0.000 OA
ATOM     14  H   UNL     1       1.784   3.883  17.540  0.00  0.00    +0.000 HD
ENDBRANCH   7   8
BRANCH   5  15
ATOM     15  N   UNL     1       6.634   4.349  15.823  0.00  0.00    +0.000 N 
ATOM     16  O   UNL     1       6.322   3.651  14.849  0.00  0.00    +0.000 OA
ATOM     17  O   UNL     1       7.783   4.442  16.280  0.00  0.00    +0.000 OA
ENDBRANCH   5  15
TORSDOF 2
ENDMDL
MODEL 3
REMARK VINA RESULT:      -6.7      2.062      5.314
REMARK  Name = 
REMARK  3 active torsions:
REMARK  status: ('A' for Active; 'I' for Inactive)
REMARK    1  A    between atoms: C_1  and  C_2
REMARK    2  A    between atoms: C_5  and  N_6
REMARK    3  A    between atoms: C_10  and  N_11
REMARK                            x       y       z     vdW  Elec       q    Type
REMARK                         _______ _______ _______ _____ _____    ______ ____
ROOT
ATOM      1  C   UNL     1       3.146   7.754  17.754  0.00  0.00    +0.000 C 
ATOM      2  C   UNL     1       2.824   6.555  18.608  0.00  0.00    +0.000 A 
ATOM      3  C   UNL     1       2.186   6.782  19.846  0.00  0.00    +0.000 A 
ATOM      4  C   UNL     1       1.847   5.723  20.686  0.00  0.00    +0.000 A 
ATOM      5  C   UNL     1       2.112   4.419  20.273  0.00  0.00    +0.000 A 
ATOM      6  C   UNL     1       2.738   4.181  19.047  0.00  0.00    +0.000 A 
ATOM      7  C   UNL     1       3.160   5.236  18.219  0.00  0.00    +0.000 A 
ENDROOT
BRANCH   7   8
ATOM      8  N   UNL     1       3.908   4.991  17.046  0.00  0.00    +0.000 N 
ATOM      9  C   UNL     1       5.260   4.813  16.978  0.00  0.00    +0.000 C 
ATOM     10  N   UNL     1       6.110   4.531  17.906  0.00  0.00    +0.000 NA
ATOM     11  C   UNL     1       7.417   4.587  17.266  0.00  0.00    +0.000 C 
ATOM     12  C   UNL     1       7.115   4.642  15.790  0.00  0.00    +0.000 C 
ATOM     13  O   UNL     1       5.738   4.986  15.714  0.00  0.00    +0.000 OA
ATOM     14  H   UNL     1       3.498   5.311  16.181  0.00  0.00    +0.000 HD
ENDBRANCH   7   8
BRANCH   5  15
ATOM     15  N   UNL     1       1.757   3.285  21.137  0.00  0.00    +0.000 N 
ATOM     16  O   UNL     1       1.026   2.409  20.656  0.00  0.00    +0.000 OA
ATOM     17  O   UNL     1       2.203   3.270  22.293  0.00  0.00    +0.000 OA
ENDBRANCH   5  15
TORSDOF 2
ENDMDL
MODEL 4
REMARK VINA RESULT:      -6.6      1.554      1.711
REMARK  Name = 
REMARK  3 active torsions:
REMARK  status: ('A' for Active; 'I' for Inactive)
REMARK    1  A    between atoms: C_1  and  C_2
REMARK    2  A    between atoms: C_5  and  N_6
REMARK    3  A    between atoms: C_10  and  N_11
REMARK                            x       y       z     vdW  Elec       q    Type
REMARK                         _______ _______ _______ _____ _____    ______ ____
ROOT
ATOM      1  C   UNL     1       2.563   7.394  18.212  0.00  0.00    +0.000 C 
ATOM      2  C   UNL     1       3.773   6.644  17.718  0.00  0.00    +0.000 A 
ATOM      3  C   UNL     1       4.968   7.371  17.541  0.00  0.00    +0.000 A 
ATOM      4  C   UNL     1       6.133   6.745  17.096  0.00  0.00    +0.000 A 
ATOM      5  C   UNL     1       6.116   5.373  16.861  0.00  0.00    +0.000 A 
ATOM      6  C   UNL     1       4.938   4.641  17.038  0.00  0.00    +0.000 A 
ATOM      7  C   UNL     1       3.734   5.263  17.409  0.00  0.00    +0.000 A 
ENDROOT
BRANCH   7   8
ATOM      8  N   UNL     1       2.522   4.540  17.459  0.00  0.00    +0.000 N 
ATOM      9  C   UNL     1       2.103   3.744  18.486  0.00  0.00    +0.000 C 
ATOM     10  N   UNL     1       2.504   3.685  19.710  0.00  0.00    +0.000 NA
ATOM     11  C   UNL     1       1.780   2.569  20.304  0.00  0.00    +0.000 C 
ATOM     12  C   UNL     1       0.708   2.234  19.298  0.00  0.00    +0.000 C 
ATOM     13  O   UNL     1       1.116   2.887  18.102  0.00  0.00    +0.000 OA
ATOM     14  H   UNL     1       2.107   4.304  16.569  0.00  0.00    +0.000 HD
ENDBRANCH   7   8
BRANCH   5  15
ATOM     15  N   UNL     1       7.331   4.688  16.400  0.00  0.00    +0.000 N 
ATOM     16  O   UNL     1       7.532   4.643  15.179  0.00  0.00    +0.000 OA
ATOM     17  O   UNL     1       8.082   4.194  17.253  0.00  0.00    +0.000 OA
ENDBRANCH   5  15
TORSDOF 2
ENDMDL
MODEL 5
REMARK VINA RESULT:      -6.6      2.480      3.839
REMARK  Name = 
REMARK  3 active torsions:
REMARK  status: ('A' for Active; 'I' for Inactive)
REMARK    1  A    between atoms: C_1  and  C_2
REMARK    2  A    between atoms: C_5  and  N_6
REMARK    3  A    between atoms: C_10  and  N_11
REMARK                            x       y       z     vdW  Elec       q    Type
REMARK                         _______ _______ _______ _____ _____    ______ ____
ROOT
ATOM      1  C   UNL     1       1.762   3.986  17.972  0.00  0.00    +0.000 C 
ATOM      2  C   UNL     1       3.097   4.598  17.632  0.00  0.00    +0.000 A 
ATOM      3  C   UNL     1       3.977   3.848  16.825  0.00  0.00    +0.000 A 
ATOM      4  C   UNL     1       5.225   4.351  16.460  0.00  0.00    +0.000 A 
ATOM      5  C   UNL     1       5.585   5.632  16.872  0.00  0.00    +0.000 A 
ATOM      6  C   UNL     1       4.720   6.387  17.667  0.00  0.00    +0.000 A 
ATOM      7  C   UNL     1       3.490   5.870  18.113  0.00  0.00    +0.000 A 
ENDROOT
BRANCH   7   8
ATOM      8  N   UNL     1       2.682   6.587  19.022  0.00  0.00    +0.000 N 
ATOM      9  C   UNL     1       2.119   7.812  18.803  0.00  0.00    +0.000 C 
ATOM     10  N   UNL     1       1.924   8.453  17.701  0.00  0.00    +0.000 NA
ATOM     11  C   UNL     1       1.401   9.754  18.095  0.00  0.00    +0.000 C 
ATOM     12  C   UNL     1       1.062   9.601  19.556  0.00  0.00    +0.000 C 
ATOM     13  O   UNL     1       1.736   8.416  19.962  0.00  0.00    +0.000 OA
ATOM     14  H   UNL     1       2.809   6.370  20.000  0.00  0.00    +0.000 HD
ENDBRANCH   7   8
BRANCH   5  15
ATOM     15  N   UNL     1       6.891   6.188  16.493  0.00  0.00    +0.000 N 
ATOM     16  O   UNL     1       7.546   5.576  15.640  0.00  0.00    +0.000 OA
ATOM     17  O   UNL     1       7.264   7.231  17.049  0.00  0.00    +0.000 OA
ENDBRANCH   5  15
TORSDOF 2
ENDMDL
MODEL 6
REMARK VINA RESULT:      -6.5      2.852      3.285
REMARK  Name = 
REMARK  3 active torsions:
REMARK  status: ('A' for Active; 'I' for Inactive)
REMARK    1  A    between atoms: C_1  and  C_2
REMARK    2  A    between atoms: C_5  and  N_6
REMARK    3  A    between atoms: C_10  and  N_11
REMARK                            x       y       z     vdW  Elec       q    Type
REMARK                         _______ _______ _______ _____ _____    ______ ____
ROOT
ATOM      1  C   UNL     1       5.419   4.982  19.421  0.00  0.00    +0.000 C 
ATOM      2  C   UNL     1       5.823   4.915  17.971  0.00  0.00    +0.000 A 
ATOM      3  C   UNL     1       6.612   5.967  17.460  0.00  0.00    +0.000 A 
ATOM      4  C   UNL     1       7.034   5.970  16.131  0.00  0.00    +0.000 A 
ATOM      5  C   UNL     1       6.700   4.895  15.311  0.00  0.00    +0.000 A 
ATOM      6  C   UNL     1       5.924   3.844  15.808  0.00  0.00    +0.000 A 
ATOM      7  C   UNL     1       5.420   3.857  17.121  0.00  0.00    +0.000 A 
ENDROOT
BRANCH   7   8
ATOM      8  N   UNL     1       4.531   2.858  17.573  0.00  0.00    +0.000 N 
ATOM      9  C   UNL     1       3.208   3.032  17.863  0.00  0.00    +0.000 C 
ATOM     10  N   UNL     1       2.402   3.986  17.537  0.00  0.00    +0.000 NA
ATOM     11  C   UNL     1       1.155   3.695  18.230  0.00  0.00    +0.000 C 
ATOM     12  C   UNL     1       1.319   2.282  18.731  0.00  0.00    +0.000 C 
ATOM     13  O   UNL     1       2.713   2.022  18.631  0.00  0.00    +0.000 OA
ATOM     14  H   UNL     1       4.948   2.070  18.045  0.00  0.00    +0.000 HD
ENDBRANCH   7   8
BRANCH   5  15
ATOM     15  N   UNL     1       7.140   4.870  13.910  0.00  0.00    +0.000 N 
ATOM     16  O   UNL     1       6.571   4.078  13.148  0.00  0.00    +0.000 OA
ATOM     17  O   UNL     1       8.053   5.636  13.572  0.00  0.00    +0.000 OA
ENDBRANCH   5  15
TORSDOF 2
ENDMDL
MODEL 7
REMARK VINA RESULT:      -6.5      3.106      6.120
REMARK  Name = 
REMARK  3 active torsions:
REMARK  status: ('A' for Active; 'I' for Inactive)
REMARK    1  A    between atoms: C_1  and  C_2
REMARK    2  A    between atoms: C_5  and  N_6
REMARK    3  A    between atoms: C_10  and  N_11
REMARK                            x       y       z     vdW  Elec       q    Type
REMARK                         _______ _______ _______ _____ _____    ______ ____
ROOT
ATOM      1  C   UNL     1       7.514   6.518  18.169  0.00  0.00    +0.000 C 
ATOM      2  C   UNL     1       6.360   5.569  17.970  0.00  0.00    +0.000 A 
ATOM      3  C   UNL     1       5.751   5.026  19.120  0.00  0.00    +0.000 A 
ATOM      4  C   UNL     1       4.671   4.150  19.018  0.00  0.00    +0.000 A 
ATOM      5  C   UNL     1       4.169   3.839  17.757  0.00  0.00    +0.000 A 
ATOM      6  C   UNL     1       4.761   4.374  16.610  0.00  0.00    +0.000 A 
ATOM      7  C   UNL     1       5.898   5.197  16.684  0.00  0.00    +0.000 A 
ENDROOT
BRANCH   7   8
ATOM      8  N   UNL     1       6.568   5.627  15.517  0.00  0.00    +0.000 N 
ATOM      9  C   UNL     1       6.619   4.958  14.328  0.00  0.00    +0.000 C 
ATOM     10  N   UNL     1       5.884   3.996  13.881  0.00  0.00    +0.000 NA
ATOM     11  C   UNL     1       6.483   3.606  12.612  0.00  0.00    +0.000 C 
ATOM     12  C   UNL     1       7.468   4.705  12.304  0.00  0.00    +0.000 C 
ATOM     13  O   UNL     1       7.632   5.401  13.533  0.00  0.00    +0.000 OA
ATOM     14  H   UNL     1       7.335   6.269  15.654  0.00  0.00    +0.000 HD
ENDBRANCH   7   8
BRANCH   5  15
ATOM     15  N   UNL     1       3.028   2.924  17.622  0.00  0.00    +0.000 N 
ATOM     16  O   UNL     1       1.952   3.406  17.245  0.00  0.00    +0.000 OA
ATOM     17  O   UNL     1       3.203   1.728  17.896  0.00  0.00    +0.000 OA
ENDBRANCH   5  15
TORSDOF 2
ENDMDL
MODEL 8
REMARK VINA RESULT:      -6.4      1.895      2.130
REMARK  Name = 
REMARK  3 active torsions:
REMARK  status: ('A' for Active; 'I' for Inactive)
REMARK    1  A    between atoms: C_1  and  C_2
REMARK    2  A    between atoms: C_5  and  N_6
REMARK    3  A    between atoms: C_10  and  N_11
REMARK                            x       y       z     vdW  Elec       q    Type
REMARK                         _______ _______ _______ _____ _____    ______ ____
ROOT
ATOM      1  C   UNL     1       3.082   6.804  18.889  0.00  0.00    +0.000 C 
ATOM      2  C   UNL     1       4.016   6.208  17.868  0.00  0.00    +0.000 A 
ATOM      3  C   UNL     1       4.339   6.989  16.739  0.00  0.00    +0.000 A 
ATOM      4  C   UNL     1       5.204   6.511  15.755  0.00  0.00    +0.000 A 
ATOM      5  C   UNL     1       5.784   5.255  15.917  0.00  0.00    +0.000 A 
ATOM      6  C   UNL     1       5.476   4.474  17.035  0.00  0.00    +0.000 A 
ATOM      7  C   UNL     1       4.547   4.902  17.998  0.00  0.00    +0.000 A 
ENDROOT
BRANCH   7   8
ATOM      8  N   UNL     1       4.144   4.054  19.053  0.00  0.00    +0.000 N 
ATOM      9  C   UNL     1       2.935   3.429  19.163  0.00  0.00    +0.000 C 
ATOM     10  N   UNL     1       2.029   3.204  18.273  0.00  0.00    +0.000 NA
ATOM     11  C   UNL     1       0.911   2.613  18.995  0.00  0.00    +0.000 C 
ATOM     12  C   UNL     1       1.472   2.277  20.354  0.00  0.00    +0.000 C 
ATOM     13  O   UNL     1       2.688   3.010  20.436  0.00  0.00    +0.000 OA
ATOM     14  H   UNL     1       4.612   4.188  19.937  0.00  0.00    +0.000 HD
ENDBRANCH   7   8
BRANCH   5  15
ATOM     15  N   UNL     1       6.706   4.731  14.900  0.00  0.00    +0.000 N 
ATOM     16  O   UNL     1       7.747   5.367  14.692  0.00  0.00    +0.000 OA
ATOM     17  O   UNL     1       6.389   3.690  14.307  0.00  0.00    +0.000 OA
ENDBRANCH   5  15
TORSDOF 2
ENDMDL
MODEL 9
REMARK VINA RESULT:      -6.4      2.111      5.079
REMARK  Name = 
REMARK  3 active torsions:
REMARK  status: ('A' for Active; 'I' for Inactive)
REMARK    1  A    between atoms: C_1  and  C_2
REMARK    2  A    between atoms: C_5  and  N_6
REMARK    3  A    between atoms: C_10  and  N_11
REMARK                            x       y       z     vdW  Elec       q    Type
REMARK                         _______ _______ _______ _____ _____    ______ ____
ROOT
ATOM      1  C   UNL     1       2.809   7.731  17.975  0.00  0.00    +0.000 C 
ATOM      2  C   UNL     1       3.060   6.437  18.705  0.00  0.00    +0.000 A 
ATOM      3  C   UNL     1       2.152   6.069  19.720  0.00  0.00    +0.000 A 
ATOM      4  C   UNL     1       2.312   4.882  20.433  0.00  0.00    +0.000 A 
ATOM      5  C   UNL     1       3.365   4.032  20.106  0.00  0.00    +0.000 A 
ATOM      6  C   UNL     1       4.268   4.383  19.099  0.00  0.00    +0.000 A 
ATOM      7  C   UNL     1       4.174   5.611  18.421  0.00  0.00    +0.000 A 
ENDROOT
BRANCH   7   8
ATOM      8  N   UNL     1       5.164   6.015  17.498  0.00  0.00    +0.000 N 
ATOM      9  C   UNL     1       5.600   5.296  16.423  0.00  0.00    +0.000 C 
ATOM     10  N   UNL     1       5.065   4.287  15.823  0.00  0.00    +0.000 NA
ATOM     11  C   UNL     1       6.040   3.865  14.826  0.00  0.00    +0.000 C 
ATOM     12  C   UNL     1       7.045   4.988  14.779  0.00  0.00    +0.000 C 
ATOM     13  O   UNL     1       6.800   5.744  15.958  0.00  0.00    +0.000 OA
ATOM     14  H   UNL     1       5.834   6.692  17.831  0.00  0.00    +0.000 HD
ENDBRANCH   7   8
BRANCH   5  15
ATOM     15  N   UNL     1       3.551   2.771  20.837  0.00  0.00    +0.000 N 
ATOM     16  O   UNL     1       2.839   2.579  21.831  0.00  0.00    +0.000 OA
ATOM     17  O   UNL     1       4.406   1.976  20.422  0.00  0.00    +0.000 OA
ENDBRANCH   5  15
TORSDOF 2
ENDMDL
