MODEL 1
REMARK VINA RESULT:      -6.2      0.000      0.000
REMARK  Name = 
REMARK  19 active torsions:
REMARK  status: ('A' for Active; 'I' for Inactive)
REMARK    1  A    between atoms: C_1  and  C_2
REMARK    2  A    between atoms: C_2  and  C_3
REMARK    3  A    between atoms: C_3  and  C_4
REMARK    4  A    between atoms: C_4  and  C_5
REMARK    5  A    between atoms: C_5  and  C_6
REMARK    6  A    between atoms: C_6  and  C_7
REMARK    7  A    between atoms: C_8  and  C_9
REMARK    8  A    between atoms: C_9  and  C_10
REMARK    9  A    between atoms: C_10  and  C_11
REMARK   10  A    between atoms: C_11  and  C_12
REMARK   11  A    between atoms: C_12  and  C_13
REMARK   12  A    between atoms: C_13  and  C_14
REMARK   13  A    between atoms: C_14  and  C_15
REMARK   14  A    between atoms: C_15  and  C_16
REMARK   15  A    between atoms: C_16  and  C_17
REMARK   16  A    between atoms: C_17  and  C_18
REMARK   17  A    between atoms: C_22  and  O_23
REMARK   18  A    between atoms: C_24  and  C_25
REMARK   19  A    between atoms: C_25  and  O_27
REMARK                            x       y       z     vdW  Elec       q    Type
REMARK                         _______ _______ _______ _____ _____    ______ ____
ROOT
ATOM      1  C   UNL     1       2.195   2.721  17.429  0.00  0.00    +0.000 C 
ENDROOT
BRANCH   1   2
ATOM      2  C   UNL     1       3.106   3.882  17.062  0.00  0.00    +0.000 C 
BRANCH   2   3
ATOM      3  C   UNL     1       4.543   3.394  16.910  0.00  0.00    +0.000 C 
BRANCH   3   4
ATOM      4  C   UNL     1       5.517   4.435  17.413  0.00  0.00    +0.000 A 
ATOM      5  C   UNL     1       5.621   4.555  18.814  0.00  0.00    +0.000 A 
ATOM      6  C   UNL     1       6.495   5.458  19.402  0.00  0.00    +0.000 A 
ATOM      7  C   UNL     1       7.283   6.270  18.594  0.00  0.00    +0.000 A 
ATOM      8  C   UNL     1       7.207   6.154  17.200  0.00  0.00    +0.000 A 
ATOM      9  C   UNL     1       6.340   5.232  16.576  0.00  0.00    +0.000 A 
BRANCH   9  10
ATOM     10  C   UNL     1       6.303   5.076  15.072  0.00  0.00    +0.000 C 
ATOM     11  O   UNL     1       7.261   5.245  14.337  0.00  0.00    +0.000 OA
BRANCH  10  12
ATOM     12  O   UNL     1       5.104   4.742  14.544  0.00  0.00    +0.000 OA
ATOM     13  H   UNL     1       5.170   4.441  13.613  0.00  0.00    +0.000 HD
ENDBRANCH  10  12
ENDBRANCH   9  10
BRANCH   8  14
ATOM     14  O   UNL     1       8.011   6.977  16.440  0.00  0.00    +0.000 OA
ATOM     15  H   UNL     1       8.772   7.268  16.976  0.00  0.00    +0.000 HD
ENDBRANCH   8  14
ENDBRANCH   3   4
ENDBRANCH   2   3
ENDBRANCH   1   2
BRANCH   1  16
ATOM     16  C   UNL     1       1.436   3.024  18.709  0.00  0.00    +0.000 C 
BRANCH  16  17
ATOM     17  C   UNL     1       2.011   2.211  19.863  0.00  0.00    +0.000 C 
BRANCH  17  18
ATOM     18  C   UNL     1       2.175   3.108  21.075  0.00  0.00    +0.000 C 
BRANCH  18  19
ATOM     19  C   UNL     1       2.698   4.486  20.689  0.00  0.00    +0.000 C 
BRANCH  19  20
ATOM     20  C   UNL     1       1.604   5.549  20.809  0.00  0.00    +0.000 C 
BRANCH  20  21
ATOM     21  C   UNL     1       2.017   6.930  20.301  0.00  0.00    +0.000 C 
BRANCH  21  23
ATOM     22  C   UNL     1       2.703   7.595  17.971  0.00  0.00    +0.000 C 
ATOM     23  C   UNL     1       2.889   6.859  19.075  0.00  0.00    +0.000 C 
BRANCH  22  24
ATOM     24  C   UNL     1       1.610   8.609  17.868  0.00  0.00    +0.000 C 
BRANCH  24  25
ATOM     25  C   UNL     1       2.118  10.038  17.957  0.00  0.00    +0.000 C 
BRANCH  25  26
ATOM     26  C   UNL     1       1.100  10.883  18.716  0.00  0.00    +0.000 C 
BRANCH  26  27
ATOM     27  C   UNL     1       0.193   9.999  19.555  0.00  0.00    +0.000 C 
BRANCH  27  29
ATOM     28  C   UNL     1      -0.295   9.179  21.867  0.00  0.00    +0.000 C 
ATOM     29  C   UNL     1       0.435  10.224  21.045  0.00  0.00    +0.000 C 
ENDBRANCH  27  29
ENDBRANCH  26  27
ENDBRANCH  25  26
ENDBRANCH  24  25
ENDBRANCH  22  24
ENDBRANCH  21  23
ENDBRANCH  20  21
ENDBRANCH  19  20
ENDBRANCH  18  19
ENDBRANCH  17  18
ENDBRANCH  16  17
ENDBRANCH   1  16
TORSDOF 18
ENDMDL
MODEL 2
REMARK VINA RESULT:      -6.2      4.156      8.091
REMARK  Name = 
REMARK  19 active torsions:
REMARK  status: ('A' for Active; 'I' for Inactive)
REMARK    1  A    between atoms: C_1  and  C_2
REMARK    2  A    between atoms: C_2  and  C_3
REMARK    3  A    between atoms: C_3  and  C_4
REMARK    4  A    between atoms: C_4  and  C_5
REMARK    5  A    between atoms: C_5  and  C_6
REMARK    6  A    between atoms: C_6  and  C_7
REMARK    7  A    between atoms: C_8  and  C_9
REMARK    8  A    between atoms: C_9  and  C_10
REMARK    9  A    between atoms: C_10  and  C_11
REMARK   10  A    between atoms: C_11  and  C_12
REMARK   11  A    between atoms: C_12  and  C_13
REMARK   12  A    between atoms: C_13  and  C_14
REMARK   13  A    between atoms: C_14  and  C_15
REMARK   14  A    between atoms: C_15  and  C_16
REMARK   15  A    between atoms: C_16  and  C_17
REMARK   16  A    between atoms: C_17  and  C_18
REMARK   17  A    between atoms: C_22  and  O_23
REMARK   18  A    between atoms: C_24  and  C_25
REMARK   19  A    between atoms: C_25  and  O_27
REMARK                            x       y       z     vdW  Elec       q    Type
REMARK                         _______ _______ _______ _____ _____    ______ ____
ROOT
ATOM      1  C   UNL     1       1.628   8.516  17.663  0.00  0.00    +0.000 C 
ENDROOT
BRANCH   1   2
ATOM      2  C   UNL     1       1.550   9.795  18.481  0.00  0.00    +0.000 C 
BRANCH   2   3
ATOM      3  C   UNL     1       0.098  10.113  18.822  0.00  0.00    +0.000 C 
BRANCH   3   4
ATOM      4  C   UNL     1      -0.116  10.102  20.318  0.00  0.00    +0.000 A 
ATOM      5  C   UNL     1       0.415   8.992  21.007  0.00  0.00    +0.000 A 
ATOM      6  C   UNL     1       0.305   8.873  22.385  0.00  0.00    +0.000 A 
ATOM      7  C   UNL     1      -0.350   9.866  23.105  0.00  0.00    +0.000 A 
ATOM      8  C   UNL     1      -0.869  10.985  22.441  0.00  0.00    +0.000 A 
ATOM      9  C   UNL     1      -0.756  11.139  21.043  0.00  0.00    +0.000 A 
BRANCH   9  10
ATOM     10  C   UNL     1      -1.272  12.376  20.341  0.00  0.00    +0.000 C 
ATOM     11  O   UNL     1      -2.248  12.398  19.611  0.00  0.00    +0.000 OA
BRANCH  10  12
ATOM     12  O   UNL     1      -0.564  13.509  20.549  0.00  0.00    +0.000 OA
ATOM     13  H   UNL     1      -1.127  14.262  20.827  0.00  0.00    +0.000 HD
ENDBRANCH  10  12
ENDBRANCH   9  10
BRANCH   8  14
ATOM     14  O   UNL     1      -1.507  11.946  23.198  0.00  0.00    +0.000 OA
ATOM     15  H   UNL     1      -2.078  12.484  22.619  0.00  0.00    +0.000 HD
ENDBRANCH   8  14
ENDBRANCH   3   4
ENDBRANCH   2   3
ENDBRANCH   1   2
BRANCH   1  16
ATOM     16  C   UNL     1       2.973   7.839  17.861  0.00  0.00    +0.000 C 
BRANCH  16  17
ATOM     17  C   UNL     1       3.001   7.111  19.200  0.00  0.00    +0.000 C 
BRANCH  17  18
ATOM     18  C   UNL     1       2.144   5.863  19.110  0.00  0.00    +0.000 C 
BRANCH  18  19
ATOM     19  C   UNL     1       1.903   5.245  20.481  0.00  0.00    +0.000 C 
BRANCH  19  20
ATOM     20  C   UNL     1       0.899   4.094  20.405  0.00  0.00    +0.000 C 
BRANCH  20  21
ATOM     21  C   UNL     1       1.522   2.744  20.050  0.00  0.00    +0.000 C 
BRANCH  21  23
ATOM     22  C   UNL     1       2.382   2.311  17.723  0.00  0.00    +0.000 C 
ATOM     23  C   UNL     1       1.365   2.400  18.591  0.00  0.00    +0.000 C 
BRANCH  22  24
ATOM     24  C   UNL     1       3.803   2.509  18.140  0.00  0.00    +0.000 C 
BRANCH  24  25
ATOM     25  C   UNL     1       4.482   3.653  17.408  0.00  0.00    +0.000 C 
BRANCH  25  26
ATOM     26  C   UNL     1       5.413   4.382  18.372  0.00  0.00    +0.000 C 
BRANCH  26  27
ATOM     27  C   UNL     1       6.720   4.739  17.683  0.00  0.00    +0.000 C 
BRANCH  27  29
ATOM     28  C   UNL     1       7.428   7.132  17.529  0.00  0.00    +0.000 C 
ATOM     29  C   UNL     1       7.419   5.890  18.399  0.00  0.00    +0.000 C 
ENDBRANCH  27  29
ENDBRANCH  26  27
ENDBRANCH  25  26
ENDBRANCH  24  25
ENDBRANCH  22  24
ENDBRANCH  21  23
ENDBRANCH  20  21
ENDBRANCH  19  20
ENDBRANCH  18  19
ENDBRANCH  17  18
ENDBRANCH  16  17
ENDBRANCH   1  16
TORSDOF 18
ENDMDL
MODEL 3
REMARK VINA RESULT:      -6.1      3.803      7.720
REMARK  Name = 
REMARK  19 active torsions:
REMARK  status: ('A' for Active; 'I' for Inactive)
REMARK    1  A    between atoms: C_1  and  C_2
REMARK    2  A    between atoms: C_2  and  C_3
REMARK    3  A    between atoms: C_3  and  C_4
REMARK    4  A    between atoms: C_4  and  C_5
REMARK    5  A    between atoms: C_5  and  C_6
REMARK    6  A    between atoms: C_6  and  C_7
REMARK    7  A    between atoms: C_8  and  C_9
REMARK    8  A    between atoms: C_9  and  C_10
REMARK    9  A    between atoms: C_10  and  C_11
REMARK   10  A    between atoms: C_11  and  C_12
REMARK   11  A    between atoms: C_12  and  C_13
REMARK   12  A    between atoms: C_13  and  C_14
REMARK   13  A    between atoms: C_14  and  C_15
REMARK   14  A    between atoms: C_15  and  C_16
REMARK   15  A    between atoms: C_16  and  C_17
REMARK   16  A    between atoms: C_17  and  C_18
REMARK   17  A    between atoms: C_22  and  O_23
REMARK   18  A    between atoms: C_24  and  C_25
REMARK   19  A    between atoms: C_25  and  O_27
REMARK                            x       y       z     vdW  Elec       q    Type
REMARK                         _______ _______ _______ _____ _____    ______ ____
ROOT
ATOM      1  C   UNL     1       2.297   7.266  18.338  0.00  0.00    +0.000 C 
ENDROOT
BRANCH   1   2
ATOM      2  C   UNL     1       1.952   8.685  17.917  0.00  0.00    +0.000 C 
BRANCH   2   3
ATOM      3  C   UNL     1       1.421   9.473  19.110  0.00  0.00    +0.000 C 
BRANCH   3   4
ATOM      4  C   UNL     1       0.216  10.296  18.715  0.00  0.00    +0.000 A 
ATOM      5  C   UNL     1      -0.669   9.691  17.799  0.00  0.00    +0.000 A 
ATOM      6  C   UNL     1      -1.823  10.333  17.373  0.00  0.00    +0.000 A 
ATOM      7  C   UNL     1      -2.112  11.605  17.852  0.00  0.00    +0.000 A 
ATOM      8  C   UNL     1      -1.255  12.217  18.776  0.00  0.00    +0.000 A 
ATOM      9  C   UNL     1      -0.084  11.579  19.239  0.00  0.00    +0.000 A 
BRANCH   9  10
ATOM     10  C   UNL     1       0.808  12.224  20.277  0.00  0.00    +0.000 C 
ATOM     11  O   UNL     1       0.913  11.842  21.430  0.00  0.00    +0.000 OA
BRANCH  10  12
ATOM     12  O   UNL     1       1.506  13.305  19.862  0.00  0.00    +0.000 OA
ATOM     13  H   UNL     1       2.349  13.065  19.420  0.00  0.00    +0.000 HD
ENDBRANCH  10  12
ENDBRANCH   9  10
BRANCH   8  14
ATOM     14  O   UNL     1      -1.585  13.478  19.226  0.00  0.00    +0.000 OA
ATOM     15  H   UNL     1      -1.103  13.659  20.056  0.00  0.00    +0.000 HD
ENDBRANCH   8  14
ENDBRANCH   3   4
ENDBRANCH   2   3
ENDBRANCH   1   2
BRANCH   1  16
ATOM     16  C   UNL     1       2.364   7.161  19.851  0.00  0.00    +0.000 C 
BRANCH  16  17
ATOM     17  C   UNL     1       2.690   5.731  20.264  0.00  0.00    +0.000 C 
BRANCH  17  18
ATOM     18  C   UNL     1       1.401   4.947  20.418  0.00  0.00    +0.000 C 
BRANCH  18  19
ATOM     19  C   UNL     1       1.663   3.452  20.545  0.00  0.00    +0.000 C 
BRANCH  19  20
ATOM     20  C   UNL     1       0.984   2.671  19.418  0.00  0.00    +0.000 C 
BRANCH  20  21
ATOM     21  C   UNL     1       1.878   2.421  18.204  0.00  0.00    +0.000 C 
BRANCH  21  23
ATOM     22  C   UNL     1       4.293   3.127  18.102  0.00  0.00    +0.000 C 
ATOM     23  C   UNL     1       3.336   2.315  18.570  0.00  0.00    +0.000 C 
BRANCH  22  24
ATOM     24  C   UNL     1       3.990   4.266  17.183  0.00  0.00    +0.000 C 
BRANCH  24  25
ATOM     25  C   UNL     1       5.027   4.433  16.086  0.00  0.00    +0.000 C 
BRANCH  25  26
ATOM     26  C   UNL     1       5.681   5.804  16.221  0.00  0.00    +0.000 C 
BRANCH  26  27
ATOM     27  C   UNL     1       7.107   5.667  16.728  0.00  0.00    +0.000 C 
BRANCH  27  29
ATOM     28  C   UNL     1       7.662   5.753  19.165  0.00  0.00    +0.000 C 
ATOM     29  C   UNL     1       7.351   6.575  17.929  0.00  0.00    +0.000 C 
ENDBRANCH  27  29
ENDBRANCH  26  27
ENDBRANCH  25  26
ENDBRANCH  24  25
ENDBRANCH  22  24
ENDBRANCH  21  23
ENDBRANCH  20  21
ENDBRANCH  19  20
ENDBRANCH  18  19
ENDBRANCH  17  18
ENDBRANCH  16  17
ENDBRANCH   1  16
TORSDOF 18
ENDMDL
MODEL 4
REMARK VINA RESULT:      -6.1      2.051      3.115
REMARK  Name = 
REMARK  19 active torsions:
REMARK  status: ('A' for Active; 'I' for Inactive)
REMARK    1  A    between atoms: C_1  and  C_2
REMARK    2  A    between atoms: C_2  and  C_3
REMARK    3  A    between atoms: C_3  and  C_4
REMARK    4  A    between atoms: C_4  and  C_5
REMARK    5  A    between atoms: C_5  and  C_6
REMARK    6  A    between atoms: C_6  and  C_7
REMARK    7  A    between atoms: C_8  and  C_9
REMARK    8  A    between atoms: C_9  and  C_10
REMARK    9  A    between atoms: C_10  and  C_11
REMARK   10  A    between atoms: C_11  and  C_12
REMARK   11  A    between atoms: C_12  and  C_13
REMARK   12  A    between atoms: C_13  and  C_14
REMARK   13  A    between atoms: C_14  and  C_15
REMARK   14  A    between atoms: C_15  and  C_16
REMARK   15  A    between atoms: C_16  and  C_17
REMARK   16  A    between atoms: C_17  and  C_18
REMARK   17  A    between atoms: C_22  and  O_23
REMARK   18  A    between atoms: C_24  and  C_25
REMARK   19  A    between atoms: C_25  and  O_27
REMARK                            x       y       z     vdW  Elec       q    Type
REMARK                         _______ _______ _______ _____ _____    ______ ____
ROOT
ATOM      1  C   UNL     1       3.222   2.308  20.164  0.00  0.00    +0.000 C 
ENDROOT
BRANCH   1   2
ATOM      2  C   UNL     1       4.468   2.313  19.293  0.00  0.00    +0.000 C 
BRANCH   2   3
ATOM      3  C   UNL     1       5.024   3.729  19.179  0.00  0.00    +0.000 C 
BRANCH   3   4
ATOM      4  C   UNL     1       5.262   4.095  17.732  0.00  0.00    +0.000 A 
ATOM      5  C   UNL     1       4.162   3.924  16.865  0.00  0.00    +0.000 A 
ATOM      6  C   UNL     1       4.244   4.245  15.517  0.00  0.00    +0.000 A 
ATOM      7  C   UNL     1       5.437   4.739  15.005  0.00  0.00    +0.000 A 
ATOM      8  C   UNL     1       6.536   4.933  15.853  0.00  0.00    +0.000 A 
ATOM      9  C   UNL     1       6.475   4.632  17.230  0.00  0.00    +0.000 A 
BRANCH   9  10
ATOM     10  C   UNL     1       7.648   4.894  18.148  0.00  0.00    +0.000 C 
ATOM     11  O   UNL     1       7.739   5.854  18.895  0.00  0.00    +0.000 OA
BRANCH  10  12
ATOM     12  O   UNL     1       8.651   3.990  18.094  0.00  0.00    +0.000 OA
ATOM     13  H   UNL     1       8.707   3.436  18.902  0.00  0.00    +0.000 HD
ENDBRANCH  10  12
ENDBRANCH   9  10
BRANCH   8  14
ATOM     14  O   UNL     1       7.698   5.430  15.300  0.00  0.00    +0.000 OA
ATOM     15  H   UNL     1       7.566   5.564  14.342  0.00  0.00    +0.000 HD
ENDBRANCH   8  14
ENDBRANCH   3   4
ENDBRANCH   2   3
ENDBRANCH   1   2
BRANCH   1  16
ATOM     16  C   UNL     1       1.979   2.116  19.312  0.00  0.00    +0.000 C 
BRANCH  16  17
ATOM     17  C   UNL     1       1.288   3.456  19.085  0.00  0.00    +0.000 C 
BRANCH  17  18
ATOM     18  C   UNL     1       0.925   4.066  20.425  0.00  0.00    +0.000 C 
BRANCH  18  19
ATOM     19  C   UNL     1       1.394   5.512  20.530  0.00  0.00    +0.000 C 
BRANCH  19  20
ATOM     20  C   UNL     1       2.398   5.852  19.427  0.00  0.00    +0.000 C 
BRANCH  20  21
ATOM     21  C   UNL     1       2.694   7.346  19.290  0.00  0.00    +0.000 C 
BRANCH  21  23
ATOM     22  C   UNL     1       1.421   8.973  17.850  0.00  0.00    +0.000 C 
ATOM     23  C   UNL     1       2.226   7.909  17.973  0.00  0.00    +0.000 C 
BRANCH  22  24
ATOM     24  C   UNL     1       0.934   9.743  19.035  0.00  0.00    +0.000 C 
BRANCH  24  25
ATOM     25  C   UNL     1      -0.048  10.840  18.666  0.00  0.00    +0.000 C 
BRANCH  25  26
ATOM     26  C   UNL     1      -1.197  10.234  17.866  0.00  0.00    +0.000 C 
BRANCH  26  27
ATOM     27  C   UNL     1      -2.351  11.218  17.762  0.00  0.00    +0.000 C 
BRANCH  27  29
ATOM     28  C   UNL     1      -4.690  11.371  16.889  0.00  0.00    +0.000 C 
ATOM     29  C   UNL     1      -3.680  10.487  17.596  0.00  0.00    +0.000 C 
ENDBRANCH  27  29
ENDBRANCH  26  27
ENDBRANCH  25  26
ENDBRANCH  24  25
ENDBRANCH  22  24
ENDBRANCH  21  23
ENDBRANCH  20  21
ENDBRANCH  19  20
ENDBRANCH  18  19
ENDBRANCH  17  18
ENDBRANCH  16  17
ENDBRANCH   1  16
TORSDOF 18
ENDMDL
MODEL 5
REMARK VINA RESULT:      -6.0      5.013      7.274
REMARK  Name = 
REMARK  19 active torsions:
REMARK  status: ('A' for Active; 'I' for Inactive)
REMARK    1  A    between atoms: C_1  and  C_2
REMARK    2  A    between atoms: C_2  and  C_3
REMARK    3  A    between atoms: C_3  and  C_4
REMARK    4  A    between atoms: C_4  and  C_5
REMARK    5  A    between atoms: C_5  and  C_6
REMARK    6  A    between atoms: C_6  and  C_7
REMARK    7  A    between atoms: C_8  and  C_9
REMARK    8  A    between atoms: C_9  and  C_10
REMARK    9  A    between atoms: C_10  and  C_11
REMARK   10  A    between atoms: C_11  and  C_12
REMARK   11  A    between atoms: C_12  and  C_13
REMARK   12  A    between atoms: C_13  and  C_14
REMARK   13  A    between atoms: C_14  and  C_15
REMARK   14  A    between atoms: C_15  and  C_16
REMARK   15  A    between atoms: C_16  and  C_17
REMARK   16  A    between atoms: C_17  and  C_18
REMARK   17  A    between atoms: C_22  and  O_23
REMARK   18  A    between atoms: C_24  and  C_25
REMARK   19  A    between atoms: C_25  and  O_27
REMARK                            x       y       z     vdW  Elec       q    Type
REMARK                         _______ _______ _______ _____ _____    ______ ____
ROOT
ATOM      1  C   UNL     1       3.459   7.436  17.762  0.00  0.00    +0.000 C 
ENDROOT
BRANCH   1   2
ATOM      2  C   UNL     1       2.390   6.655  18.510  0.00  0.00    +0.000 C 
BRANCH   2   3
ATOM      3  C   UNL     1       2.379   5.202  18.047  0.00  0.00    +0.000 C 
BRANCH   3   4
ATOM      4  C   UNL     1       2.354   4.263  19.231  0.00  0.00    +0.000 A 
ATOM      5  C   UNL     1       1.110   4.129  19.883  0.00  0.00    +0.000 A 
ATOM      6  C   UNL     1       0.948   3.281  20.970  0.00  0.00    +0.000 A 
ATOM      7  C   UNL     1       2.037   2.553  21.434  0.00  0.00    +0.000 A 
ATOM      8  C   UNL     1       3.277   2.659  20.790  0.00  0.00    +0.000 A 
ATOM      9  C   UNL     1       3.464   3.500  19.673  0.00  0.00    +0.000 A 
BRANCH   9  10
ATOM     10  C   UNL     1       4.792   3.568  18.950  0.00  0.00    +0.000 C 
ATOM     11  O   UNL     1       5.814   4.034  19.426  0.00  0.00    +0.000 OA
BRANCH  10  12
ATOM     12  O   UNL     1       4.800   3.087  17.687  0.00  0.00    +0.000 OA
ATOM     13  H   UNL     1       5.158   2.175  17.631  0.00  0.00    +0.000 HD
ENDBRANCH  10  12
ENDBRANCH   9  10
BRANCH   8  14
ATOM     14  O   UNL     1       4.326   1.914  21.284  0.00  0.00    +0.000 OA
ATOM     15  H   UNL     1       4.065   1.516  22.137  0.00  0.00    +0.000 HD
ENDBRANCH   8  14
ENDBRANCH   3   4
ENDBRANCH   2   3
ENDBRANCH   1   2
BRANCH   1  16
ATOM     16  C   UNL     1       4.358   6.493  16.981  0.00  0.00    +0.000 C 
BRANCH  16  17
ATOM     17  C   UNL     1       5.712   7.146  16.733  0.00  0.00    +0.000 C 
BRANCH  17  18
ATOM     18  C   UNL     1       6.805   6.267  17.310  0.00  0.00    +0.000 C 
BRANCH  18  19
ATOM     19  C   UNL     1       7.798   7.076  18.136  0.00  0.00    +0.000 C 
BRANCH  19  20
ATOM     20  C   UNL     1       7.846   8.534  17.677  0.00  0.00    +0.000 C 
BRANCH  20  21
ATOM     21  C   UNL     1       8.792   9.416  18.493  0.00  0.00    +0.000 C 
BRANCH  21  23
ATOM     22  C   UNL     1       9.491  11.831  18.614  0.00  0.00    +0.000 C 
ATOM     23  C   UNL     1       8.775  10.853  18.043  0.00  0.00    +0.000 C 
BRANCH  22  24
ATOM     24  C   UNL     1      10.426  11.573  19.751  0.00  0.00    +0.000 C 
BRANCH  24  25
ATOM     25  C   UNL     1      11.210  12.805  20.165  0.00  0.00    +0.000 C 
BRANCH  25  26
ATOM     26  C   UNL     1      10.239  13.877  20.647  0.00  0.00    +0.000 C 
BRANCH  26  27
ATOM     27  C   UNL     1      10.959  15.201  20.842  0.00  0.00    +0.000 C 
BRANCH  27  29
ATOM     28  C   UNL     1       9.433  15.076  22.819  0.00  0.00    +0.000 C 
ATOM     29  C   UNL     1      10.546  15.861  22.154  0.00  0.00    +0.000 C 
ENDBRANCH  27  29
ENDBRANCH  26  27
ENDBRANCH  25  26
ENDBRANCH  24  25
ENDBRANCH  22  24
ENDBRANCH  21  23
ENDBRANCH  20  21
ENDBRANCH  19  20
ENDBRANCH  18  19
ENDBRANCH  17  18
ENDBRANCH  16  17
ENDBRANCH   1  16
TORSDOF 18
ENDMDL
MODEL 6
REMARK VINA RESULT:      -6.0      4.909      7.222
REMARK  Name = 
REMARK  19 active torsions:
REMARK  status: ('A' for Active; 'I' for Inactive)
REMARK    1  A    between atoms: C_1  and  C_2
REMARK    2  A    between atoms: C_2  and  C_3
REMARK    3  A    between atoms: C_3  and  C_4
REMARK    4  A    between atoms: C_4  and  C_5
REMARK    5  A    between atoms: C_5  and  C_6
REMARK    6  A    between atoms: C_6  and  C_7
REMARK    7  A    between atoms: C_8  and  C_9
REMARK    8  A    between atoms: C_9  and  C_10
REMARK    9  A    between atoms: C_10  and  C_11
REMARK   10  A    between atoms: C_11  and  C_12
REMARK   11  A    between atoms: C_12  and  C_13
REMARK   12  A    between atoms: C_13  and  C_14
REMARK   13  A    between atoms: C_14  and  C_15
REMARK   14  A    between atoms: C_15  and  C_16
REMARK   15  A    between atoms: C_16  and  C_17
REMARK   16  A    between atoms: C_17  and  C_18
REMARK   17  A    between atoms: C_22  and  O_23
REMARK   18  A    between atoms: C_24  and  C_25
REMARK   19  A    between atoms: C_25  and  O_27
REMARK                            x       y       z     vdW  Elec       q    Type
REMARK                         _______ _______ _______ _____ _____    ______ ____
ROOT
ATOM      1  C   UNL     1       6.098   5.267  17.259  0.00  0.00    +0.000 C 
ENDROOT
BRANCH   1   2
ATOM      2  C   UNL     1       5.240   4.015  17.360  0.00  0.00    +0.000 C 
BRANCH   2   3
ATOM      3  C   UNL     1       3.788   4.346  17.034  0.00  0.00    +0.000 C 
BRANCH   3   4
ATOM      4  C   UNL     1       3.011   4.645  18.296  0.00  0.00    +0.000 A 
ATOM      5  C   UNL     1       3.012   5.992  18.714  0.00  0.00    +0.000 A 
ATOM      6  C   UNL     1       2.319   6.401  19.845  0.00  0.00    +0.000 A 
ATOM      7  C   UNL     1       1.613   5.463  20.588  0.00  0.00    +0.000 A 
ATOM      8  C   UNL     1       1.585   4.123  20.180  0.00  0.00    +0.000 A 
ATOM      9  C   UNL     1       2.266   3.684  19.025  0.00  0.00    +0.000 A 
BRANCH   9  10
ATOM     10  C   UNL     1       2.187   2.246  18.561  0.00  0.00    +0.000 C 
ATOM     11  O   UNL     1       3.137   1.481  18.518  0.00  0.00    +0.000 OA
BRANCH  10  12
ATOM     12  O   UNL     1       0.968   1.823  18.159  0.00  0.00    +0.000 OA
ATOM     13  H   UNL     1       0.822   0.869  18.331  0.00  0.00    +0.000 HD
ENDBRANCH  10  12
ENDBRANCH   9  10
BRANCH   8  14
ATOM     14  O   UNL     1       0.867   3.230  20.947  0.00  0.00    +0.000 OA
ATOM     15  H   UNL     1       0.367   3.719  21.627  0.00  0.00    +0.000 HD
ENDBRANCH   8  14
ENDBRANCH   3   4
ENDBRANCH   2   3
ENDBRANCH   1   2
BRANCH   1  16
ATOM     16  C   UNL     1       6.789   5.545  18.583  0.00  0.00    +0.000 C 
BRANCH  16  17
ATOM     17  C   UNL     1       7.811   6.663  18.414  0.00  0.00    +0.000 C 
BRANCH  17  18
ATOM     18  C   UNL     1       7.220   7.755  17.543  0.00  0.00    +0.000 C 
BRANCH  18  19
ATOM     19  C   UNL     1       8.066   9.021  17.577  0.00  0.00    +0.000 C 
BRANCH  19  20
ATOM     20  C   UNL     1       8.800   9.165  18.912  0.00  0.00    +0.000 C 
BRANCH  20  21
ATOM     21  C   UNL     1       9.350  10.566  19.177  0.00  0.00    +0.000 C 
BRANCH  21  23
ATOM     22  C   UNL     1      10.044  12.568  17.817  0.00  0.00    +0.000 C 
ATOM     23  C   UNL     1       9.348  11.430  17.943  0.00  0.00    +0.000 C 
BRANCH  22  24
ATOM     24  C   UNL     1      10.940  13.076  18.900  0.00  0.00    +0.000 C 
BRANCH  24  25
ATOM     25  C   UNL     1      10.256  14.077  19.814  0.00  0.00    +0.000 C 
BRANCH  25  26
ATOM     26  C   UNL     1      10.195  13.504  21.226  0.00  0.00    +0.000 C 
BRANCH  26  27
ATOM     27  C   UNL     1       9.082  14.166  22.022  0.00  0.00    +0.000 C 
BRANCH  27  29
ATOM     28  C   UNL     1       8.373  11.824  22.542  0.00  0.00    +0.000 C 
ATOM     29  C   UNL     1       7.896  13.222  22.196  0.00  0.00    +0.000 C 
ENDBRANCH  27  29
ENDBRANCH  26  27
ENDBRANCH  25  26
ENDBRANCH  24  25
ENDBRANCH  22  24
ENDBRANCH  21  23
ENDBRANCH  20  21
ENDBRANCH  19  20
ENDBRANCH  18  19
ENDBRANCH  17  18
ENDBRANCH  16  17
ENDBRANCH   1  16
TORSDOF 18
ENDMDL
MODEL 7
REMARK VINA RESULT:      -6.0      2.094      2.979
REMARK  Name = 
REMARK  19 active torsions:
REMARK  status: ('A' for Active; 'I' for Inactive)
REMARK    1  A    between atoms: C_1  and  C_2
REMARK    2  A    between atoms: C_2  and  C_3
REMARK    3  A    between atoms: C_3  and  C_4
REMARK    4  A    between atoms: C_4  and  C_5
REMARK    5  A    between atoms: C_5  and  C_6
REMARK    6  A    between atoms: C_6  and  C_7
REMARK    7  A    between atoms: C_8  and  C_9
REMARK    8  A    between atoms: C_9  and  C_10
REMARK    9  A    between atoms: C_10  and  C_11
REMARK   10  A    between atoms: C_11  and  C_12
REMARK   11  A    between atoms: C_12  and  C_13
REMARK   12  A    between atoms: C_13  and  C_14
REMARK   13  A    between atoms: C_14  and  C_15
REMARK   14  A    between atoms: C_15  and  C_16
REMARK   15  A    between atoms: C_16  and  C_17
REMARK   16  A    between atoms: C_17  and  C_18
REMARK   17  A    between atoms: C_22  and  O_23
REMARK   18  A    between atoms: C_24  and  C_25
REMARK   19  A    between atoms: C_25  and  O_27
REMARK                            x       y       z     vdW  Elec       q    Type
REMARK                         _______ _______ _______ _____ _____    ______ ____
ROOT
ATOM      1  C   UNL     1       2.245   2.498  18.299  0.00  0.00    +0.000 C 
ENDROOT
BRANCH   1   2
ATOM      2  C   UNL     1       3.718   2.601  17.934  0.00  0.00    +0.000 C 
BRANCH   2   3
ATOM      3  C   UNL     1       3.954   3.812  17.039  0.00  0.00    +0.000 C 
BRANCH   3   4
ATOM      4  C   UNL     1       5.136   4.617  17.528  0.00  0.00    +0.000 A 
ATOM      5  C   UNL     1       5.502   4.417  18.875  0.00  0.00    +0.000 A 
ATOM      6  C   UNL     1       6.583   5.079  19.439  0.00  0.00    +0.000 A 
ATOM      7  C   UNL     1       7.320   5.966  18.664  0.00  0.00    +0.000 A 
ATOM      8  C   UNL     1       6.984   6.166  17.319  0.00  0.00    +0.000 A 
ATOM      9  C   UNL     1       5.901   5.493  16.715  0.00  0.00    +0.000 A 
BRANCH   9  10
ATOM     10  C   UNL     1       5.577   5.674  15.248  0.00  0.00    +0.000 C 
ATOM     11  O   UNL     1       5.707   4.807  14.400  0.00  0.00    +0.000 OA
BRANCH  10  12
ATOM     12  O   UNL     1       5.134   6.900  14.891  0.00  0.00    +0.000 OA
ATOM     13  H   UNL     1       5.844   7.577  14.900  0.00  0.00    +0.000 HD
ENDBRANCH  10  12
ENDBRANCH   9  10
BRANCH   8  14
ATOM     14  O   UNL     1       7.747   7.052  16.588  0.00  0.00    +0.000 OA
ATOM     15  H   UNL     1       8.629   6.664  16.430  0.00  0.00    +0.000 HD
ENDBRANCH   8  14
ENDBRANCH   3   4
ENDBRANCH   2   3
ENDBRANCH   1   2
BRANCH   1  16
ATOM     16  C   UNL     1       1.619   3.879  18.375  0.00  0.00    +0.000 C 
BRANCH  16  17
ATOM     17  C   UNL     1       1.747   4.435  19.788  0.00  0.00    +0.000 C 
BRANCH  17  18
ATOM     18  C   UNL     1       1.578   5.942  19.751  0.00  0.00    +0.000 C 
BRANCH  18  19
ATOM     19  C   UNL     1       2.883   6.646  19.400  0.00  0.00    +0.000 C 
BRANCH  19  20
ATOM     20  C   UNL     1       2.773   7.391  18.069  0.00  0.00    +0.000 C 
BRANCH  20  21
ATOM     21  C   UNL     1       1.582   8.345  17.983  0.00  0.00    +0.000 C 
BRANCH  21  23
ATOM     22  C   UNL     1       0.641  10.301  19.259  0.00  0.00    +0.000 C 
ATOM     23  C   UNL     1       1.507   9.284  19.159  0.00  0.00    +0.000 C 
BRANCH  22  24
ATOM     24  C   UNL     1      -0.384  10.579  18.207  0.00  0.00    +0.000 C 
BRANCH  24  25
ATOM     25  C   UNL     1      -1.700   9.864  18.457  0.00  0.00    +0.000 C 
BRANCH  25  26
ATOM     26  C   UNL     1      -2.849  10.766  18.019  0.00  0.00    +0.000 C 
BRANCH  26  27
ATOM     27  C   UNL     1      -2.558  11.379  16.659  0.00  0.00    +0.000 C 
BRANCH  27  29
ATOM     28  C   UNL     1      -2.927   9.990  14.612  0.00  0.00    +0.000 C 
ATOM     29  C   UNL     1      -3.576  10.918  15.621  0.00  0.00    +0.000 C 
ENDBRANCH  27  29
ENDBRANCH  26  27
ENDBRANCH  25  26
ENDBRANCH  24  25
ENDBRANCH  22  24
ENDBRANCH  21  23
ENDBRANCH  20  21
ENDBRANCH  19  20
ENDBRANCH  18  19
ENDBRANCH  17  18
ENDBRANCH  16  17
ENDBRANCH   1  16
TORSDOF 18
ENDMDL
MODEL 8
REMARK VINA RESULT:      -5.9      3.851      7.499
REMARK  Name = 
REMARK  19 active torsions:
REMARK  status: ('A' for Active; 'I' for Inactive)
REMARK    1  A    between atoms: C_1  and  C_2
REMARK    2  A    between atoms: C_2  and  C_3
REMARK    3  A    between atoms: C_3  and  C_4
REMARK    4  A    between atoms: C_4  and  C_5
REMARK    5  A    between atoms: C_5  and  C_6
REMARK    6  A    between atoms: C_6  and  C_7
REMARK    7  A    between atoms: C_8  and  C_9
REMARK    8  A    between atoms: C_9  and  C_10
REMARK    9  A    between atoms: C_10  and  C_11
REMARK   10  A    between atoms: C_11  and  C_12
REMARK   11  A    between atoms: C_12  and  C_13
REMARK   12  A    between atoms: C_13  and  C_14
REMARK   13  A    between atoms: C_14  and  C_15
REMARK   14  A    between atoms: C_15  and  C_16
REMARK   15  A    between atoms: C_16  and  C_17
REMARK   16  A    between atoms: C_17  and  C_18
REMARK   17  A    between atoms: C_22  and  O_23
REMARK   18  A    between atoms: C_24  and  C_25
REMARK   19  A    between atoms: C_25  and  O_27
REMARK                            x       y       z     vdW  Elec       q    Type
REMARK                         _______ _______ _______ _____ _____    ______ ____
ROOT
ATOM      1  C   UNL     1       1.251   4.401  19.087  0.00  0.00    +0.000 C 
ENDROOT
BRANCH   1   2
ATOM      2  C   UNL     1       1.292   5.011  20.479  0.00  0.00    +0.000 C 
BRANCH   2   3
ATOM      3  C   UNL     1       2.439   6.012  20.580  0.00  0.00    +0.000 C 
BRANCH   3   4
ATOM      4  C   UNL     1       2.183   7.210  19.694  0.00  0.00    +0.000 A 
ATOM      5  C   UNL     1       2.683   7.119  18.378  0.00  0.00    +0.000 A 
ATOM      6  C   UNL     1       2.496   8.142  17.459  0.00  0.00    +0.000 A 
ATOM      7  C   UNL     1       1.808   9.287  17.843  0.00  0.00    +0.000 A 
ATOM      8  C   UNL     1       1.289   9.390  19.141  0.00  0.00    +0.000 A 
ATOM      9  C   UNL     1       1.450   8.357  20.089  0.00  0.00    +0.000 A 
BRANCH   9  10
ATOM     10  C   UNL     1       0.840   8.453  21.471  0.00  0.00    +0.000 C 
ATOM     11  O   UNL     1       1.453   8.776  22.475  0.00  0.00    +0.000 OA
BRANCH  10  12
ATOM     12  O   UNL     1      -0.470   8.132  21.559  0.00  0.00    +0.000 OA
ATOM     13  H   UNL     1      -0.616   7.178  21.730  0.00  0.00    +0.000 HD
ENDBRANCH  10  12
ENDBRANCH   9  10
BRANCH   8  14
ATOM     14  O   UNL     1       0.611  10.543  19.475  0.00  0.00    +0.000 OA
ATOM     15  H   UNL     1       1.230  11.169  19.896  0.00  0.00    +0.000 HD
ENDBRANCH   8  14
ENDBRANCH   3   4
ENDBRANCH   2   3
ENDBRANCH   1   2
BRANCH   1  16
ATOM     16  C   UNL     1       0.849   2.938  19.159  0.00  0.00    +0.000 C 
BRANCH  16  17
ATOM     17  C   UNL     1       2.073   2.050  18.974  0.00  0.00    +0.000 C 
BRANCH  17  18
ATOM     18  C   UNL     1       2.789   2.441  17.696  0.00  0.00    +0.000 C 
BRANCH  18  19
ATOM     19  C   UNL     1       4.275   2.680  17.934  0.00  0.00    +0.000 C 
BRANCH  19  20
ATOM     20  C   UNL     1       4.661   4.129  17.635  0.00  0.00    +0.000 C 
BRANCH  20  21
ATOM     21  C   UNL     1       5.837   4.277  16.669  0.00  0.00    +0.000 C 
BRANCH  21  23
ATOM     22  C   UNL     1       5.697   5.077  14.286  0.00  0.00    +0.000 C 
ATOM     23  C   UNL     1       5.582   5.308  15.601  0.00  0.00    +0.000 C 
BRANCH  22  24
ATOM     24  C   UNL     1       6.057   3.731  13.744  0.00  0.00    +0.000 C 
BRANCH  24  25
ATOM     25  C   UNL     1       6.043   3.681  12.226  0.00  0.00    +0.000 C 
BRANCH  25  26
ATOM     26  C   UNL     1       5.282   2.439  11.774  0.00  0.00    +0.000 C 
BRANCH  26  27
ATOM     27  C   UNL     1       3.930   2.824  11.198  0.00  0.00    +0.000 C 
BRANCH  27  29
ATOM     28  C   UNL     1       2.767   4.283   9.532  0.00  0.00    +0.000 C 
ATOM     29  C   UNL     1       4.040   4.074  10.330  0.00  0.00    +0.000 C 
ENDBRANCH  27  29
ENDBRANCH  26  27
ENDBRANCH  25  26
ENDBRANCH  24  25
ENDBRANCH  22  24
ENDBRANCH  21  23
ENDBRANCH  20  21
ENDBRANCH  19  20
ENDBRANCH  18  19
ENDBRANCH  17  18
ENDBRANCH  16  17
ENDBRANCH   1  16
TORSDOF 18
ENDMDL
MODEL 9
REMARK VINA RESULT:      -5.9      2.792      5.683
REMARK  Name = 
REMARK  19 active torsions:
REMARK  status: ('A' for Active; 'I' for Inactive)
REMARK    1  A    between atoms: C_1  and  C_2
REMARK    2  A    between atoms: C_2  and  C_3
REMARK    3  A    between atoms: C_3  and  C_4
REMARK    4  A    between atoms: C_4  and  C_5
REMARK    5  A    between atoms: C_5  and  C_6
REMARK    6  A    between atoms: C_6  and  C_7
REMARK    7  A    between atoms: C_8  and  C_9
REMARK    8  A    between atoms: C_9  and  C_10
REMARK    9  A    between atoms: C_10  and  C_11
REMARK   10  A    between atoms: C_11  and  C_12
REMARK   11  A    between atoms: C_12  and  C_13
REMARK   12  A    between atoms: C_13  and  C_14
REMARK   13  A    between atoms: C_14  and  C_15
REMARK   14  A    between atoms: C_15  and  C_16
REMARK   15  A    between atoms: C_16  and  C_17
REMARK   16  A    between atoms: C_17  and  C_18
REMARK   17  A    between atoms: C_22  and  O_23
REMARK   18  A    between atoms: C_24  and  C_25
REMARK   19  A    between atoms: C_25  and  O_27
REMARK                            x       y       z     vdW  Elec       q    Type
REMARK                         _______ _______ _______ _____ _____    ______ ____
ROOT
ATOM      1  C   UNL     1       2.085   8.411  18.703  0.00  0.00    +0.000 C 
ENDROOT
BRANCH   1   2
ATOM      2  C   UNL     1       2.390   7.266  17.750  0.00  0.00    +0.000 C 
BRANCH   2   3
ATOM      3  C   UNL     1       3.691   6.579  18.155  0.00  0.00    +0.000 C 
BRANCH   3   4
ATOM      4  C   UNL     1       3.430   5.157  18.596  0.00  0.00    +0.000 A 
ATOM      5  C   UNL     1       2.081   4.746  18.580  0.00  0.00    +0.000 A 
ATOM      6  C   UNL     1       1.711   3.458  18.942  0.00  0.00    +0.000 A 
ATOM      7  C   UNL     1       2.689   2.553  19.336  0.00  0.00    +0.000 A 
ATOM      8  C   UNL     1       4.037   2.936  19.342  0.00  0.00    +0.000 A 
ATOM      9  C   UNL     1       4.442   4.234  18.963  0.00  0.00    +0.000 A 
BRANCH   9  10
ATOM     10  C   UNL     1       5.903   4.624  18.921  0.00  0.00    +0.000 C 
ATOM     11  O   UNL     1       6.450   5.342  19.741  0.00  0.00    +0.000 OA
BRANCH  10  12
ATOM     12  O   UNL     1       6.612   4.137  17.877  0.00  0.00    +0.000 OA
ATOM     13  H   UNL     1       6.393   3.203  17.673  0.00  0.00    +0.000 HD
ENDBRANCH  10  12
ENDBRANCH   9  10
BRANCH   8  14
ATOM     14  O   UNL     1       4.972   2.003  19.737  0.00  0.00    +0.000 OA
ATOM     15  H   UNL     1       5.737   2.039  19.132  0.00  0.00    +0.000 HD
ENDBRANCH   8  14
ENDBRANCH   3   4
ENDBRANCH   2   3
ENDBRANCH   1   2
BRANCH   1  16
ATOM     16  C   UNL     1       1.842   9.696  17.929  0.00  0.00    +0.000 C 
BRANCH  16  17
ATOM     17  C   UNL     1       1.088  10.695  18.798  0.00  0.00    +0.000 C 
BRANCH  17  18
ATOM     18  C   UNL     1       0.591   9.997  20.049  0.00  0.00    +0.000 C 
BRANCH  18  19
ATOM     19  C   UNL     1       0.492  10.958  21.228  0.00  0.00    +0.000 C 
BRANCH  19  20
ATOM     20  C   UNL     1      -0.107  10.271  22.457  0.00  0.00    +0.000 C 
BRANCH  20  21
ATOM     21  C   UNL     1      -1.362  10.951  23.004  0.00  0.00    +0.000 C 
BRANCH  21  23
ATOM     22  C   UNL     1      -1.895  13.301  22.274  0.00  0.00    +0.000 C 
ATOM     23  C   UNL     1      -1.227  12.450  23.065  0.00  0.00    +0.000 C 
BRANCH  22  24
ATOM     24  C   UNL     1      -2.890  12.832  21.262  0.00  0.00    +0.000 C 
BRANCH  24  25
ATOM     25  C   UNL     1      -2.308  12.729  19.863  0.00  0.00    +0.000 C 
BRANCH  25  26
ATOM     26  C   UNL     1      -3.238  11.886  18.996  0.00  0.00    +0.000 C 
BRANCH  26  27
ATOM     27  C   UNL     1      -2.545  11.487  17.704  0.00  0.00    +0.000 C 
BRANCH  27  29
ATOM     28  C   UNL     1      -2.613   9.691  15.964  0.00  0.00    +0.000 C 
ATOM     29  C   UNL     1      -2.682   9.989  17.450  0.00  0.00    +0.000 C 
ENDBRANCH  27  29
ENDBRANCH  26  27
ENDBRANCH  25  26
ENDBRANCH  24  25
ENDBRANCH  22  24
ENDBRANCH  21  23
ENDBRANCH  20  21
ENDBRANCH  19  20
ENDBRANCH  18  19
ENDBRANCH  17  18
ENDBRANCH  16  17
ENDBRANCH   1  16
TORSDOF 18
ENDMDL
