MODEL 1
REMARK VINA RESULT:      -8.6      0.000      0.000
REMARK  Name = 
REMARK  8 active torsions:
REMARK  status: ('A' for Active; 'I' for Inactive)
REMARK    1  A    between atoms: C_1  and  C_2
REMARK    2  A    between atoms: C_4  and  C_5
REMARK    3  A    between atoms: C_7  and  S_8
REMARK    4  A    between atoms: S_8  and  C_11
REMARK    5  A    between atoms: C_12  and  C_13
REMARK    6  A    between atoms: N_15  and  C_16
REMARK    7  A    between atoms: C_16  and  C_17
REMARK    8  A    between atoms: C_16  and  C_18
REMARK                            x       y       z     vdW  Elec       q    Type
REMARK                         _______ _______ _______ _____ _____    ______ ____
ROOT
ATOM      1  C   UNL     1       0.621  11.314  18.920  0.00  0.00    +0.000 A 
ATOM      2  C   UNL     1       1.562  10.558  18.200  0.00  0.00    +0.000 A 
ATOM      3  N   UNL     1       2.558  11.452  17.872  0.00  0.00    +0.000 N 
ATOM      4  C   UNL     1       2.278  12.731  18.270  0.00  0.00    +0.000 A 
ATOM      5  C   UNL     1       3.008  13.909  18.088  0.00  0.00    +0.000 A 
ATOM      6  C   UNL     1       2.450  15.098  18.563  0.00  0.00    +0.000 A 
ATOM      7  C   UNL     1       1.218  15.093  19.209  0.00  0.00    +0.000 A 
ATOM      8 CL   UNL     1       0.526  16.577  19.736  0.00  0.00    +0.000 Cl
ATOM      9  C   UNL     1       0.520  13.900  19.413  0.00  0.00    +0.000 A 
ATOM     10  C   UNL     1       1.050  12.686  18.925  0.00  0.00    +0.000 A 
ATOM     11  H   UNL     1       3.378  11.206  17.337  0.00  0.00    +0.000 HD
ENDROOT
BRANCH   2  12
ATOM     12  C   UNL     1       1.613   9.177  17.744  0.00  0.00    +0.000 C 
ATOM     13  O   UNL     1       0.670   8.593  17.245  0.00  0.00    +0.000 OA
ATOM     14  N   UNL     1       2.873   8.579  17.868  0.00  0.00    +0.000 N 
ATOM     15  H   UNL     1       3.639   9.108  18.255  0.00  0.00    +0.000 HD
BRANCH  14  16
ATOM     16  C   UNL     1       3.194   7.200  17.524  0.00  0.00    +0.000 C 
ATOM     17  C   UNL     1       4.725   7.067  17.463  0.00  0.00    +0.000 C 
BRANCH  16  18
ATOM     18  C   UNL     1       2.560   6.248  18.544  0.00  0.00    +0.000 A 
ATOM     19  C   UNL     1       2.097   4.987  18.130  0.00  0.00    +0.000 A 
ATOM     20  C   UNL     1       1.443   4.125  19.023  0.00  0.00    +0.000 A 
ATOM     21  C   UNL     1       1.244   4.503  20.348  0.00  0.00    +0.000 A 
ATOM     22  C   UNL     1       1.714   5.735  20.786  0.00  0.00    +0.000 A 
ATOM     23  C   UNL     1       2.362   6.599  19.894  0.00  0.00    +0.000 A 
ENDBRANCH  16  18
ENDBRANCH  14  16
ENDBRANCH   2  12
BRANCH   1  24
ATOM     24  S   UNL     1      -0.885  10.858  19.668  0.00  0.00    +0.000 S 
ATOM     25  O   UNL     1      -1.087  11.864  20.689  0.00  0.00    +0.000 OA
ATOM     26  O   UNL     1      -0.721   9.458  20.013  0.00  0.00    +0.000 OA
BRANCH  24  33
ATOM     27  C   UNL     1      -2.872  10.056  14.869  0.00  0.00    +0.000 C 
ATOM     28  C   UNL     1      -3.059  10.567  16.268  0.00  0.00    +0.000 A 
ATOM     29  C   UNL     1      -4.224  11.260  16.637  0.00  0.00    +0.000 A 
ATOM     30  C   UNL     1      -4.387  11.756  17.937  0.00  0.00    +0.000 A 
ATOM     31  C   UNL     1      -5.623  12.488  18.357  0.00  0.00    +0.000 C 
ATOM     32  C   UNL     1      -3.360  11.582  18.862  0.00  0.00    +0.000 A 
ATOM     33  C   UNL     1      -2.181  10.941  18.485  0.00  0.00    +0.000 A 
ATOM     34  C   UNL     1      -2.041  10.382  17.213  0.00  0.00    +0.000 A 
ENDBRANCH  24  33
ENDBRANCH   1  24
TORSDOF 5
ENDMDL
MODEL 2
REMARK VINA RESULT:      -8.6      0.094      1.534
REMARK  Name = 
REMARK  8 active torsions:
REMARK  status: ('A' for Active; 'I' for Inactive)
REMARK    1  A    between atoms: C_1  and  C_2
REMARK    2  A    between atoms: C_4  and  C_5
REMARK    3  A    between atoms: C_7  and  S_8
REMARK    4  A    between atoms: S_8  and  C_11
REMARK    5  A    between atoms: C_12  and  C_13
REMARK    6  A    between atoms: N_15  and  C_16
REMARK    7  A    between atoms: C_16  and  C_17
REMARK    8  A    between atoms: C_16  and  C_18
REMARK                            x       y       z     vdW  Elec       q    Type
REMARK                         _______ _______ _______ _____ _____    ______ ____
ROOT
ATOM      1  C   UNL     1       0.655  11.282  18.945  0.00  0.00    +0.000 A 
ATOM      2  C   UNL     1       1.584  10.518  18.217  0.00  0.00    +0.000 A 
ATOM      3  N   UNL     1       2.583  11.404  17.877  0.00  0.00    +0.000 N 
ATOM      4  C   UNL     1       2.316  12.685  18.275  0.00  0.00    +0.000 A 
ATOM      5  C   UNL     1       3.053  13.858  18.083  0.00  0.00    +0.000 A 
ATOM      6  C   UNL     1       2.507  15.052  18.561  0.00  0.00    +0.000 A 
ATOM      7  C   UNL     1       1.282  15.057  19.219  0.00  0.00    +0.000 A 
ATOM      8 CL   UNL     1       0.606  16.547  19.750  0.00  0.00    +0.000 Cl
ATOM      9  C   UNL     1       0.578  13.870  19.433  0.00  0.00    +0.000 A 
ATOM     10  C   UNL     1       1.094  12.650  18.942  0.00  0.00    +0.000 A 
ATOM     11  H   UNL     1       3.396  11.150  17.335  0.00  0.00    +0.000 HD
ENDROOT
BRANCH   2  12
ATOM     12  C   UNL     1       1.621   9.135  17.764  0.00  0.00    +0.000 C 
ATOM     13  O   UNL     1       0.666   8.555  17.282  0.00  0.00    +0.000 OA
ATOM     14  N   UNL     1       2.880   8.532  17.869  0.00  0.00    +0.000 N 
ATOM     15  H   UNL     1       3.655   9.058  18.242  0.00  0.00    +0.000 HD
BRANCH  14  16
ATOM     16  C   UNL     1       3.188   7.150  17.523  0.00  0.00    +0.000 C 
ATOM     17  C   UNL     1       4.717   7.004  17.458  0.00  0.00    +0.000 C 
BRANCH  16  18
ATOM     18  C   UNL     1       2.549   6.203  18.544  0.00  0.00    +0.000 A 
ATOM     19  C   UNL     1       2.057   4.954  18.127  0.00  0.00    +0.000 A 
ATOM     20  C   UNL     1       1.398   4.097  19.022  0.00  0.00    +0.000 A 
ATOM     21  C   UNL     1       1.224   4.469  20.353  0.00  0.00    +0.000 A 
ATOM     22  C   UNL     1       1.723   5.689  20.793  0.00  0.00    +0.000 A 
ATOM     23  C   UNL     1       2.376   6.548  19.899  0.00  0.00    +0.000 A 
ENDBRANCH  16  18
ENDBRANCH  14  16
ENDBRANCH   2  12
BRANCH   1  24
ATOM     24  S   UNL     1      -0.847  10.839  19.708  0.00  0.00    +0.000 S 
ATOM     25  O   UNL     1      -0.979  11.785  20.795  0.00  0.00    +0.000 OA
ATOM     26  O   UNL     1      -0.730   9.414  19.960  0.00  0.00    +0.000 OA
BRANCH  24  33
ATOM     27  C   UNL     1      -5.699  12.414  18.448  0.00  0.00    +0.000 C 
ATOM     28  C   UNL     1      -4.409  11.773  18.031  0.00  0.00    +0.000 A 
ATOM     29  C   UNL     1      -4.266  11.186  16.762  0.00  0.00    +0.000 A 
ATOM     30  C   UNL     1      -3.068  10.567  16.383  0.00  0.00    +0.000 A 
ATOM     31  C   UNL     1      -2.889   9.944  15.034  0.00  0.00    +0.000 C 
ATOM     32  C   UNL     1      -2.017  10.512  17.296  0.00  0.00    +0.000 A 
ATOM     33  C   UNL     1      -2.171  11.047  18.573  0.00  0.00    +0.000 A 
ATOM     34  C   UNL     1      -3.337  11.726  18.933  0.00  0.00    +0.000 A 
ENDBRANCH  24  33
ENDBRANCH   1  24
TORSDOF 5
ENDMDL
MODEL 3
REMARK VINA RESULT:      -8.5      3.603      8.838
REMARK  Name = 
REMARK  8 active torsions:
REMARK  status: ('A' for Active; 'I' for Inactive)
REMARK    1  A    between atoms: C_1  and  C_2
REMARK    2  A    between atoms: C_4  and  C_5
REMARK    3  A    between atoms: C_7  and  S_8
REMARK    4  A    between atoms: S_8  and  C_11
REMARK    5  A    between atoms: C_12  and  C_13
REMARK    6  A    between atoms: N_15  and  C_16
REMARK    7  A    between atoms: C_16  and  C_17
REMARK    8  A    between atoms: C_16  and  C_18
REMARK                            x       y       z     vdW  Elec       q    Type
REMARK                         _______ _______ _______ _____ _____    ______ ____
ROOT
ATOM      1  C   UNL     1       2.566   6.592  19.333  0.00  0.00    +0.000 A 
ATOM      2  C   UNL     1       1.913   7.205  20.417  0.00  0.00    +0.000 A 
ATOM      3  N   UNL     1       1.661   6.181  21.304  0.00  0.00    +0.000 N 
ATOM      4  C   UNL     1       2.041   4.957  20.827  0.00  0.00    +0.000 A 
ATOM      5  C   UNL     1       1.916   3.689  21.402  0.00  0.00    +0.000 A 
ATOM      6  C   UNL     1       2.353   2.592  20.656  0.00  0.00    +0.000 A 
ATOM      7  C   UNL     1       2.908   2.771  19.394  0.00  0.00    +0.000 A 
ATOM      8 CL   UNL     1       3.388   1.400  18.471  0.00  0.00    +0.000 Cl
ATOM      9  C   UNL     1       3.058   4.049  18.850  0.00  0.00    +0.000 A 
ATOM     10  C   UNL     1       2.605   5.175  19.572  0.00  0.00    +0.000 A 
ATOM     11  H   UNL     1       1.185   6.309  22.186  0.00  0.00    +0.000 HD
ENDROOT
BRANCH   2  12
ATOM     12  C   UNL     1       1.459   8.561  20.687  0.00  0.00    +0.000 C 
ATOM     13  O   UNL     1       1.525   9.093  21.779  0.00  0.00    +0.000 OA
ATOM     14  N   UNL     1       0.989   9.243  19.558  0.00  0.00    +0.000 N 
ATOM     15  H   UNL     1       0.983   8.779  18.663  0.00  0.00    +0.000 HD
BRANCH  14  16
ATOM     16  C   UNL     1       0.443  10.594  19.551  0.00  0.00    +0.000 C 
ATOM     17  C   UNL     1       1.499  11.533  18.944  0.00  0.00    +0.000 C 
BRANCH  16  18
ATOM     18  C   UNL     1      -0.880  10.617  18.778  0.00  0.00    +0.000 A 
ATOM     19  C   UNL     1      -1.034   9.816  17.634  0.00  0.00    +0.000 A 
ATOM     20  C   UNL     1      -2.204   9.872  16.860  0.00  0.00    +0.000 A 
ATOM     21  C   UNL     1      -3.244  10.726  17.218  0.00  0.00    +0.000 A 
ATOM     22  C   UNL     1      -3.123  11.510  18.359  0.00  0.00    +0.000 A 
ATOM     23  C   UNL     1      -1.953  11.459  19.129  0.00  0.00    +0.000 A 
ENDBRANCH  16  18
ENDBRANCH  14  16
ENDBRANCH   2  12
BRANCH   1  24
ATOM     24  S   UNL     1       3.202   7.255  17.853  0.00  0.00    +0.000 S 
ATOM     25  O   UNL     1       3.480   8.637  18.181  0.00  0.00    +0.000 OA
ATOM     26  O   UNL     1       2.226   6.903  16.838  0.00  0.00    +0.000 OA
BRANCH  24  33
ATOM     27  C   UNL     1       6.113   4.214  14.708  0.00  0.00    +0.000 C 
ATOM     28  C   UNL     1       6.000   5.022  15.967  0.00  0.00    +0.000 A 
ATOM     29  C   UNL     1       7.032   5.030  16.920  0.00  0.00    +0.000 A 
ATOM     30  C   UNL     1       6.915   5.767  18.105  0.00  0.00    +0.000 A 
ATOM     31  C   UNL     1       8.005   5.798  19.131  0.00  0.00    +0.000 C 
ATOM     32  C   UNL     1       5.741   6.477  18.348  0.00  0.00    +0.000 A 
ATOM     33  C   UNL     1       4.694   6.431  17.429  0.00  0.00    +0.000 A 
ATOM     34  C   UNL     1       4.831   5.755  16.214  0.00  0.00    +0.000 A 
ENDBRANCH  24  33
ENDBRANCH   1  24
TORSDOF 5
ENDMDL
MODEL 4
REMARK VINA RESULT:      -8.5      3.599      8.911
REMARK  Name = 
REMARK  8 active torsions:
REMARK  status: ('A' for Active; 'I' for Inactive)
REMARK    1  A    between atoms: C_1  and  C_2
REMARK    2  A    between atoms: C_4  and  C_5
REMARK    3  A    between atoms: C_7  and  S_8
REMARK    4  A    between atoms: S_8  and  C_11
REMARK    5  A    between atoms: C_12  and  C_13
REMARK    6  A    between atoms: N_15  and  C_16
REMARK    7  A    between atoms: C_16  and  C_17
REMARK    8  A    between atoms: C_16  and  C_18
REMARK                            x       y       z     vdW  Elec       q    Type
REMARK                         _______ _______ _______ _____ _____    ______ ____
ROOT
ATOM      1  C   UNL     1       2.532   6.578  19.351  0.00  0.00    +0.000 A 
ATOM      2  C   UNL     1       1.856   7.203  20.413  0.00  0.00    +0.000 A 
ATOM      3  N   UNL     1       1.573   6.187  21.300  0.00  0.00    +0.000 N 
ATOM      4  C   UNL     1       1.956   4.957  20.840  0.00  0.00    +0.000 A 
ATOM      5  C   UNL     1       1.806   3.694  21.421  0.00  0.00    +0.000 A 
ATOM      6  C   UNL     1       2.255   2.588  20.693  0.00  0.00    +0.000 A 
ATOM      7  C   UNL     1       2.844   2.755  19.445  0.00  0.00    +0.000 A 
ATOM      8 CL   UNL     1       3.337   1.374  18.544  0.00  0.00    +0.000 Cl
ATOM      9  C   UNL     1       3.017   4.028  18.897  0.00  0.00    +0.000 A 
ATOM     10  C   UNL     1       2.555   5.162  19.600  0.00  0.00    +0.000 A 
ATOM     11  H   UNL     1       1.076   6.324  22.168  0.00  0.00    +0.000 HD
ENDROOT
BRANCH   2  12
ATOM     12  C   UNL     1       1.405   8.564  20.662  0.00  0.00    +0.000 C 
ATOM     13  O   UNL     1       1.410   9.089  21.759  0.00  0.00    +0.000 OA
ATOM     14  N   UNL     1       1.016   9.258  19.510  0.00  0.00    +0.000 N 
ATOM     15  H   UNL     1       1.059   8.799  18.613  0.00  0.00    +0.000 HD
BRANCH  14  16
ATOM     16  C   UNL     1       0.491  10.617  19.477  0.00  0.00    +0.000 C 
ATOM     17  C   UNL     1       1.538  11.517  18.799  0.00  0.00    +0.000 C 
BRANCH  16  18
ATOM     18  C   UNL     1      -0.859  10.636  18.753  0.00  0.00    +0.000 A 
ATOM     19  C   UNL     1      -1.057   9.825  17.622  0.00  0.00    +0.000 A 
ATOM     20  C   UNL     1      -2.254   9.877  16.891  0.00  0.00    +0.000 A 
ATOM     21  C   UNL     1      -3.279  10.736  17.280  0.00  0.00    +0.000 A 
ATOM     22  C   UNL     1      -3.115  11.530  18.409  0.00  0.00    +0.000 A 
ATOM     23  C   UNL     1      -1.918  11.483  19.135  0.00  0.00    +0.000 A 
ENDBRANCH  16  18
ENDBRANCH  14  16
ENDBRANCH   2  12
BRANCH   1  24
ATOM     24  S   UNL     1       3.212   7.226  17.884  0.00  0.00    +0.000 S 
ATOM     25  O   UNL     1       3.455   8.618  18.196  0.00  0.00    +0.000 OA
ATOM     26  O   UNL     1       2.279   6.841  16.839  0.00  0.00    +0.000 OA
BRANCH  24  33
ATOM     27  C   UNL     1       8.100   5.746  19.120  0.00  0.00    +0.000 C 
ATOM     28  C   UNL     1       6.977   5.765  18.125  0.00  0.00    +0.000 A 
ATOM     29  C   UNL     1       7.152   5.267  16.823  0.00  0.00    +0.000 A 
ATOM     30  C   UNL     1       6.110   5.306  15.889  0.00  0.00    +0.000 A 
ATOM     31  C   UNL     1       6.269   4.773  14.499  0.00  0.00    +0.000 C 
ATOM     32  C   UNL     1       4.893   5.878  16.255  0.00  0.00    +0.000 A 
ATOM     33  C   UNL     1       4.731   6.420  17.529  0.00  0.00    +0.000 A 
ATOM     34  C   UNL     1       5.743   6.320  18.487  0.00  0.00    +0.000 A 
ENDBRANCH  24  33
ENDBRANCH   1  24
TORSDOF 5
ENDMDL
MODEL 5
REMARK VINA RESULT:      -8.3      3.458      7.296
REMARK  Name = 
REMARK  8 active torsions:
REMARK  status: ('A' for Active; 'I' for Inactive)
REMARK    1  A    between atoms: C_1  and  C_2
REMARK    2  A    between atoms: C_4  and  C_5
REMARK    3  A    between atoms: C_7  and  S_8
REMARK    4  A    between atoms: S_8  and  C_11
REMARK    5  A    between atoms: C_12  and  C_13
REMARK    6  A    between atoms: N_15  and  C_16
REMARK    7  A    between atoms: C_16  and  C_17
REMARK    8  A    between atoms: C_16  and  C_18
REMARK                            x       y       z     vdW  Elec       q    Type
REMARK                         _______ _______ _______ _____ _____    ______ ____
ROOT
ATOM      1  C   UNL     1      -0.716  11.595  20.591  0.00  0.00    +0.000 A 
ATOM      2  C   UNL     1      -0.998  11.597  21.968  0.00  0.00    +0.000 A 
ATOM      3  N   UNL     1      -0.276  10.540  22.479  0.00  0.00    +0.000 N 
ATOM      4  C   UNL     1       0.382   9.828  21.513  0.00  0.00    +0.000 A 
ATOM      5  C   UNL     1       1.173   8.681  21.624  0.00  0.00    +0.000 A 
ATOM      6  C   UNL     1       1.687   8.131  20.446  0.00  0.00    +0.000 A 
ATOM      7  C   UNL     1       1.428   8.726  19.217  0.00  0.00    +0.000 A 
ATOM      8 CL   UNL     1       2.025   7.999  17.776  0.00  0.00    +0.000 Cl
ATOM      9  C   UNL     1       0.665   9.892  19.129  0.00  0.00    +0.000 A 
ATOM     10  C   UNL     1       0.114  10.459  20.300  0.00  0.00    +0.000 A 
ATOM     11  H   UNL     1      -0.283  10.276  23.453  0.00  0.00    +0.000 HD
ENDROOT
BRANCH   2  12
ATOM     12  C   UNL     1      -1.871  12.391  22.820  0.00  0.00    +0.000 C 
ATOM     13  O   UNL     1      -1.510  12.916  23.857  0.00  0.00    +0.000 OA
ATOM     14  N   UNL     1      -3.165  12.561  22.314  0.00  0.00    +0.000 N 
ATOM     15  H   UNL     1      -3.415  12.139  21.433  0.00  0.00    +0.000 HD
BRANCH  14  16
ATOM     16  C   UNL     1      -4.247  13.276  22.978  0.00  0.00    +0.000 C 
ATOM     17  C   UNL     1      -3.724  14.667  23.378  0.00  0.00    +0.000 C 
BRANCH  16  18
ATOM     18  C   UNL     1      -5.467  13.350  22.055  0.00  0.00    +0.000 A 
ATOM     19  C   UNL     1      -5.456  14.219  20.950  0.00  0.00    +0.000 A 
ATOM     20  C   UNL     1      -6.586  14.367  20.131  0.00  0.00    +0.000 A 
ATOM     21  C   UNL     1      -7.746  13.643  20.396  0.00  0.00    +0.000 A 
ATOM     22  C   UNL     1      -7.772  12.760  21.469  0.00  0.00    +0.000 A 
ATOM     23  C   UNL     1      -6.647  12.618  22.291  0.00  0.00    +0.000 A 
ENDBRANCH  16  18
ENDBRANCH  14  16
ENDBRANCH   2  12
BRANCH   1  24
ATOM     24  S   UNL     1      -1.252  12.647  19.310  0.00  0.00    +0.000 S 
ATOM     25  O   UNL     1      -0.056  12.887  18.531  0.00  0.00    +0.000 OA
ATOM     26  O   UNL     1      -1.942  13.732  19.983  0.00  0.00    +0.000 OA
BRANCH  24  33
ATOM     27  C   UNL     1      -2.822  10.303  14.876  0.00  0.00    +0.000 C 
ATOM     28  C   UNL     1      -3.139  10.756  16.271  0.00  0.00    +0.000 A 
ATOM     29  C   UNL     1      -4.444  10.664  16.785  0.00  0.00    +0.000 A 
ATOM     30  C   UNL     1      -4.742  11.109  18.079  0.00  0.00    +0.000 A 
ATOM     31  C   UNL     1      -6.121  11.013  18.652  0.00  0.00    +0.000 C 
ATOM     32  C   UNL     1      -3.731  11.678  18.850  0.00  0.00    +0.000 A 
ATOM     33  C   UNL     1      -2.447  11.818  18.325  0.00  0.00    +0.000 A 
ATOM     34  C   UNL     1      -2.126  11.313  17.063  0.00  0.00    +0.000 A 
ENDBRANCH  24  33
ENDBRANCH   1  24
TORSDOF 5
ENDMDL
MODEL 6
REMARK VINA RESULT:      -8.3      4.368      7.913
REMARK  Name = 
REMARK  8 active torsions:
REMARK  status: ('A' for Active; 'I' for Inactive)
REMARK    1  A    between atoms: C_1  and  C_2
REMARK    2  A    between atoms: C_4  and  C_5
REMARK    3  A    between atoms: C_7  and  S_8
REMARK    4  A    between atoms: S_8  and  C_11
REMARK    5  A    between atoms: C_12  and  C_13
REMARK    6  A    between atoms: N_15  and  C_16
REMARK    7  A    between atoms: C_16  and  C_17
REMARK    8  A    between atoms: C_16  and  C_18
REMARK                            x       y       z     vdW  Elec       q    Type
REMARK                         _______ _______ _______ _____ _____    ______ ____
ROOT
ATOM      1  C   UNL     1      -1.385  11.844  21.248  0.00  0.00    +0.000 A 
ATOM      2  C   UNL     1      -1.749  11.726  22.600  0.00  0.00    +0.000 A 
ATOM      3  N   UNL     1      -0.986  10.686  23.083  0.00  0.00    +0.000 N 
ATOM      4  C   UNL     1      -0.221  10.092  22.116  0.00  0.00    +0.000 A 
ATOM      5  C   UNL     1       0.641   8.995  22.200  0.00  0.00    +0.000 A 
ATOM      6  C   UNL     1       1.264   8.569  21.023  0.00  0.00    +0.000 A 
ATOM      7  C   UNL     1       1.037   9.232  19.823  0.00  0.00    +0.000 A 
ATOM      8 CL   UNL     1       1.772   8.654  18.378  0.00  0.00    +0.000 Cl
ATOM      9  C   UNL     1       0.200  10.349  19.766  0.00  0.00    +0.000 A 
ATOM     10  C   UNL     1      -0.460  10.790  20.935  0.00  0.00    +0.000 A 
ATOM     11  H   UNL     1      -1.033  10.351  24.035  0.00  0.00    +0.000 HD
ENDROOT
BRANCH   2  12
ATOM     12  C   UNL     1      -2.727  12.396  23.446  0.00  0.00    +0.000 C 
ATOM     13  O   UNL     1      -3.779  11.893  23.793  0.00  0.00    +0.000 OA
ATOM     14  N   UNL     1      -2.328  13.662  23.890  0.00  0.00    +0.000 N 
ATOM     15  H   UNL     1      -1.433  14.030  23.609  0.00  0.00    +0.000 HD
BRANCH  14  16
ATOM     16  C   UNL     1      -3.127  14.560  24.714  0.00  0.00    +0.000 C 
ATOM     17  C   UNL     1      -2.168  15.382  25.592  0.00  0.00    +0.000 C 
BRANCH  16  18
ATOM     18  C   UNL     1      -4.008  15.440  23.822  0.00  0.00    +0.000 A 
ATOM     19  C   UNL     1      -5.395  15.221  23.774  0.00  0.00    +0.000 A 
ATOM     20  C   UNL     1      -6.219  15.958  22.909  0.00  0.00    +0.000 A 
ATOM     21  C   UNL     1      -5.672  16.933  22.080  0.00  0.00    +0.000 A 
ATOM     22  C   UNL     1      -4.306  17.185  22.126  0.00  0.00    +0.000 A 
ATOM     23  C   UNL     1      -3.483  16.445  22.985  0.00  0.00    +0.000 A 
ENDBRANCH  16  18
ENDBRANCH  14  16
ENDBRANCH   2  12
BRANCH   1  24
ATOM     24  S   UNL     1      -1.916  12.948  20.009  0.00  0.00    +0.000 S 
ATOM     25  O   UNL     1      -0.689  13.372  19.369  0.00  0.00    +0.000 OA
ATOM     26  O   UNL     1      -2.773  13.897  20.698  0.00  0.00    +0.000 OA
BRANCH  24  33
ATOM     27  C   UNL     1      -2.703  10.481  15.437  0.00  0.00    +0.000 C 
ATOM     28  C   UNL     1      -3.257  10.978  16.739  0.00  0.00    +0.000 A 
ATOM     29  C   UNL     1      -4.633  10.910  17.016  0.00  0.00    +0.000 A 
ATOM     30  C   UNL     1      -5.151  11.396  18.224  0.00  0.00    +0.000 A 
ATOM     31  C   UNL     1      -6.611  11.325  18.545  0.00  0.00    +0.000 C 
ATOM     32  C   UNL     1      -4.285  11.981  19.145  0.00  0.00    +0.000 A 
ATOM     33  C   UNL     1      -2.928  12.097  18.853  0.00  0.00    +0.000 A 
ATOM     34  C   UNL     1      -2.394  11.552  17.683  0.00  0.00    +0.000 A 
ENDBRANCH  24  33
ENDBRANCH   1  24
TORSDOF 5
ENDMDL
MODEL 7
REMARK VINA RESULT:      -8.3      4.441      8.164
REMARK  Name = 
REMARK  8 active torsions:
REMARK  status: ('A' for Active; 'I' for Inactive)
REMARK    1  A    between atoms: C_1  and  C_2
REMARK    2  A    between atoms: C_4  and  C_5
REMARK    3  A    between atoms: C_7  and  S_8
REMARK    4  A    between atoms: S_8  and  C_11
REMARK    5  A    between atoms: C_12  and  C_13
REMARK    6  A    between atoms: N_15  and  C_16
REMARK    7  A    between atoms: C_16  and  C_17
REMARK    8  A    between atoms: C_16  and  C_18
REMARK                            x       y       z     vdW  Elec       q    Type
REMARK                         _______ _______ _______ _____ _____    ______ ____
ROOT
ATOM      1  C   UNL     1      -1.485  11.896  21.373  0.00  0.00    +0.000 A 
ATOM      2  C   UNL     1      -1.857  11.767  22.723  0.00  0.00    +0.000 A 
ATOM      3  N   UNL     1      -1.087  10.731  23.205  0.00  0.00    +0.000 N 
ATOM      4  C   UNL     1      -0.311  10.150  22.240  0.00  0.00    +0.000 A 
ATOM      5  C   UNL     1       0.562   9.061  22.323  0.00  0.00    +0.000 A 
ATOM      6  C   UNL     1       1.196   8.647  21.148  0.00  0.00    +0.000 A 
ATOM      7  C   UNL     1       0.972   9.316  19.950  0.00  0.00    +0.000 A 
ATOM      8 CL   UNL     1       1.721   8.753  18.507  0.00  0.00    +0.000 Cl
ATOM      9  C   UNL     1       0.124  10.424  19.894  0.00  0.00    +0.000 A 
ATOM     10  C   UNL     1      -0.548  10.853  21.061  0.00  0.00    +0.000 A 
ATOM     11  H   UNL     1      -1.137  10.390  24.154  0.00  0.00    +0.000 HD
ENDROOT
BRANCH   2  12
ATOM     12  C   UNL     1      -2.847  12.422  23.566  0.00  0.00    +0.000 C 
ATOM     13  O   UNL     1      -3.849  11.874  23.984  0.00  0.00    +0.000 OA
ATOM     14  N   UNL     1      -2.519  13.737  23.917  0.00  0.00    +0.000 N 
ATOM     15  H   UNL     1      -1.662  14.144  23.578  0.00  0.00    +0.000 HD
BRANCH  14  16
ATOM     16  C   UNL     1      -3.347  14.630  24.717  0.00  0.00    +0.000 C 
ATOM     17  C   UNL     1      -2.415  15.569  25.502  0.00  0.00    +0.000 C 
BRANCH  16  18
ATOM     18  C   UNL     1      -4.320  15.390  23.811  0.00  0.00    +0.000 A 
ATOM     19  C   UNL     1      -3.871  16.505  23.082  0.00  0.00    +0.000 A 
ATOM     20  C   UNL     1      -4.755  17.269  22.304  0.00  0.00    +0.000 A 
ATOM     21  C   UNL     1      -6.103  16.929  22.234  0.00  0.00    +0.000 A 
ATOM     22  C   UNL     1      -6.566  15.816  22.927  0.00  0.00    +0.000 A 
ATOM     23  C   UNL     1      -5.685  15.058  23.709  0.00  0.00    +0.000 A 
ENDBRANCH  16  18
ENDBRANCH  14  16
ENDBRANCH   2  12
BRANCH   1  24
ATOM     24  S   UNL     1      -2.018  13.002  20.138  0.00  0.00    +0.000 S 
ATOM     25  O   UNL     1      -0.797  13.393  19.467  0.00  0.00    +0.000 OA
ATOM     26  O   UNL     1      -2.838  13.975  20.837  0.00  0.00    +0.000 OA
BRANCH  24  33
ATOM     27  C   UNL     1      -6.694  11.107  18.666  0.00  0.00    +0.000 C 
ATOM     28  C   UNL     1      -5.235  11.299  18.371  0.00  0.00    +0.000 A 
ATOM     29  C   UNL     1      -4.634  10.690  17.256  0.00  0.00    +0.000 A 
ATOM     30  C   UNL     1      -3.268  10.852  16.995  0.00  0.00    +0.000 A 
ATOM     31  C   UNL     1      -2.608  10.222  15.808  0.00  0.00    +0.000 C 
ATOM     32  C   UNL     1      -2.494  11.603  17.876  0.00  0.00    +0.000 A 
ATOM     33  C   UNL     1      -3.075  12.165  19.011  0.00  0.00    +0.000 A 
ATOM     34  C   UNL     1      -4.450  12.068  19.240  0.00  0.00    +0.000 A 
ENDBRANCH  24  33
ENDBRANCH   1  24
TORSDOF 5
ENDMDL
MODEL 8
REMARK VINA RESULT:      -8.2      3.746      7.443
REMARK  Name = 
REMARK  8 active torsions:
REMARK  status: ('A' for Active; 'I' for Inactive)
REMARK    1  A    between atoms: C_1  and  C_2
REMARK    2  A    between atoms: C_4  and  C_5
REMARK    3  A    between atoms: C_7  and  S_8
REMARK    4  A    between atoms: S_8  and  C_11
REMARK    5  A    between atoms: C_12  and  C_13
REMARK    6  A    between atoms: N_15  and  C_16
REMARK    7  A    between atoms: C_16  and  C_17
REMARK    8  A    between atoms: C_16  and  C_18
REMARK                            x       y       z     vdW  Elec       q    Type
REMARK                         _______ _______ _______ _____ _____    ______ ____
ROOT
ATOM      1  C   UNL     1      -0.686  11.824  20.611  0.00  0.00    +0.000 A 
ATOM      2  C   UNL     1      -1.089  12.037  21.941  0.00  0.00    +0.000 A 
ATOM      3  N   UNL     1      -0.505  11.015  22.657  0.00  0.00    +0.000 N 
ATOM      4  C   UNL     1       0.177  10.132  21.865  0.00  0.00    +0.000 A 
ATOM      5  C   UNL     1       0.858   8.960  22.206  0.00  0.00    +0.000 A 
ATOM      6  C   UNL     1       1.429   8.216  21.169  0.00  0.00    +0.000 A 
ATOM      7  C   UNL     1       1.330   8.649  19.852  0.00  0.00    +0.000 A 
ATOM      8 CL   UNL     1       1.993   7.688  18.587  0.00  0.00    +0.000 Cl
ATOM      9  C   UNL     1       0.676   9.842  19.534  0.00  0.00    +0.000 A 
ATOM     10  C   UNL     1       0.071  10.603  20.559  0.00  0.00    +0.000 A 
ATOM     11  H   UNL     1      -0.621  10.891  23.652  0.00  0.00    +0.000 HD
ENDROOT
BRANCH   2  12
ATOM     12  C   UNL     1      -1.967  13.001  22.588  0.00  0.00    +0.000 C 
ATOM     13  O   UNL     1      -1.713  13.545  23.647  0.00  0.00    +0.000 OA
ATOM     14  N   UNL     1      -3.119  13.309  21.855  0.00  0.00    +0.000 N 
ATOM     15  H   UNL     1      -3.277  12.863  20.965  0.00  0.00    +0.000 HD
BRANCH  14  16
ATOM     16  C   UNL     1      -4.181  14.210  22.285  0.00  0.00    +0.000 C 
ATOM     17  C   UNL     1      -4.371  15.278  21.194  0.00  0.00    +0.000 C 
BRANCH  16  18
ATOM     18  C   UNL     1      -5.461  13.414  22.558  0.00  0.00    +0.000 A 
ATOM     19  C   UNL     1      -6.344  13.127  21.503  0.00  0.00    +0.000 A 
ATOM     20  C   UNL     1      -7.561  12.468  21.733  0.00  0.00    +0.000 A 
ATOM     21  C   UNL     1      -7.917  12.077  23.021  0.00  0.00    +0.000 A 
ATOM     22  C   UNL     1      -7.048  12.329  24.077  0.00  0.00    +0.000 A 
ATOM     23  C   UNL     1      -5.836  12.993  23.849  0.00  0.00    +0.000 A 
ENDBRANCH  16  18
ENDBRANCH  14  16
ENDBRANCH   2  12
BRANCH   1  24
ATOM     24  S   UNL     1      -1.016  12.720  19.155  0.00  0.00    +0.000 S 
ATOM     25  O   UNL     1       0.207  12.610  18.391  0.00  0.00    +0.000 OA
ATOM     26  O   UNL     1      -1.505  14.008  19.613  0.00  0.00    +0.000 OA
BRANCH  24  33
ATOM     27  C   UNL     1      -5.954  10.959  18.777  0.00  0.00    +0.000 C 
ATOM     28  C   UNL     1      -4.607  11.152  18.143  0.00  0.00    +0.000 A 
ATOM     29  C   UNL     1      -4.311  10.602  16.885  0.00  0.00    +0.000 A 
ATOM     30  C   UNL     1      -3.047  10.764  16.305  0.00  0.00    +0.000 A 
ATOM     31  C   UNL     1      -2.711  10.197  14.962  0.00  0.00    +0.000 C 
ATOM     32  C   UNL     1      -2.063  11.457  17.008  0.00  0.00    +0.000 A 
ATOM     33  C   UNL     1      -2.336  11.959  18.279  0.00  0.00    +0.000 A 
ATOM     34  C   UNL     1      -3.615  11.863  18.833  0.00  0.00    +0.000 A 
ENDBRANCH  24  33
ENDBRANCH   1  24
TORSDOF 5
ENDMDL
MODEL 9
REMARK VINA RESULT:      -8.2      1.155      1.532
REMARK  Name = 
REMARK  8 active torsions:
REMARK  status: ('A' for Active; 'I' for Inactive)
REMARK    1  A    between atoms: C_1  and  C_2
REMARK    2  A    between atoms: C_4  and  C_5
REMARK    3  A    between atoms: C_7  and  S_8
REMARK    4  A    between atoms: S_8  and  C_11
REMARK    5  A    between atoms: C_12  and  C_13
REMARK    6  A    between atoms: N_15  and  C_16
REMARK    7  A    between atoms: C_16  and  C_17
REMARK    8  A    between atoms: C_16  and  C_18
REMARK                            x       y       z     vdW  Elec       q    Type
REMARK                         _______ _______ _______ _____ _____    ______ ____
ROOT
ATOM      1  C   UNL     1       1.197  11.494  19.377  0.00  0.00    +0.000 A 
ATOM      2  C   UNL     1       1.821  10.801  18.325  0.00  0.00    +0.000 A 
ATOM      3  N   UNL     1       2.627  11.736  17.713  0.00  0.00    +0.000 N 
ATOM      4  C   UNL     1       2.501  12.985  18.256  0.00  0.00    +0.000 A 
ATOM      5  C   UNL     1       3.110  14.190  17.891  0.00  0.00    +0.000 A 
ATOM      6  C   UNL     1       2.752  15.338  18.602  0.00  0.00    +0.000 A 
ATOM      7  C   UNL     1       1.835  15.268  19.645  0.00  0.00    +0.000 A 
ATOM      8 CL   UNL     1       1.369  16.705  20.469  0.00  0.00    +0.000 Cl
ATOM      9  C   UNL     1       1.265  14.049  20.019  0.00  0.00    +0.000 A 
ATOM     10  C   UNL     1       1.591  12.874  19.305  0.00  0.00    +0.000 A 
ATOM     11  H   UNL     1       3.202  11.538  16.906  0.00  0.00    +0.000 HD
ENDROOT
BRANCH   2  12
ATOM     12  C   UNL     1       1.714   9.446  17.804  0.00  0.00    +0.000 C 
ATOM     13  O   UNL     1       0.701   8.989  17.309  0.00  0.00    +0.000 OA
ATOM     14  N   UNL     1       2.907   8.715  17.858  0.00  0.00    +0.000 N 
ATOM     15  H   UNL     1       3.735   9.142  18.244  0.00  0.00    +0.000 HD
BRANCH  14  16
ATOM     16  C   UNL     1       3.071   7.329  17.440  0.00  0.00    +0.000 C 
ATOM     17  C   UNL     1       4.564   7.088  17.158  0.00  0.00    +0.000 C 
BRANCH  16  18
ATOM     18  C   UNL     1       2.517   6.391  18.517  0.00  0.00    +0.000 A 
ATOM     19  C   UNL     1       2.104   5.093  18.169  0.00  0.00    +0.000 A 
ATOM     20  C   UNL     1       1.520   4.238  19.116  0.00  0.00    +0.000 A 
ATOM     21  C   UNL     1       1.344   4.660  20.431  0.00  0.00    +0.000 A 
ATOM     22  C   UNL     1       1.767   5.931  20.804  0.00  0.00    +0.000 A 
ATOM     23  C   UNL     1       2.343   6.788  19.857  0.00  0.00    +0.000 A 
ENDBRANCH  16  18
ENDBRANCH  14  16
ENDBRANCH   2  12
BRANCH   1  24
ATOM     24  S   UNL     1       0.064  10.962  20.588  0.00  0.00    +0.000 S 
ATOM     25  O   UNL     1       0.498  11.636  21.793  0.00  0.00    +0.000 OA
ATOM     26  O   UNL     1       0.069   9.513  20.492  0.00  0.00    +0.000 OA
BRANCH  24  33
ATOM     27  C   UNL     1      -3.976  11.357  17.251  0.00  0.00    +0.000 C 
ATOM     28  C   UNL     1      -3.387  11.664  18.596  0.00  0.00    +0.000 A 
ATOM     29  C   UNL     1      -4.049  12.510  19.502  0.00  0.00    +0.000 A 
ATOM     30  C   UNL     1      -3.487  12.814  20.748  0.00  0.00    +0.000 A 
ATOM     31  C   UNL     1      -4.178  13.703  21.734  0.00  0.00    +0.000 C 
ATOM     32  C   UNL     1      -2.238  12.290  21.074  0.00  0.00    +0.000 A 
ATOM     33  C   UNL     1      -1.554  11.493  20.157  0.00  0.00    +0.000 A 
ATOM     34  C   UNL     1      -2.139  11.129  18.942  0.00  0.00    +0.000 A 
ENDBRANCH  24  33
ENDBRANCH   1  24
TORSDOF 5
ENDMDL
