MODEL 1
REMARK VINA RESULT:      -7.8      0.000      0.000
REMARK  Name = 
REMARK  5 active torsions:
REMARK  status: ('A' for Active; 'I' for Inactive)
REMARK    1  A    between atoms: C_2  and  O_3
REMARK    2  A    between atoms: C_2  and  C_4
REMARK    3  A    between atoms: C_5  and  C_6
REMARK    4  A    between atoms: C_8  and  O_9
REMARK    5  A    between atoms: C_12  and  C_13
REMARK                            x       y       z     vdW  Elec       q    Type
REMARK                         _______ _______ _______ _____ _____    ______ ____
ROOT
ATOM      1  C   UNL     1       5.231   4.596  15.933  0.00  0.00    +0.000 A 
ATOM      2  C   UNL     1       4.640   3.644  16.776  0.00  0.00    +0.000 A 
ATOM      3  C   UNL     1       3.758   4.034  17.792  0.00  0.00    +0.000 A 
ATOM      4  C   UNL     1       3.499   5.400  17.925  0.00  0.00    +0.000 A 
ATOM      5  O   UNL     1       2.671   5.990  18.837  0.00  0.00    +0.000 OA
ATOM      6  C   UNL     1       2.698   7.339  18.609  0.00  0.00    +0.000 A 
ATOM      7  C   UNL     1       3.555   7.609  17.559  0.00  0.00    +0.000 A 
ATOM      8  C   UNL     1       4.068   6.367  17.109  0.00  0.00    +0.000 A 
ATOM      9  C   UNL     1       4.955   5.965  16.094  0.00  0.00    +0.000 A 
ENDROOT
BRANCH   6  10
ATOM     10  C   UNL     1       1.853   8.175  19.460  0.00  0.00    +0.000 A 
ATOM     11  C   UNL     1       1.566   7.826  20.787  0.00  0.00    +0.000 A 
ATOM     12  C   UNL     1       0.741   8.632  21.578  0.00  0.00    +0.000 A 
ATOM     13  C   UNL     1       0.188   9.797  21.053  0.00  0.00    +0.000 A 
ATOM     14  C   UNL     1       0.465  10.164  19.740  0.00  0.00    +0.000 A 
ATOM     15  C   UNL     1       1.292   9.359  18.951  0.00  0.00    +0.000 A 
ENDBRANCH   6  10
BRANCH   1  17
ATOM     16  C   UNL     1       5.708   3.964  13.628  0.00  0.00    +0.000 C 
ATOM     17  C   UNL     1       6.153   4.172  14.876  0.00  0.00    +0.000 C 
BRANCH  16  19
ATOM     18  O   UNL     1       7.309   4.314  11.937  0.00  0.00    +0.000 OA
ATOM     19  C   UNL     1       6.521   3.550  12.470  0.00  0.00    +0.000 C 
BRANCH  19  20
ATOM     20  O   UNL     1       6.304   2.297  12.031  0.00  0.00    +0.000 OA
ATOM     21  H   UNL     1       5.472   2.168  11.545  0.00  0.00    +0.000 HD
ENDBRANCH  19  20
ENDBRANCH  16  19
ENDBRANCH   1  17
BRANCH   3  22
ATOM     22  O   UNL     1       3.172   3.115  18.617  0.00  0.00    +0.000 OA
ATOM     23  H   UNL     1       3.538   2.236  18.428  0.00  0.00    +0.000 HD
ENDBRANCH   3  22
TORSDOF 5
ENDMDL
MODEL 2
REMARK VINA RESULT:      -7.7      1.334      1.817
REMARK  Name = 
REMARK  5 active torsions:
REMARK  status: ('A' for Active; 'I' for Inactive)
REMARK    1  A    between atoms: C_2  and  O_3
REMARK    2  A    between atoms: C_2  and  C_4
REMARK    3  A    between atoms: C_5  and  C_6
REMARK    4  A    between atoms: C_8  and  O_9
REMARK    5  A    between atoms: C_12  and  C_13
REMARK                            x       y       z     vdW  Elec       q    Type
REMARK                         _______ _______ _______ _____ _____    ______ ____
ROOT
ATOM      1  C   UNL     1       4.314   4.879  17.401  0.00  0.00    +0.000 A 
ATOM      2  C   UNL     1       3.965   4.091  18.507  0.00  0.00    +0.000 A 
ATOM      3  C   UNL     1       3.186   4.617  19.546  0.00  0.00    +0.000 A 
ATOM      4  C   UNL     1       2.780   5.949  19.429  0.00  0.00    +0.000 A 
ATOM      5  O   UNL     1       2.016   6.651  20.318  0.00  0.00    +0.000 OA
ATOM      6  C   UNL     1       1.845   7.911  19.811  0.00  0.00    +0.000 A 
ATOM      7  C   UNL     1       2.512   8.015  18.606  0.00  0.00    +0.000 A 
ATOM      8  C   UNL     1       3.110   6.756  18.350  0.00  0.00    +0.000 A 
ATOM      9  C   UNL     1       3.895   6.218  17.313  0.00  0.00    +0.000 A 
ENDROOT
BRANCH   6  10
ATOM     10  C   UNL     1       1.025   8.836  20.592  0.00  0.00    +0.000 A 
ATOM     11  C   UNL     1       0.928   8.740  21.987  0.00  0.00    +0.000 A 
ATOM     12  C   UNL     1       0.124   9.625  22.713  0.00  0.00    +0.000 A 
ATOM     13  C   UNL     1      -0.597  10.617  22.053  0.00  0.00    +0.000 A 
ATOM     14  C   UNL     1      -0.510  10.732  20.669  0.00  0.00    +0.000 A 
ATOM     15  C   UNL     1       0.296   9.849  19.946  0.00  0.00    +0.000 A 
ENDBRANCH   6  10
BRANCH   1  17
ATOM     16  C   UNL     1       5.842   5.117  15.517  0.00  0.00    +0.000 C 
ATOM     17  C   UNL     1       5.132   4.315  16.323  0.00  0.00    +0.000 C 
BRANCH  16  19
ATOM     18  O   UNL     1       7.670   5.357  14.052  0.00  0.00    +0.000 OA
ATOM     19  C   UNL     1       6.712   4.690  14.406  0.00  0.00    +0.000 C 
BRANCH  19  20
ATOM     20  O   UNL     1       6.352   3.544  13.800  0.00  0.00    +0.000 OA
ATOM     21  H   UNL     1       5.825   2.936  14.345  0.00  0.00    +0.000 HD
ENDBRANCH  19  20
ENDBRANCH  16  19
ENDBRANCH   1  17
BRANCH   3  22
ATOM     22  O   UNL     1       2.836   3.858  20.627  0.00  0.00    +0.000 OA
ATOM     23  H   UNL     1       3.487   3.148  20.745  0.00  0.00    +0.000 HD
ENDBRANCH   3  22
TORSDOF 5
ENDMDL
MODEL 3
REMARK VINA RESULT:      -7.7      1.559      2.505
REMARK  Name = 
REMARK  5 active torsions:
REMARK  status: ('A' for Active; 'I' for Inactive)
REMARK    1  A    between atoms: C_2  and  O_3
REMARK    2  A    between atoms: C_2  and  C_4
REMARK    3  A    between atoms: C_5  and  C_6
REMARK    4  A    between atoms: C_8  and  O_9
REMARK    5  A    between atoms: C_12  and  C_13
REMARK                            x       y       z     vdW  Elec       q    Type
REMARK                         _______ _______ _______ _____ _____    ______ ____
ROOT
ATOM      1  C   UNL     1       3.984   5.058  17.721  0.00  0.00    +0.000 A 
ATOM      2  C   UNL     1       3.649   4.308  18.857  0.00  0.00    +0.000 A 
ATOM      3  C   UNL     1       2.882   4.870  19.887  0.00  0.00    +0.000 A 
ATOM      4  C   UNL     1       2.474   6.197  19.729  0.00  0.00    +0.000 A 
ATOM      5  O   UNL     1       1.720   6.928  20.603  0.00  0.00    +0.000 OA
ATOM      6  C   UNL     1       1.541   8.169  20.055  0.00  0.00    +0.000 A 
ATOM      7  C   UNL     1       2.193   8.232  18.839  0.00  0.00    +0.000 A 
ATOM      8  C   UNL     1       2.790   6.965  18.619  0.00  0.00    +0.000 A 
ATOM      9  C   UNL     1       3.563   6.393  17.592  0.00  0.00    +0.000 A 
ENDROOT
BRANCH   6  10
ATOM     10  C   UNL     1       0.730   9.120  20.813  0.00  0.00    +0.000 A 
ATOM     11  C   UNL     1       0.188  10.269  20.218  0.00  0.00    +0.000 A 
ATOM     12  C   UNL     1      -0.571  11.174  20.967  0.00  0.00    +0.000 A 
ATOM     13  C   UNL     1      -0.798  10.946  22.321  0.00  0.00    +0.000 A 
ATOM     14  C   UNL     1      -0.274   9.809  22.929  0.00  0.00    +0.000 A 
ATOM     15  C   UNL     1       0.482   8.904  22.179  0.00  0.00    +0.000 A 
ENDBRANCH   6  10
BRANCH   1  17
ATOM     16  C   UNL     1       5.727   5.178  16.021  0.00  0.00    +0.000 C 
ATOM     17  C   UNL     1       4.788   4.457  16.653  0.00  0.00    +0.000 C 
BRANCH  16  19
ATOM     18  O   UNL     1       7.558   5.369  14.552  0.00  0.00    +0.000 OA
ATOM     19  C   UNL     1       6.613   4.702  14.943  0.00  0.00    +0.000 C 
BRANCH  19  20
ATOM     20  O   UNL     1       6.284   3.513  14.407  0.00  0.00    +0.000 OA
ATOM     21  H   UNL     1       5.799   3.559  13.566  0.00  0.00    +0.000 HD
ENDBRANCH  19  20
ENDBRANCH  16  19
ENDBRANCH   1  17
BRANCH   3  22
ATOM     22  O   UNL     1       2.546   4.148  20.998  0.00  0.00    +0.000 OA
ATOM     23  H   UNL     1       1.778   3.589  20.796  0.00  0.00    +0.000 HD
ENDBRANCH   3  22
TORSDOF 5
ENDMDL
MODEL 4
REMARK VINA RESULT:      -7.7      0.108      1.056
REMARK  Name = 
REMARK  5 active torsions:
REMARK  status: ('A' for Active; 'I' for Inactive)
REMARK    1  A    between atoms: C_2  and  O_3
REMARK    2  A    between atoms: C_2  and  C_4
REMARK    3  A    between atoms: C_5  and  C_6
REMARK    4  A    between atoms: C_8  and  O_9
REMARK    5  A    between atoms: C_12  and  C_13
REMARK                            x       y       z     vdW  Elec       q    Type
REMARK                         _______ _______ _______ _____ _____    ______ ____
ROOT
ATOM      1  C   UNL     1       5.293   4.717  15.864  0.00  0.00    +0.000 A 
ATOM      2  C   UNL     1       4.755   3.748  16.723  0.00  0.00    +0.000 A 
ATOM      3  C   UNL     1       3.878   4.111  17.754  0.00  0.00    +0.000 A 
ATOM      4  C   UNL     1       3.571   5.468  17.884  0.00  0.00    +0.000 A 
ATOM      5  O   UNL     1       2.738   6.031  18.809  0.00  0.00    +0.000 OA
ATOM      6  C   UNL     1       2.711   7.379  18.573  0.00  0.00    +0.000 A 
ATOM      7  C   UNL     1       3.536   7.675  17.506  0.00  0.00    +0.000 A 
ATOM      8  C   UNL     1       4.087   6.450  17.053  0.00  0.00    +0.000 A 
ATOM      9  C   UNL     1       4.969   6.076  16.022  0.00  0.00    +0.000 A 
ENDROOT
BRANCH   6  10
ATOM     10  C   UNL     1       1.850   8.187  19.436  0.00  0.00    +0.000 A 
ATOM     11  C   UNL     1       1.257   9.374  18.984  0.00  0.00    +0.000 A 
ATOM     12  C   UNL     1       0.451  10.141  19.832  0.00  0.00    +0.000 A 
ATOM     13  C   UNL     1       0.228   9.733  21.145  0.00  0.00    +0.000 A 
ATOM     14  C   UNL     1       0.804   8.556  21.611  0.00  0.00    +0.000 A 
ATOM     15  C   UNL     1       1.606   7.789  20.761  0.00  0.00    +0.000 A 
ENDBRANCH   6  10
BRANCH   1  17
ATOM     16  C   UNL     1       5.737   3.947  13.594  0.00  0.00    +0.000 C 
ATOM     17  C   UNL     1       6.211   4.323  14.791  0.00  0.00    +0.000 C 
BRANCH  16  19
ATOM     18  O   UNL     1       7.324   4.305  11.891  0.00  0.00    +0.000 OA
ATOM     19  C   UNL     1       6.540   3.538  12.427  0.00  0.00    +0.000 C 
BRANCH  19  20
ATOM     20  O   UNL     1       6.318   2.288  11.983  0.00  0.00    +0.000 OA
ATOM     21  H   UNL     1       5.595   2.200  11.340  0.00  0.00    +0.000 HD
ENDBRANCH  19  20
ENDBRANCH  16  19
ENDBRANCH   1  17
BRANCH   3  22
ATOM     22  O   UNL     1       3.343   3.175  18.595  0.00  0.00    +0.000 OA
ATOM     23  H   UNL     1       3.357   2.308  18.159  0.00  0.00    +0.000 HD
ENDBRANCH   3  22
TORSDOF 5
ENDMDL
MODEL 5
REMARK VINA RESULT:      -7.7      1.679      2.476
REMARK  Name = 
REMARK  5 active torsions:
REMARK  status: ('A' for Active; 'I' for Inactive)
REMARK    1  A    between atoms: C_2  and  O_3
REMARK    2  A    between atoms: C_2  and  C_4
REMARK    3  A    between atoms: C_5  and  C_6
REMARK    4  A    between atoms: C_8  and  O_9
REMARK    5  A    between atoms: C_12  and  C_13
REMARK                            x       y       z     vdW  Elec       q    Type
REMARK                         _______ _______ _______ _____ _____    ______ ____
ROOT
ATOM      1  C   UNL     1       4.460   5.735  17.678  0.00  0.00    +0.000 A 
ATOM      2  C   UNL     1       4.031   5.209  18.905  0.00  0.00    +0.000 A 
ATOM      3  C   UNL     1       3.082   5.885  19.682  0.00  0.00    +0.000 A 
ATOM      4  C   UNL     1       2.590   7.094  19.183  0.00  0.00    +0.000 A 
ATOM      5  O   UNL     1       1.661   7.904  19.773  0.00  0.00    +0.000 OA
ATOM      6  C   UNL     1       1.459   8.973  18.943  0.00  0.00    +0.000 A 
ATOM      7  C   UNL     1       2.269   8.851  17.831  0.00  0.00    +0.000 A 
ATOM      8  C   UNL     1       2.995   7.642  17.975  0.00  0.00    +0.000 A 
ATOM      9  C   UNL     1       3.951   6.956  17.203  0.00  0.00    +0.000 A 
ENDROOT
BRANCH   6  10
ATOM     10  C   UNL     1       0.471   9.965  19.365  0.00  0.00    +0.000 A 
ATOM     11  C   UNL     1       0.535  10.583  20.623  0.00  0.00    +0.000 A 
ATOM     12  C   UNL     1      -0.430  11.516  21.013  0.00  0.00    +0.000 A 
ATOM     13  C   UNL     1      -1.475  11.845  20.153  0.00  0.00    +0.000 A 
ATOM     14  C   UNL     1      -1.553  11.247  18.899  0.00  0.00    +0.000 A 
ATOM     15  C   UNL     1      -0.586  10.317  18.509  0.00  0.00    +0.000 A 
ENDBRANCH   6  10
BRANCH   1  17
ATOM     16  C   UNL     1       5.703   5.384  15.610  0.00  0.00    +0.000 C 
ATOM     17  C   UNL     1       5.455   5.016  16.876  0.00  0.00    +0.000 C 
BRANCH  16  19
ATOM     18  O   UNL     1       7.692   5.349  14.351  0.00  0.00    +0.000 OA
ATOM     19  C   UNL     1       6.679   4.763  14.697  0.00  0.00    +0.000 C 
BRANCH  19  20
ATOM     20  O   UNL     1       6.355   3.535  14.253  0.00  0.00    +0.000 OA
ATOM     21  H   UNL     1       7.055   3.077  13.759  0.00  0.00    +0.000 HD
ENDBRANCH  19  20
ENDBRANCH  16  19
ENDBRANCH   1  17
BRANCH   3  22
ATOM     22  O   UNL     1       2.653   5.381  20.878  0.00  0.00    +0.000 OA
ATOM     23  H   UNL     1       3.358   4.841  21.269  0.00  0.00    +0.000 HD
ENDBRANCH   3  22
TORSDOF 5
ENDMDL
MODEL 6
REMARK VINA RESULT:      -7.6      1.681      2.614
REMARK  Name = 
REMARK  5 active torsions:
REMARK  status: ('A' for Active; 'I' for Inactive)
REMARK    1  A    between atoms: C_2  and  O_3
REMARK    2  A    between atoms: C_2  and  C_4
REMARK    3  A    between atoms: C_5  and  C_6
REMARK    4  A    between atoms: C_8  and  O_9
REMARK    5  A    between atoms: C_12  and  C_13
REMARK                            x       y       z     vdW  Elec       q    Type
REMARK                         _______ _______ _______ _____ _____    ______ ____
ROOT
ATOM      1  C   UNL     1       4.409   5.696  17.680  0.00  0.00    +0.000 A 
ATOM      2  C   UNL     1       3.989   5.174  18.911  0.00  0.00    +0.000 A 
ATOM      3  C   UNL     1       3.056   5.860  19.701  0.00  0.00    +0.000 A 
ATOM      4  C   UNL     1       2.572   7.074  19.208  0.00  0.00    +0.000 A 
ATOM      5  O   UNL     1       1.658   7.893  19.809  0.00  0.00    +0.000 OA
ATOM      6  C   UNL     1       1.458   8.966  18.983  0.00  0.00    +0.000 A 
ATOM      7  C   UNL     1       2.255   8.836  17.862  0.00  0.00    +0.000 A 
ATOM      8  C   UNL     1       2.969   7.619  17.996  0.00  0.00    +0.000 A 
ATOM      9  C   UNL     1       3.908   6.924  17.212  0.00  0.00    +0.000 A 
ENDROOT
BRANCH   6  10
ATOM     10  C   UNL     1       0.486   9.968  19.418  0.00  0.00    +0.000 A 
ATOM     11  C   UNL     1      -0.602  10.339  18.615  0.00  0.00    +0.000 A 
ATOM     12  C   UNL     1      -1.510  11.312  19.043  0.00  0.00    +0.000 A 
ATOM     13  C   UNL     1      -1.343  11.930  20.280  0.00  0.00    +0.000 A 
ATOM     14  C   UNL     1      -0.273  11.572  21.094  0.00  0.00    +0.000 A 
ATOM     15  C   UNL     1       0.632  10.596  20.666  0.00  0.00    +0.000 A 
ENDBRANCH   6  10
BRANCH   1  17
ATOM     16  C   UNL     1       5.708   5.402  15.638  0.00  0.00    +0.000 C 
ATOM     17  C   UNL     1       5.388   4.969  16.866  0.00  0.00    +0.000 C 
BRANCH  16  19
ATOM     18  O   UNL     1       7.681   5.370  14.353  0.00  0.00    +0.000 OA
ATOM     19  C   UNL     1       6.678   4.780  14.718  0.00  0.00    +0.000 C 
BRANCH  19  20
ATOM     20  O   UNL     1       6.358   3.544  14.292  0.00  0.00    +0.000 OA
ATOM     21  H   UNL     1       6.958   2.838  14.585  0.00  0.00    +0.000 HD
ENDBRANCH  19  20
ENDBRANCH  16  19
ENDBRANCH   1  17
BRANCH   3  22
ATOM     22  O   UNL     1       2.635   5.359  20.901  0.00  0.00    +0.000 OA
ATOM     23  H   UNL     1       1.727   5.029  20.809  0.00  0.00    +0.000 HD
ENDBRANCH   3  22
TORSDOF 5
ENDMDL
MODEL 7
REMARK VINA RESULT:      -7.6      5.168      6.701
REMARK  Name = 
REMARK  5 active torsions:
REMARK  status: ('A' for Active; 'I' for Inactive)
REMARK    1  A    between atoms: C_2  and  O_3
REMARK    2  A    between atoms: C_2  and  C_4
REMARK    3  A    between atoms: C_5  and  C_6
REMARK    4  A    between atoms: C_8  and  O_9
REMARK    5  A    between atoms: C_12  and  C_13
REMARK                            x       y       z     vdW  Elec       q    Type
REMARK                         _______ _______ _______ _____ _____    ______ ____
ROOT
ATOM      1  C   UNL     1       5.883   5.390  17.601  0.00  0.00    +0.000 A 
ATOM      2  C   UNL     1       6.754   4.876  18.571  0.00  0.00    +0.000 A 
ATOM      3  C   UNL     1       7.770   5.671  19.117  0.00  0.00    +0.000 A 
ATOM      4  C   UNL     1       7.873   6.985  18.652  0.00  0.00    +0.000 A 
ATOM      5  O   UNL     1       8.781   7.924  19.053  0.00  0.00    +0.000 OA
ATOM      6  C   UNL     1       8.520   9.074  18.357  0.00  0.00    +0.000 A 
ATOM      7  C   UNL     1       7.455   8.862  17.504  0.00  0.00    +0.000 A 
ATOM      8  C   UNL     1       7.029   7.523  17.692  0.00  0.00    +0.000 A 
ATOM      9  C   UNL     1       6.013   6.715  17.148  0.00  0.00    +0.000 A 
ENDROOT
BRANCH   6  10
ATOM     10  C   UNL     1       9.360  10.234  18.651  0.00  0.00    +0.000 A 
ATOM     11  C   UNL     1       9.979  10.975  17.634  0.00  0.00    +0.000 A 
ATOM     12  C   UNL     1      10.793  12.071  17.938  0.00  0.00    +0.000 A 
ATOM     13  C   UNL     1      11.001  12.441  19.265  0.00  0.00    +0.000 A 
ATOM     14  C   UNL     1      10.393  11.722  20.288  0.00  0.00    +0.000 A 
ATOM     15  C   UNL     1       9.577  10.628  19.982  0.00  0.00    +0.000 A 
ENDBRANCH   6  10
BRANCH   1  17
ATOM     16  C   UNL     1       3.869   4.036  17.827  0.00  0.00    +0.000 C 
ATOM     17  C   UNL     1       4.826   4.545  17.037  0.00  0.00    +0.000 C 
BRANCH  16  19
ATOM     18  O   UNL     1       1.707   3.665  16.970  0.00  0.00    +0.000 OA
ATOM     19  C   UNL     1       2.744   3.185  17.398  0.00  0.00    +0.000 C 
BRANCH  19  20
ATOM     20  O   UNL     1       2.933   1.861  17.546  0.00  0.00    +0.000 OA
ATOM     21  H   UNL     1       3.407   1.600  18.353  0.00  0.00    +0.000 HD
ENDBRANCH  19  20
ENDBRANCH  16  19
ENDBRANCH   1  17
BRANCH   3  22
ATOM     22  O   UNL     1       8.623   5.183  20.067  0.00  0.00    +0.000 OA
ATOM     23  H   UNL     1       8.795   4.244  19.890  0.00  0.00    +0.000 HD
ENDBRANCH   3  22
TORSDOF 5
ENDMDL
MODEL 8
REMARK VINA RESULT:      -7.6      5.180      6.644
REMARK  Name = 
REMARK  5 active torsions:
REMARK  status: ('A' for Active; 'I' for Inactive)
REMARK    1  A    between atoms: C_2  and  O_3
REMARK    2  A    between atoms: C_2  and  C_4
REMARK    3  A    between atoms: C_5  and  C_6
REMARK    4  A    between atoms: C_8  and  O_9
REMARK    5  A    between atoms: C_12  and  C_13
REMARK                            x       y       z     vdW  Elec       q    Type
REMARK                         _______ _______ _______ _____ _____    ______ ____
ROOT
ATOM      1  C   UNL     1       5.817   5.474  17.607  0.00  0.00    +0.000 A 
ATOM      2  C   UNL     1       6.696   4.932  18.555  0.00  0.00    +0.000 A 
ATOM      3  C   UNL     1       7.734   5.703  19.095  0.00  0.00    +0.000 A 
ATOM      4  C   UNL     1       7.850   7.022  18.648  0.00  0.00    +0.000 A 
ATOM      5  O   UNL     1       8.779   7.940  19.047  0.00  0.00    +0.000 OA
ATOM      6  C   UNL     1       8.525   9.104  18.373  0.00  0.00    +0.000 A 
ATOM      7  C   UNL     1       7.443   8.922  17.534  0.00  0.00    +0.000 A 
ATOM      8  C   UNL     1       6.999   7.587  17.710  0.00  0.00    +0.000 A 
ATOM      9  C   UNL     1       5.962   6.804  17.172  0.00  0.00    +0.000 A 
ENDROOT
BRANCH   6  10
ATOM     10  C   UNL     1       9.389  10.246  18.669  0.00  0.00    +0.000 A 
ATOM     11  C   UNL     1       9.639  10.661  19.985  0.00  0.00    +0.000 A 
ATOM     12  C   UNL     1      10.455  11.767  20.246  0.00  0.00    +0.000 A 
ATOM     13  C   UNL     1      11.031  12.476  19.194  0.00  0.00    +0.000 A 
ATOM     14  C   UNL     1      10.799  12.076  17.881  0.00  0.00    +0.000 A 
ATOM     15  C   UNL     1       9.986  10.969  17.623  0.00  0.00    +0.000 A 
ENDBRANCH   6  10
BRANCH   1  17
ATOM     16  C   UNL     1       3.997   3.871  17.847  0.00  0.00    +0.000 C 
ATOM     17  C   UNL     1       4.738   4.655  17.049  0.00  0.00    +0.000 C 
BRANCH  16  19
ATOM     18  O   UNL     1       1.887   3.465  16.883  0.00  0.00    +0.000 OA
ATOM     19  C   UNL     1       2.879   3.007  17.427  0.00  0.00    +0.000 C 
BRANCH  19  20
ATOM     20  O   UNL     1       3.017   1.701  17.719  0.00  0.00    +0.000 OA
ATOM     21  H   UNL     1       3.925   1.359  17.659  0.00  0.00    +0.000 HD
ENDBRANCH  19  20
ENDBRANCH  16  19
ENDBRANCH   1  17
BRANCH   3  22
ATOM     22  O   UNL     1       8.595   5.187  20.023  0.00  0.00    +0.000 OA
ATOM     23  H   UNL     1       8.579   4.218  19.970  0.00  0.00    +0.000 HD
ENDBRANCH   3  22
TORSDOF 5
ENDMDL
MODEL 9
REMARK VINA RESULT:      -7.5      2.436      3.585
REMARK  Name = 
REMARK  5 active torsions:
REMARK  status: ('A' for Active; 'I' for Inactive)
REMARK    1  A    between atoms: C_2  and  O_3
REMARK    2  A    between atoms: C_2  and  C_4
REMARK    3  A    between atoms: C_5  and  C_6
REMARK    4  A    between atoms: C_8  and  O_9
REMARK    5  A    between atoms: C_12  and  C_13
REMARK                            x       y       z     vdW  Elec       q    Type
REMARK                         _______ _______ _______ _____ _____    ______ ____
ROOT
ATOM      1  C   UNL     1       4.060   6.291  17.832  0.00  0.00    +0.000 A 
ATOM      2  C   UNL     1       3.594   5.772  19.049  0.00  0.00    +0.000 A 
ATOM      3  C   UNL     1       2.624   6.454  19.796  0.00  0.00    +0.000 A 
ATOM      4  C   UNL     1       2.152   7.663  19.278  0.00  0.00    +0.000 A 
ATOM      5  O   UNL     1       1.209   8.478  19.837  0.00  0.00    +0.000 OA
ATOM      6  C   UNL     1       1.035   9.545  18.998  0.00  0.00    +0.000 A 
ATOM      7  C   UNL     1       1.876   9.415  17.910  0.00  0.00    +0.000 A 
ATOM      8  C   UNL     1       2.593   8.204  18.079  0.00  0.00    +0.000 A 
ATOM      9  C   UNL     1       3.569   7.512  17.338  0.00  0.00    +0.000 A 
ENDROOT
BRANCH   6  10
ATOM     10  C   UNL     1       0.038  10.542  19.387  0.00  0.00    +0.000 A 
ATOM     11  C   UNL     1      -1.170  10.691  18.691  0.00  0.00    +0.000 A 
ATOM     12  C   UNL     1      -2.101  11.662  19.071  0.00  0.00    +0.000 A 
ATOM     13  C   UNL     1      -1.838  12.501  20.151  0.00  0.00    +0.000 A 
ATOM     14  C   UNL     1      -0.647  12.366  20.858  0.00  0.00    +0.000 A 
ATOM     15  C   UNL     1       0.282  11.392  20.479  0.00  0.00    +0.000 A 
ENDBRANCH   6  10
BRANCH   1  17
ATOM     16  C   UNL     1       6.300   5.368  17.572  0.00  0.00    +0.000 C 
ATOM     17  C   UNL     1       5.075   5.567  17.063  0.00  0.00    +0.000 C 
BRANCH  16  19
ATOM     18  O   UNL     1       7.512   4.601  15.703  0.00  0.00    +0.000 OA
ATOM     19  C   UNL     1       7.411   4.651  16.918  0.00  0.00    +0.000 C 
BRANCH  19  20
ATOM     20  O   UNL     1       8.270   4.035  17.751  0.00  0.00    +0.000 OA
ATOM     21  H   UNL     1       8.934   4.614  18.160  0.00  0.00    +0.000 HD
ENDBRANCH  19  20
ENDBRANCH  16  19
ENDBRANCH   1  17
BRANCH   3  22
ATOM     22  O   UNL     1       2.159   5.957  20.981  0.00  0.00    +0.000 OA
ATOM     23  H   UNL     1       2.383   6.573  21.696  0.00  0.00    +0.000 HD
ENDBRANCH   3  22
TORSDOF 5
ENDMDL
