MODEL 1
REMARK VINA RESULT:      -7.5      0.000      0.000
REMARK  Name = 
REMARK  7 active torsions:
REMARK  status: ('A' for Active; 'I' for Inactive)
REMARK    1  A    between atoms: C_1  and  C_2
REMARK    2  A    between atoms: C_2  and  C_3
REMARK    3  A    between atoms: C_3  and  N_4
REMARK    4  A    between atoms: N_4  and  C_5
REMARK    5  A    between atoms: C_5  and  C_6
REMARK    6  A    between atoms: C_6  and  C_7
REMARK    7  A    between atoms: C_11  and  O_12
REMARK                            x       y       z     vdW  Elec       q    Type
REMARK                         _______ _______ _______ _____ _____    ______ ____
ROOT
ATOM      1  N   UNL     1       2.248   6.613  19.951  0.00  0.00    +0.000 N 
ATOM      2  C   UNL     1       1.686   7.834  20.291  0.00  0.00    +0.000 A 
ATOM      3  N   UNL     1       1.168   8.636  19.407  0.00  0.00    +0.000 NA
ATOM      4  C   UNL     1       0.557   9.829  19.855  0.00  0.00    +0.000 A 
ATOM      5  C   UNL     1      -0.028  10.676  18.906  0.00  0.00    +0.000 A 
ATOM      6  C   UNL     1      -0.686  11.861  19.248  0.00  0.00    +0.000 A 
ATOM      7  C   UNL     1      -0.763  12.210  20.610  0.00  0.00    +0.000 A 
ATOM      8  C   UNL     1      -1.329  13.290  21.350  0.00  0.00    +0.000 A 
ATOM      9  C   UNL     1      -2.045  14.460  21.037  0.00  0.00    +0.000 A 
ATOM     10  C   UNL     1      -2.443  15.307  22.081  0.00  0.00    +0.000 A 
ATOM     11  C   UNL     1      -2.139  15.005  23.411  0.00  0.00    +0.000 A 
ATOM     12  C   UNL     1      -1.431  13.847  23.744  0.00  0.00    +0.000 A 
ATOM     13  C   UNL     1      -1.049  13.025  22.685  0.00  0.00    +0.000 A 
ATOM     14  O   UNL     1      -0.355  11.863  22.806  0.00  0.00    +0.000 OA
ATOM     15  C   UNL     1      -0.176  11.362  21.550  0.00  0.00    +0.000 A 
ATOM     16  C   UNL     1       0.484  10.184  21.202  0.00  0.00    +0.000 A 
ATOM     17  C   UNL     1       1.105   9.286  22.167  0.00  0.00    +0.000 A 
ATOM     18  O   UNL     1       1.114   9.482  23.378  0.00  0.00    +0.000 OA
ATOM     19  N   UNL     1       1.690   8.170  21.622  0.00  0.00    +0.000 N 
ATOM     20  H   UNL     1       2.129   7.561  22.288  0.00  0.00    +0.000 HD
ENDROOT
BRANCH   5  21
ATOM     21  O   UNL     1       0.033  10.331  17.580  0.00  0.00    +0.000 OA
ATOM     22  H   UNL     1       0.522   9.481  17.579  0.00  0.00    +0.000 HD
ENDBRANCH   5  21
BRANCH   1  23
ATOM     23  C   UNL     1       2.213   5.437  20.841  0.00  0.00    +0.000 C 
BRANCH  23  25
ATOM     24  C   UNL     1       1.340   3.020  21.103  0.00  0.00    +0.000 C 
ATOM     25  C   UNL     1       1.120   4.403  20.510  0.00  0.00    +0.000 C 
ENDBRANCH  23  25
ENDBRANCH   1  23
BRANCH   1  26
ATOM     26  C   UNL     1       2.704   6.368  18.571  0.00  0.00    +0.000 C 
BRANCH  26  27
ATOM     27  C   UNL     1       3.988   5.525  18.493  0.00  0.00    +0.000 C 
ATOM     28  C   UNL     1       3.917   4.320  17.563  0.00  0.00    +0.000 C 
ENDBRANCH  26  27
ENDBRANCH   1  26
TORSDOF 5
ENDMDL
MODEL 2
REMARK VINA RESULT:      -7.4      2.211      4.531
REMARK  Name = 
REMARK  7 active torsions:
REMARK  status: ('A' for Active; 'I' for Inactive)
REMARK    1  A    between atoms: C_1  and  C_2
REMARK    2  A    between atoms: C_2  and  C_3
REMARK    3  A    between atoms: C_3  and  N_4
REMARK    4  A    between atoms: N_4  and  C_5
REMARK    5  A    between atoms: C_5  and  C_6
REMARK    6  A    between atoms: C_6  and  C_7
REMARK    7  A    between atoms: C_11  and  O_12
REMARK                            x       y       z     vdW  Elec       q    Type
REMARK                         _______ _______ _______ _____ _____    ______ ____
ROOT
ATOM      1  N   UNL     1       4.452   5.629  17.036  0.00  0.00    +0.000 N 
ATOM      2  C   UNL     1       3.590   6.435  17.763  0.00  0.00    +0.000 A 
ATOM      3  N   UNL     1       3.098   6.074  18.913  0.00  0.00    +0.000 NA
ATOM      4  C   UNL     1       2.282   6.990  19.613  0.00  0.00    +0.000 A 
ATOM      5  C   UNL     1       1.779   6.614  20.866  0.00  0.00    +0.000 A 
ATOM      6  C   UNL     1       0.991   7.457  21.653  0.00  0.00    +0.000 A 
ATOM      7  C   UNL     1       0.698   8.744  21.161  0.00  0.00    +0.000 A 
ATOM      8  C   UNL     1      -0.039   9.868  21.638  0.00  0.00    +0.000 A 
ATOM      9  C   UNL     1      -0.783  10.169  22.794  0.00  0.00    +0.000 A 
ATOM     10  C   UNL     1      -1.385  11.431  22.899  0.00  0.00    +0.000 A 
ATOM     11  C   UNL     1      -1.256  12.380  21.881  0.00  0.00    +0.000 A 
ATOM     12  C   UNL     1      -0.520  12.102  20.726  0.00  0.00    +0.000 A 
ATOM     13  C   UNL     1       0.066  10.840  20.649  0.00  0.00    +0.000 A 
ATOM     14  O   UNL     1       0.814  10.384  19.611  0.00  0.00    +0.000 OA
ATOM     15  C   UNL     1       1.200   9.112  19.913  0.00  0.00    +0.000 A 
ATOM     16  C   UNL     1       1.981   8.263  19.129  0.00  0.00    +0.000 A 
ATOM     17  C   UNL     1       2.514   8.626  17.822  0.00  0.00    +0.000 A 
ATOM     18  O   UNL     1       2.322   9.711  17.282  0.00  0.00    +0.000 OA
ATOM     19  N   UNL     1       3.274   7.655  17.219  0.00  0.00    +0.000 N 
ATOM     20  H   UNL     1       3.627   7.902  16.313  0.00  0.00    +0.000 HD
ENDROOT
BRANCH   5  21
ATOM     21  O   UNL     1       2.077   5.367  21.353  0.00  0.00    +0.000 OA
ATOM     22  H   UNL     1       1.276   5.112  21.857  0.00  0.00    +0.000 HD
ENDBRANCH   5  21
BRANCH   1  23
ATOM     23  C   UNL     1       5.520   6.168  16.173  0.00  0.00    +0.000 C 
BRANCH  23  25
ATOM     24  C   UNL     1       7.450   7.241  17.513  0.00  0.00    +0.000 C 
ATOM     25  C   UNL     1       6.945   6.033  16.739  0.00  0.00    +0.000 C 
ENDBRANCH  23  25
ENDBRANCH   1  23
BRANCH   1  26
ATOM     26  C   UNL     1       4.489   4.175  17.281  0.00  0.00    +0.000 C 
BRANCH  26  27
ATOM     27  C   UNL     1       3.201   3.451  16.858  0.00  0.00    +0.000 C 
ATOM     28  C   UNL     1       2.655   2.454  17.873  0.00  0.00    +0.000 C 
ENDBRANCH  26  27
ENDBRANCH   1  26
TORSDOF 5
ENDMDL
MODEL 3
REMARK VINA RESULT:      -7.3      2.456      3.962
REMARK  Name = 
REMARK  7 active torsions:
REMARK  status: ('A' for Active; 'I' for Inactive)
REMARK    1  A    between atoms: C_1  and  C_2
REMARK    2  A    between atoms: C_2  and  C_3
REMARK    3  A    between atoms: C_3  and  N_4
REMARK    4  A    between atoms: N_4  and  C_5
REMARK    5  A    between atoms: C_5  and  C_6
REMARK    6  A    between atoms: C_6  and  C_7
REMARK    7  A    between atoms: C_11  and  O_12
REMARK                            x       y       z     vdW  Elec       q    Type
REMARK                         _______ _______ _______ _____ _____    ______ ____
ROOT
ATOM      1  N   UNL     1       4.271   3.941  17.711  0.00  0.00    +0.000 N 
ATOM      2  C   UNL     1       3.631   4.975  18.378  0.00  0.00    +0.000 A 
ATOM      3  N   UNL     1       3.438   6.142  17.837  0.00  0.00    +0.000 NA
ATOM      4  C   UNL     1       2.716   7.112  18.568  0.00  0.00    +0.000 A 
ATOM      5  C   UNL     1       2.480   8.358  17.973  0.00  0.00    +0.000 A 
ATOM      6  C   UNL     1       1.750   9.372  18.596  0.00  0.00    +0.000 A 
ATOM      7  C   UNL     1       1.226   9.123  19.880  0.00  0.00    +0.000 A 
ATOM      8  C   UNL     1       0.450   9.862  20.821  0.00  0.00    +0.000 A 
ATOM      9  C   UNL     1      -0.118  11.148  20.868  0.00  0.00    +0.000 A 
ATOM     10  C   UNL     1      -0.837  11.527  22.010  0.00  0.00    +0.000 A 
ATOM     11  C   UNL     1      -0.992  10.651  23.088  0.00  0.00    +0.000 A 
ATOM     12  C   UNL     1      -0.437   9.369  23.061  0.00  0.00    +0.000 A 
ATOM     13  C   UNL     1       0.272   9.022  21.913  0.00  0.00    +0.000 A 
ATOM     14  O   UNL     1       0.884   7.827  21.699  0.00  0.00    +0.000 OA
ATOM     15  C   UNL     1       1.467   7.881  20.468  0.00  0.00    +0.000 A 
ATOM     16  C   UNL     1       2.201   6.874  19.843  0.00  0.00    +0.000 A 
ATOM     17  C   UNL     1       2.466   5.571  20.440  0.00  0.00    +0.000 A 
ATOM     18  O   UNL     1       2.073   5.236  21.553  0.00  0.00    +0.000 OA
ATOM     19  N   UNL     1       3.195   4.714  19.653  0.00  0.00    +0.000 N 
ATOM     20  H   UNL     1       3.387   3.823  20.073  0.00  0.00    +0.000 HD
ENDROOT
BRANCH   5  21
ATOM     21  O   UNL     1       2.976   8.597  16.717  0.00  0.00    +0.000 OA
ATOM     22  H   UNL     1       3.077   9.571  16.683  0.00  0.00    +0.000 HD
ENDBRANCH   5  21
BRANCH   1  23
ATOM     23  C   UNL     1       3.940   2.520  17.927  0.00  0.00    +0.000 C 
BRANCH  23  25
ATOM     24  C   UNL     1       1.550   1.928  18.711  0.00  0.00    +0.000 C 
ATOM     25  C   UNL     1       2.503   2.121  17.541  0.00  0.00    +0.000 C 
ENDBRANCH  23  25
ENDBRANCH   1  23
BRANCH   1  26
ATOM     26  C   UNL     1       5.158   4.234  16.570  0.00  0.00    +0.000 C 
BRANCH  26  27
ATOM     27  C   UNL     1       6.616   4.497  16.982  0.00  0.00    +0.000 C 
ATOM     28  C   UNL     1       7.019   5.966  17.039  0.00  0.00    +0.000 C 
ENDBRANCH  26  27
ENDBRANCH   1  26
TORSDOF 5
ENDMDL
MODEL 4
REMARK VINA RESULT:      -7.1      1.239      1.290
REMARK  Name = 
REMARK  7 active torsions:
REMARK  status: ('A' for Active; 'I' for Inactive)
REMARK    1  A    between atoms: C_1  and  C_2
REMARK    2  A    between atoms: C_2  and  C_3
REMARK    3  A    between atoms: C_3  and  N_4
REMARK    4  A    between atoms: N_4  and  C_5
REMARK    5  A    between atoms: C_5  and  C_6
REMARK    6  A    between atoms: C_6  and  C_7
REMARK    7  A    between atoms: C_11  and  O_12
REMARK                            x       y       z     vdW  Elec       q    Type
REMARK                         _______ _______ _______ _____ _____    ______ ____
ROOT
ATOM      1  N   UNL     1       2.085   6.189  20.063  0.00  0.00    +0.000 N 
ATOM      2  C   UNL     1       1.773   7.525  20.268  0.00  0.00    +0.000 A 
ATOM      3  N   UNL     1       1.809   8.405  19.311  0.00  0.00    +0.000 NA
ATOM      4  C   UNL     1       1.410   9.730  19.598  0.00  0.00    +0.000 A 
ATOM      5  C   UNL     1       1.418  10.670  18.560  0.00  0.00    +0.000 A 
ATOM      6  C   UNL     1       1.010  11.995  18.731  0.00  0.00    +0.000 A 
ATOM      7  C   UNL     1       0.568  12.395  20.007  0.00  0.00    +0.000 A 
ATOM      8  C   UNL     1       0.082  13.608  20.578  0.00  0.00    +0.000 A 
ATOM      9  C   UNL     1      -0.161  14.914  20.114  0.00  0.00    +0.000 A 
ATOM     10  C   UNL     1      -0.657  15.869  21.012  0.00  0.00    +0.000 A 
ATOM     11  C   UNL     1      -0.910  15.541  22.347  0.00  0.00    +0.000 A 
ATOM     12  C   UNL     1      -0.678  14.249  22.828  0.00  0.00    +0.000 A 
ATOM     13  C   UNL     1      -0.184  13.323  21.912  0.00  0.00    +0.000 A 
ATOM     14  O   UNL     1       0.106  12.024  22.188  0.00  0.00    +0.000 OA
ATOM     15  C   UNL     1       0.564  11.454  21.038  0.00  0.00    +0.000 A 
ATOM     16  C   UNL     1       0.978  10.134  20.861  0.00  0.00    +0.000 A 
ATOM     17  C   UNL     1       0.984   9.137  21.924  0.00  0.00    +0.000 A 
ATOM     18  O   UNL     1       0.632   9.363  23.077  0.00  0.00    +0.000 OA
ATOM     19  N   UNL     1       1.412   7.890  21.541  0.00  0.00    +0.000 N 
ATOM     20  H   UNL     1       1.429   7.209  22.277  0.00  0.00    +0.000 HD
ENDROOT
BRANCH   5  21
ATOM     21  O   UNL     1       1.834  10.278  17.313  0.00  0.00    +0.000 OA
ATOM     22  H   UNL     1       2.717  10.691  17.217  0.00  0.00    +0.000 HD
ENDBRANCH   5  21
BRANCH   1  23
ATOM     23  C   UNL     1       1.451   5.092  20.819  0.00  0.00    +0.000 C 
BRANCH  23  25
ATOM     24  C   UNL     1       1.774   2.657  21.621  0.00  0.00    +0.000 C 
ATOM     25  C   UNL     1       2.417   4.003  21.319  0.00  0.00    +0.000 C 
ENDBRANCH  23  25
ENDBRANCH   1  23
BRANCH   1  26
ATOM     26  C   UNL     1       2.902   5.789  18.903  0.00  0.00    +0.000 C 
BRANCH  26  27
ATOM     27  C   UNL     1       2.112   5.010  17.839  0.00  0.00    +0.000 C 
ATOM     28  C   UNL     1       2.660   3.627  17.507  0.00  0.00    +0.000 C 
ENDBRANCH  26  27
ENDBRANCH   1  26
TORSDOF 5
ENDMDL
MODEL 5
REMARK VINA RESULT:      -7.1      2.142      4.371
REMARK  Name = 
REMARK  7 active torsions:
REMARK  status: ('A' for Active; 'I' for Inactive)
REMARK    1  A    between atoms: C_1  and  C_2
REMARK    2  A    between atoms: C_2  and  C_3
REMARK    3  A    between atoms: C_3  and  N_4
REMARK    4  A    between atoms: N_4  and  C_5
REMARK    5  A    between atoms: C_5  and  C_6
REMARK    6  A    between atoms: C_6  and  C_7
REMARK    7  A    between atoms: C_11  and  O_12
REMARK                            x       y       z     vdW  Elec       q    Type
REMARK                         _______ _______ _______ _____ _____    ______ ____
ROOT
ATOM      1  N   UNL     1       4.210   5.844  17.049  0.00  0.00    +0.000 N 
ATOM      2  C   UNL     1       3.374   6.666  17.789  0.00  0.00    +0.000 A 
ATOM      3  N   UNL     1       2.888   6.311  18.942  0.00  0.00    +0.000 NA
ATOM      4  C   UNL     1       2.099   7.241  19.656  0.00  0.00    +0.000 A 
ATOM      5  C   UNL     1       1.603   6.871  20.912  0.00  0.00    +0.000 A 
ATOM      6  C   UNL     1       0.842   7.727  21.712  0.00  0.00    +0.000 A 
ATOM      7  C   UNL     1       0.569   9.022  21.228  0.00  0.00    +0.000 A 
ATOM      8  C   UNL     1      -0.138  10.159  21.717  0.00  0.00    +0.000 A 
ATOM      9  C   UNL     1      -0.862  10.471  22.882  0.00  0.00    +0.000 A 
ATOM     10  C   UNL     1      -1.437  11.745  22.999  0.00  0.00    +0.000 A 
ATOM     11  C   UNL     1      -1.300  12.694  21.983  0.00  0.00    +0.000 A 
ATOM     12  C   UNL     1      -0.583  12.406  20.818  0.00  0.00    +0.000 A 
ATOM     13  C   UNL     1      -0.025  11.132  20.731  0.00  0.00    +0.000 A 
ATOM     14  O   UNL     1       0.702  10.665  19.682  0.00  0.00    +0.000 OA
ATOM     15  C   UNL     1       1.065   9.384  19.975  0.00  0.00    +0.000 A 
ATOM     16  C   UNL     1       1.819   8.522  19.179  0.00  0.00    +0.000 A 
ATOM     17  C   UNL     1       2.344   8.878  17.867  0.00  0.00    +0.000 A 
ATOM     18  O   UNL     1       2.169   9.969  17.333  0.00  0.00    +0.000 OA
ATOM     19  N   UNL     1       3.077   7.894  17.252  0.00  0.00    +0.000 N 
ATOM     20  H   UNL     1       3.424   8.137  16.343  0.00  0.00    +0.000 HD
ENDROOT
BRANCH   5  21
ATOM     21  O   UNL     1       1.880   5.616  21.392  0.00  0.00    +0.000 OA
ATOM     22  H   UNL     1       2.857   5.600  21.463  0.00  0.00    +0.000 HD
ENDBRANCH   5  21
BRANCH   1  23
ATOM     23  C   UNL     1       5.279   6.365  16.175  0.00  0.00    +0.000 C 
BRANCH  23  25
ATOM     24  C   UNL     1       7.064   4.863  15.063  0.00  0.00    +0.000 C 
ATOM     25  C   UNL     1       5.661   5.448  14.998  0.00  0.00    +0.000 C 
ENDBRANCH  23  25
ENDBRANCH   1  23
BRANCH   1  26
ATOM     26  C   UNL     1       4.220   4.389  17.288  0.00  0.00    +0.000 C 
BRANCH  26  27
ATOM     27  C   UNL     1       5.135   3.968  18.450  0.00  0.00    +0.000 C 
ATOM     28  C   UNL     1       4.486   3.062  19.490  0.00  0.00    +0.000 C 
ENDBRANCH  26  27
ENDBRANCH   1  26
TORSDOF 5
ENDMDL
MODEL 6
REMARK VINA RESULT:      -7.1      0.993      1.080
REMARK  Name = 
REMARK  7 active torsions:
REMARK  status: ('A' for Active; 'I' for Inactive)
REMARK    1  A    between atoms: C_1  and  C_2
REMARK    2  A    between atoms: C_2  and  C_3
REMARK    3  A    between atoms: C_3  and  N_4
REMARK    4  A    between atoms: N_4  and  C_5
REMARK    5  A    between atoms: C_5  and  C_6
REMARK    6  A    between atoms: C_6  and  C_7
REMARK    7  A    between atoms: C_11  and  O_12
REMARK                            x       y       z     vdW  Elec       q    Type
REMARK                         _______ _______ _______ _____ _____    ______ ____
ROOT
ATOM      1  N   UNL     1       2.506   6.129  20.057  0.00  0.00    +0.000 N 
ATOM      2  C   UNL     1       2.028   7.411  20.279  0.00  0.00    +0.000 A 
ATOM      3  N   UNL     1       1.903   8.286  19.324  0.00  0.00    +0.000 NA
ATOM      4  C   UNL     1       1.343   9.546  19.634  0.00  0.00    +0.000 A 
ATOM      5  C   UNL     1       1.179  10.475  18.599  0.00  0.00    +0.000 A 
ATOM      6  C   UNL     1       0.606  11.735  18.792  0.00  0.00    +0.000 A 
ATOM      7  C   UNL     1       0.172  12.076  20.088  0.00  0.00    +0.000 A 
ATOM      8  C   UNL     1      -0.445  13.215  20.684  0.00  0.00    +0.000 A 
ATOM      9  C   UNL     1      -0.881  14.475  20.234  0.00  0.00    +0.000 A 
ATOM     10  C   UNL     1      -1.460  15.358  21.157  0.00  0.00    +0.000 A 
ATOM     11  C   UNL     1      -1.606  15.004  22.501  0.00  0.00    +0.000 A 
ATOM     12  C   UNL     1      -1.181  13.756  22.968  0.00  0.00    +0.000 A 
ATOM     13  C   UNL     1      -0.610  12.901  22.027  0.00  0.00    +0.000 A 
ATOM     14  O   UNL     1      -0.137  11.654  22.286  0.00  0.00    +0.000 OA
ATOM     15  C   UNL     1       0.341  11.147  21.115  0.00  0.00    +0.000 A 
ATOM     16  C   UNL     1       0.919   9.893  20.916  0.00  0.00    +0.000 A 
ATOM     17  C   UNL     1       1.106   8.909  21.974  0.00  0.00    +0.000 A 
ATOM     18  O   UNL     1       0.780   9.089  23.143  0.00  0.00    +0.000 OA
ATOM     19  N   UNL     1       1.679   7.729  21.568  0.00  0.00    +0.000 N 
ATOM     20  H   UNL     1       1.820   7.059  22.302  0.00  0.00    +0.000 HD
ENDROOT
BRANCH   5  21
ATOM     21  O   UNL     1       1.586  10.138  17.333  0.00  0.00    +0.000 OA
ATOM     22  H   UNL     1       0.873  10.481  16.755  0.00  0.00    +0.000 HD
ENDBRANCH   5  21
BRANCH   1  23
ATOM     23  C   UNL     1       2.058   4.959  20.838  0.00  0.00    +0.000 C 
BRANCH  23  25
ATOM     24  C   UNL     1       1.100   2.876  19.645  0.00  0.00    +0.000 C 
ATOM     25  C   UNL     1       0.822   4.234  20.273  0.00  0.00    +0.000 C 
ENDBRANCH  23  25
ENDBRANCH   1  23
BRANCH   1  26
ATOM     26  C   UNL     1       3.316   5.838  18.861  0.00  0.00    +0.000 C 
BRANCH  26  27
ATOM     27  C   UNL     1       4.368   4.740  19.088  0.00  0.00    +0.000 C 
ATOM     28  C   UNL     1       5.799   5.238  19.257  0.00  0.00    +0.000 C 
ENDBRANCH  26  27
ENDBRANCH   1  26
TORSDOF 5
ENDMDL
MODEL 7
REMARK VINA RESULT:      -7.0      1.445      3.327
REMARK  Name = 
REMARK  7 active torsions:
REMARK  status: ('A' for Active; 'I' for Inactive)
REMARK    1  A    between atoms: C_1  and  C_2
REMARK    2  A    between atoms: C_2  and  C_3
REMARK    3  A    between atoms: C_3  and  N_4
REMARK    4  A    between atoms: N_4  and  C_5
REMARK    5  A    between atoms: C_5  and  C_6
REMARK    6  A    between atoms: C_6  and  C_7
REMARK    7  A    between atoms: C_11  and  O_12
REMARK                            x       y       z     vdW  Elec       q    Type
REMARK                         _______ _______ _______ _____ _____    ______ ____
ROOT
ATOM      1  N   UNL     1       2.539   6.024  19.882  0.00  0.00    +0.000 N 
ATOM      2  C   UNL     1       1.989   7.297  19.875  0.00  0.00    +0.000 A 
ATOM      3  N   UNL     1       1.361   7.792  20.901  0.00  0.00    +0.000 NA
ATOM      4  C   UNL     1       0.894   9.124  20.826  0.00  0.00    +0.000 A 
ATOM      5  C   UNL     1       0.247   9.668  21.943  0.00  0.00    +0.000 A 
ATOM      6  C   UNL     1      -0.223  10.983  21.983  0.00  0.00    +0.000 A 
ATOM      7  C   UNL     1      -0.030  11.793  20.847  0.00  0.00    +0.000 A 
ATOM      8  C   UNL     1      -0.342  13.140  20.497  0.00  0.00    +0.000 A 
ATOM      9  C   UNL     1      -0.974  14.225  21.132  0.00  0.00    +0.000 A 
ATOM     10  C   UNL     1      -1.100  15.435  20.434  0.00  0.00    +0.000 A 
ATOM     11  C   UNL     1      -0.611  15.571  19.132  0.00  0.00    +0.000 A 
ATOM     12  C   UNL     1       0.022  14.506  18.484  0.00  0.00    +0.000 A 
ATOM     13  C   UNL     1       0.131  13.317  19.203  0.00  0.00    +0.000 A 
ATOM     14  O   UNL     1       0.708  12.175  18.746  0.00  0.00    +0.000 OA
ATOM     15  C   UNL     1       0.613  11.245  19.738  0.00  0.00    +0.000 A 
ATOM     16  C   UNL     1       1.075   9.929  19.702  0.00  0.00    +0.000 A 
ATOM     17  C   UNL     1       1.747   9.335  18.553  0.00  0.00    +0.000 A 
ATOM     18  O   UNL     1       1.967   9.933  17.504  0.00  0.00    +0.000 OA
ATOM     19  N   UNL     1       2.139   8.031  18.725  0.00  0.00    +0.000 N 
ATOM     20  H   UNL     1       2.589   7.621  17.927  0.00  0.00    +0.000 HD
ENDROOT
BRANCH   5  21
ATOM     21  O   UNL     1       0.071   8.885  23.055  0.00  0.00    +0.000 OA
ATOM     22  H   UNL     1       0.155   7.969  22.716  0.00  0.00    +0.000 HD
ENDBRANCH   5  21
BRANCH   1  23
ATOM     23  C   UNL     1       3.758   5.672  19.129  0.00  0.00    +0.000 C 
BRANCH  23  25
ATOM     24  C   UNL     1       3.982   3.588  17.618  0.00  0.00    +0.000 C 
ATOM     25  C   UNL     1       3.509   5.028  17.752  0.00  0.00    +0.000 C 
ENDBRANCH  23  25
ENDBRANCH   1  23
BRANCH   1  26
ATOM     26  C   UNL     1       2.056   5.014  20.842  0.00  0.00    +0.000 C 
BRANCH  26  27
ATOM     27  C   UNL     1       0.878   4.181  20.311  0.00  0.00    +0.000 C 
ATOM     28  C   UNL     1       1.200   2.721  20.012  0.00  0.00    +0.000 C 
ENDBRANCH  26  27
ENDBRANCH   1  26
TORSDOF 5
ENDMDL
MODEL 8
REMARK VINA RESULT:      -6.9      2.081      7.735
REMARK  Name = 
REMARK  7 active torsions:
REMARK  status: ('A' for Active; 'I' for Inactive)
REMARK    1  A    between atoms: C_1  and  C_2
REMARK    2  A    between atoms: C_2  and  C_3
REMARK    3  A    between atoms: C_3  and  N_4
REMARK    4  A    between atoms: N_4  and  C_5
REMARK    5  A    between atoms: C_5  and  C_6
REMARK    6  A    between atoms: C_6  and  C_7
REMARK    7  A    between atoms: C_11  and  O_12
REMARK                            x       y       z     vdW  Elec       q    Type
REMARK                         _______ _______ _______ _____ _____    ______ ____
ROOT
ATOM      1  N   UNL     1      -0.677  12.720  20.827  0.00  0.00    +0.000 N 
ATOM      2  C   UNL     1      -0.155  11.461  20.569  0.00  0.00    +0.000 A 
ATOM      3  N   UNL     1       0.560  11.203  19.513  0.00  0.00    +0.000 NA
ATOM      4  C   UNL     1       1.106   9.908  19.369  0.00  0.00    +0.000 A 
ATOM      5  C   UNL     1       1.902   9.641  18.248  0.00  0.00    +0.000 A 
ATOM      6  C   UNL     1       2.516   8.405  18.029  0.00  0.00    +0.000 A 
ATOM      7  C   UNL     1       2.324   7.388  18.985  0.00  0.00    +0.000 A 
ATOM      8  C   UNL     1       2.762   6.039  19.134  0.00  0.00    +0.000 A 
ATOM      9  C   UNL     1       3.566   5.154  18.393  0.00  0.00    +0.000 A 
ATOM     10  C   UNL     1       3.770   3.856  18.882  0.00  0.00    +0.000 A 
ATOM     11  C   UNL     1       3.190   3.439  20.083  0.00  0.00    +0.000 A 
ATOM     12  C   UNL     1       2.390   4.303  20.836  0.00  0.00    +0.000 A 
ATOM     13  C   UNL     1       2.205   5.586  20.323  0.00  0.00    +0.000 A 
ATOM     14  O   UNL     1       1.463   6.564  20.905  0.00  0.00    +0.000 OA
ATOM     15  C   UNL     1       1.528   7.661  20.098  0.00  0.00    +0.000 A 
ATOM     16  C   UNL     1       0.914   8.895  20.309  0.00  0.00    +0.000 A 
ATOM     17  C   UNL     1       0.077   9.200  21.462  0.00  0.00    +0.000 A 
ATOM     18  O   UNL     1      -0.172   8.399  22.357  0.00  0.00    +0.000 OA
ATOM     19  N   UNL     1      -0.420  10.479  21.491  0.00  0.00    +0.000 N 
ATOM     20  H   UNL     1      -1.007  10.682  22.279  0.00  0.00    +0.000 HD
ENDROOT
BRANCH   5  21
ATOM     21  O   UNL     1       2.102  10.634  17.324  0.00  0.00    +0.000 OA
ATOM     22  H   UNL     1       2.940  11.057  17.607  0.00  0.00    +0.000 HD
ENDBRANCH   5  21
BRANCH   1  23
ATOM     23  C   UNL     1      -0.865  13.247  22.192  0.00  0.00    +0.000 C 
BRANCH  23  25
ATOM     24  C   UNL     1      -2.983  12.331  23.355  0.00  0.00    +0.000 C 
ATOM     25  C   UNL     1      -2.330  13.482  22.603  0.00  0.00    +0.000 C 
ENDBRANCH  23  25
ENDBRANCH   1  23
BRANCH   1  26
ATOM     26  C   UNL     1      -0.848  13.689  19.729  0.00  0.00    +0.000 C 
BRANCH  26  27
ATOM     27  C   UNL     1       0.165  14.845  19.770  0.00  0.00    +0.000 C 
ATOM     28  C   UNL     1      -0.127  15.997  18.816  0.00  0.00    +0.000 C 
ENDBRANCH  26  27
ENDBRANCH   1  26
TORSDOF 5
ENDMDL
MODEL 9
REMARK VINA RESULT:      -6.8      1.771      2.488
REMARK  Name = 
REMARK  7 active torsions:
REMARK  status: ('A' for Active; 'I' for Inactive)
REMARK    1  A    between atoms: C_1  and  C_2
REMARK    2  A    between atoms: C_2  and  C_3
REMARK    3  A    between atoms: C_3  and  N_4
REMARK    4  A    between atoms: N_4  and  C_5
REMARK    5  A    between atoms: C_5  and  C_6
REMARK    6  A    between atoms: C_6  and  C_7
REMARK    7  A    between atoms: C_11  and  O_12
REMARK                            x       y       z     vdW  Elec       q    Type
REMARK                         _______ _______ _______ _____ _____    ______ ____
ROOT
ATOM      1  N   UNL     1       3.597   5.834  17.895  0.00  0.00    +0.000 N 
ATOM      2  C   UNL     1       2.913   6.830  18.574  0.00  0.00    +0.000 A 
ATOM      3  N   UNL     1       2.758   8.027  18.087  0.00  0.00    +0.000 NA
ATOM      4  C   UNL     1       1.987   8.957  18.821  0.00  0.00    +0.000 A 
ATOM      5  C   UNL     1       1.793  10.235  18.281  0.00  0.00    +0.000 A 
ATOM      6  C   UNL     1       1.021  11.217  18.909  0.00  0.00    +0.000 A 
ATOM      7  C   UNL     1       0.411  10.897  20.138  0.00  0.00    +0.000 A 
ATOM      8  C   UNL     1      -0.428  11.585  21.063  0.00  0.00    +0.000 A 
ATOM      9  C   UNL     1      -0.998  12.869  21.144  0.00  0.00    +0.000 A 
ATOM     10  C   UNL     1      -1.794  13.186  22.254  0.00  0.00    +0.000 A 
ATOM     11  C   UNL     1      -2.022  12.252  23.268  0.00  0.00    +0.000 A 
ATOM     12  C   UNL     1      -1.467  10.970  23.206  0.00  0.00    +0.000 A 
ATOM     13  C   UNL     1      -0.681  10.686  22.092  0.00  0.00    +0.000 A 
ATOM     14  O   UNL     1      -0.056   9.502  21.854  0.00  0.00    +0.000 OA
ATOM     15  C   UNL     1       0.610   9.623  20.671  0.00  0.00    +0.000 A 
ATOM     16  C   UNL     1       1.386   8.650  20.041  0.00  0.00    +0.000 A 
ATOM     17  C   UNL     1       1.609   7.315  20.581  0.00  0.00    +0.000 A 
ATOM     18  O   UNL     1       1.141   6.919  21.643  0.00  0.00    +0.000 OA
ATOM     19  N   UNL     1       2.390   6.500  19.799  0.00  0.00    +0.000 N 
ATOM     20  H   UNL     1       2.553   5.586  20.180  0.00  0.00    +0.000 HD
ENDROOT
BRANCH   5  21
ATOM     21  O   UNL     1       2.374  10.543  17.078  0.00  0.00    +0.000 OA
ATOM     22  H   UNL     1       2.180   9.765  16.514  0.00  0.00    +0.000 HD
ENDBRANCH   5  21
BRANCH   1  23
ATOM     23  C   UNL     1       3.252   4.404  18.007  0.00  0.00    +0.000 C 
BRANCH  23  25
ATOM     24  C   UNL     1       1.093   3.152  18.678  0.00  0.00    +0.000 C 
ATOM     25  C   UNL     1       1.788   4.060  17.674  0.00  0.00    +0.000 C 
ENDBRANCH  23  25
ENDBRANCH   1  23
BRANCH   1  26
ATOM     26  C   UNL     1       4.561   6.186  16.836  0.00  0.00    +0.000 C 
BRANCH  26  27
ATOM     27  C   UNL     1       5.107   4.966  16.076  0.00  0.00    +0.000 C 
ATOM     28  C   UNL     1       6.205   5.271  15.064  0.00  0.00    +0.000 C 
ENDBRANCH  26  27
ENDBRANCH   1  26
TORSDOF 5
ENDMDL
