MODEL 1
REMARK VINA RESULT:      -6.7      0.000      0.000
REMARK  Name = 
REMARK  5 active torsions:
REMARK  status: ('A' for Active; 'I' for Inactive)
REMARK    1  A    between atoms: C_1  and  O_2
REMARK    2  A    between atoms: O_2  and  N_3
REMARK    3  A    between atoms: C_4  and  C_5
REMARK    4  A    between atoms: C_4  and  C_7
REMARK    5  A    between atoms: C_13  and  C_14
REMARK                            x       y       z     vdW  Elec       q    Type
REMARK                         _______ _______ _______ _____ _____    ______ ____
ROOT
ATOM      1  C   UNL     1       4.194   3.610  17.986  0.00  0.00    +0.000 C 
ATOM      2  O   UNL     1       3.330   3.550  17.123  0.00  0.00    +0.000 OA
ATOM      3  N   UNL     1       5.509   3.996  17.803  0.00  0.00    +0.000 N 
ATOM      4  C   UNL     1       6.085   4.314  16.616  0.00  0.00    +0.000 C 
ATOM      5  N   UNL     1       7.337   4.595  16.548  0.00  0.00    +0.000 NA
ATOM      6  O   UNL     1       7.642   4.835  15.188  0.00  0.00    +0.000 OA
ATOM      7  C   UNL     1       6.430   4.802  14.411  0.00  0.00    +0.000 C 
ATOM      8  C   UNL     1       5.337   4.330  15.342  0.00  0.00    +0.000 C 
ATOM      9  H   UNL     1       6.123   4.002  18.611  0.00  0.00    +0.000 HD
ENDROOT
BRANCH   1  11
ATOM     10  N   UNL     1       2.808   3.800  19.972  0.00  0.00    +0.000 NA
ATOM     11  C   UNL     1       3.835   3.236  19.399  0.00  0.00    +0.000 C 
BRANCH  10  13
ATOM     12  C   UNL     1       1.324   2.768  21.405  0.00  0.00    +0.000 C 
ATOM     13  O   UNL     1       2.622   3.339  21.287  0.00  0.00    +0.000 OA
ENDBRANCH  10  13
BRANCH  11  14
ATOM     14  C   UNL     1       4.617   2.261  20.127  0.00  0.00    +0.000 C 
ATOM     15  N   UNL     1       5.236   1.476  20.722  0.00  0.00    +0.000 NA
ENDBRANCH  11  14
ENDBRANCH   1  11
BRANCH   7  16
ATOM     16  C   UNL     1       6.639   3.880  13.215  0.00  0.00    +0.000 C 
ATOM     17 CL   UNL     1       5.107   3.515  12.385  0.00  0.00    +0.000 Cl
ENDBRANCH   7  16
TORSDOF 4
ENDMDL
MODEL 2
REMARK VINA RESULT:      -6.6      3.107      6.338
REMARK  Name = 
REMARK  5 active torsions:
REMARK  status: ('A' for Active; 'I' for Inactive)
REMARK    1  A    between atoms: C_1  and  O_2
REMARK    2  A    between atoms: O_2  and  N_3
REMARK    3  A    between atoms: C_4  and  C_5
REMARK    4  A    between atoms: C_4  and  C_7
REMARK    5  A    between atoms: C_13  and  C_14
REMARK                            x       y       z     vdW  Elec       q    Type
REMARK                         _______ _______ _______ _____ _____    ______ ____
ROOT
ATOM      1  C   UNL     1       4.781   4.855  16.956  0.00  0.00    +0.000 C 
ATOM      2  O   UNL     1       4.108   5.864  17.110  0.00  0.00    +0.000 OA
ATOM      3  N   UNL     1       4.415   3.565  17.296  0.00  0.00    +0.000 N 
ATOM      4  C   UNL     1       3.265   3.205  17.919  0.00  0.00    +0.000 C 
ATOM      5  N   UNL     1       3.053   1.981  18.250  0.00  0.00    +0.000 NA
ATOM      6  O   UNL     1       1.805   1.935  18.914  0.00  0.00    +0.000 OA
ATOM      7  C   UNL     1       1.185   3.233  18.862  0.00  0.00    +0.000 C 
ATOM      8  C   UNL     1       2.212   4.176  18.281  0.00  0.00    +0.000 C 
ATOM      9  H   UNL     1       5.074   2.816  17.110  0.00  0.00    +0.000 HD
ENDROOT
BRANCH   1  11
ATOM     10  N   UNL     1       6.273   5.497  15.149  0.00  0.00    +0.000 NA
ATOM     11  C   UNL     1       6.149   4.984  16.343  0.00  0.00    +0.000 C 
BRANCH  10  13
ATOM     12  C   UNL     1       7.699   5.095  13.382  0.00  0.00    +0.000 C 
ATOM     13  O   UNL     1       7.615   5.536  14.732  0.00  0.00    +0.000 OA
ENDBRANCH  10  13
BRANCH  11  14
ATOM     14  C   UNL     1       7.326   4.542  17.059  0.00  0.00    +0.000 C 
ATOM     15  N   UNL     1       8.280   4.194  17.626  0.00  0.00    +0.000 NA
ENDBRANCH  11  14
ENDBRANCH   1  11
BRANCH   7  16
ATOM     16  C   UNL     1       0.741   3.621  20.268  0.00  0.00    +0.000 C 
ATOM     17 CL   UNL     1       1.548   2.636  21.512  0.00  0.00    +0.000 Cl
ENDBRANCH   7  16
TORSDOF 4
ENDMDL
MODEL 3
REMARK VINA RESULT:      -6.5      3.724      4.807
REMARK  Name = 
REMARK  5 active torsions:
REMARK  status: ('A' for Active; 'I' for Inactive)
REMARK    1  A    between atoms: C_1  and  O_2
REMARK    2  A    between atoms: O_2  and  N_3
REMARK    3  A    between atoms: C_4  and  C_5
REMARK    4  A    between atoms: C_4  and  C_7
REMARK    5  A    between atoms: C_13  and  C_14
REMARK                            x       y       z     vdW  Elec       q    Type
REMARK                         _______ _______ _______ _____ _____    ______ ____
ROOT
ATOM      1  C   UNL     1       6.691   5.480  16.281  0.00  0.00    +0.000 C 
ATOM      2  O   UNL     1       5.710   4.780  16.482  0.00  0.00    +0.000 OA
ATOM      3  N   UNL     1       7.350   5.642  15.076  0.00  0.00    +0.000 N 
ATOM      4  C   UNL     1       7.057   4.997  13.919  0.00  0.00    +0.000 C 
ATOM      5  N   UNL     1       7.778   5.172  12.869  0.00  0.00    +0.000 NA
ATOM      6  O   UNL     1       7.252   4.339  11.854  0.00  0.00    +0.000 OA
ATOM      7  C   UNL     1       6.045   3.710  12.326  0.00  0.00    +0.000 C 
ATOM      8  C   UNL     1       5.932   4.048  13.794  0.00  0.00    +0.000 C 
ATOM      9  H   UNL     1       8.155   6.259  15.050  0.00  0.00    +0.000 HD
ENDROOT
BRANCH   1  11
ATOM     10  N   UNL     1       7.769   7.447  17.215  0.00  0.00    +0.000 NA
ATOM     11  C   UNL     1       7.273   6.260  17.430  0.00  0.00    +0.000 C 
BRANCH  10  13
ATOM     12  C   UNL     1       8.433   9.426  18.196  0.00  0.00    +0.000 C 
ATOM     13  O   UNL     1       8.271   8.027  18.394  0.00  0.00    +0.000 OA
ENDBRANCH  10  13
BRANCH  11  14
ATOM     14  C   UNL     1       7.291   5.706  18.766  0.00  0.00    +0.000 C 
ATOM     15  N   UNL     1       7.312   5.272  19.845  0.00  0.00    +0.000 NA
ENDBRANCH  11  14
ENDBRANCH   1  11
BRANCH   7  16
ATOM     16  C   UNL     1       6.137   2.212  12.060  0.00  0.00    +0.000 C 
ATOM     17 CL   UNL     1       7.518   1.810  11.010  0.00  0.00    +0.000 Cl
ENDBRANCH   7  16
TORSDOF 4
ENDMDL
MODEL 4
REMARK VINA RESULT:      -6.5      3.389      6.080
REMARK  Name = 
REMARK  5 active torsions:
REMARK  status: ('A' for Active; 'I' for Inactive)
REMARK    1  A    between atoms: C_1  and  O_2
REMARK    2  A    between atoms: O_2  and  N_3
REMARK    3  A    between atoms: C_4  and  C_5
REMARK    4  A    between atoms: C_4  and  C_7
REMARK    5  A    between atoms: C_13  and  C_14
REMARK                            x       y       z     vdW  Elec       q    Type
REMARK                         _______ _______ _______ _____ _____    ______ ____
ROOT
ATOM      1  C   UNL     1       4.704   5.429  17.570  0.00  0.00    +0.000 C 
ATOM      2  O   UNL     1       3.779   6.228  17.593  0.00  0.00    +0.000 OA
ATOM      3  N   UNL     1       4.613   4.064  17.771  0.00  0.00    +0.000 N 
ATOM      4  C   UNL     1       3.485   3.383  18.093  0.00  0.00    +0.000 C 
ATOM      5  N   UNL     1       3.524   2.119  18.324  0.00  0.00    +0.000 NA
ATOM      6  O   UNL     1       2.215   1.714  18.674  0.00  0.00    +0.000 OA
ATOM      7  C   UNL     1       1.311   2.824  18.520  0.00  0.00    +0.000 C 
ATOM      8  C   UNL     1       2.166   4.035  18.228  0.00  0.00    +0.000 C 
ATOM      9  H   UNL     1       5.465   3.515  17.721  0.00  0.00    +0.000 HD
ENDROOT
BRANCH   1  11
ATOM     10  N   UNL     1       6.282   7.210  17.081  0.00  0.00    +0.000 NA
ATOM     11  C   UNL     1       6.094   5.938  17.300  0.00  0.00    +0.000 C 
BRANCH  10  13
ATOM     12  C   UNL     1       8.026   8.603  17.662  0.00  0.00    +0.000 C 
ATOM     13  O   UNL     1       7.635   7.508  16.843  0.00  0.00    +0.000 OA
ENDBRANCH  10  13
BRANCH  11  14
ATOM     14  C   UNL     1       7.223   5.032  17.278  0.00  0.00    +0.000 C 
ATOM     15  N   UNL     1       8.131   4.307  17.246  0.00  0.00    +0.000 NA
ENDBRANCH  11  14
ENDBRANCH   1  11
BRANCH   7  16
ATOM     16  C   UNL     1       0.486   2.965  19.793  0.00  0.00    +0.000 C 
ATOM     17 CL   UNL     1       1.511   2.974  21.249  0.00  0.00    +0.000 Cl
ENDBRANCH   7  16
TORSDOF 4
ENDMDL
MODEL 5
REMARK VINA RESULT:      -6.3      3.373      5.847
REMARK  Name = 
REMARK  5 active torsions:
REMARK  status: ('A' for Active; 'I' for Inactive)
REMARK    1  A    between atoms: C_1  and  O_2
REMARK    2  A    between atoms: O_2  and  N_3
REMARK    3  A    between atoms: C_4  and  C_5
REMARK    4  A    between atoms: C_4  and  C_7
REMARK    5  A    between atoms: C_13  and  C_14
REMARK                            x       y       z     vdW  Elec       q    Type
REMARK                         _______ _______ _______ _____ _____    ______ ____
ROOT
ATOM      1  C   UNL     1       5.160   5.267  17.593  0.00  0.00    +0.000 C 
ATOM      2  O   UNL     1       4.260   5.745  16.919  0.00  0.00    +0.000 OA
ATOM      3  N   UNL     1       5.118   4.073  18.289  0.00  0.00    +0.000 N 
ATOM      4  C   UNL     1       4.042   3.253  18.393  0.00  0.00    +0.000 C 
ATOM      5  N   UNL     1       4.091   2.196  19.122  0.00  0.00    +0.000 NA
ATOM      6  O   UNL     1       2.817   1.585  19.064  0.00  0.00    +0.000 OA
ATOM      7  C   UNL     1       1.988   2.293  18.122  0.00  0.00    +0.000 C 
ATOM      8  C   UNL     1       2.758   3.527  17.717  0.00  0.00    +0.000 C 
ATOM      9  H   UNL     1       5.943   3.793  18.809  0.00  0.00    +0.000 HD
ENDROOT
BRANCH   1  11
ATOM     10  N   UNL     1       6.686   7.033  16.916  0.00  0.00    +0.000 NA
ATOM     11  C   UNL     1       6.459   6.020  17.706  0.00  0.00    +0.000 C 
BRANCH  10  13
ATOM     12  C   UNL     1       7.764   8.911  17.710  0.00  0.00    +0.000 C 
ATOM     13  O   UNL     1       7.944   7.613  17.154  0.00  0.00    +0.000 OA
ENDBRANCH  10  13
BRANCH  11  14
ATOM     14  C   UNL     1       7.458   5.631  18.678  0.00  0.00    +0.000 C 
ATOM     15  N   UNL     1       8.251   5.320  19.470  0.00  0.00    +0.000 NA
ENDBRANCH  11  14
ENDBRANCH   1  11
BRANCH   7  16
ATOM     16  C   UNL     1       0.653   2.609  18.786  0.00  0.00    +0.000 C 
ATOM     17 CL   UNL     1       0.860   3.608  20.246  0.00  0.00    +0.000 Cl
ENDBRANCH   7  16
TORSDOF 4
ENDMDL
MODEL 6
REMARK VINA RESULT:      -6.3      3.193      6.426
REMARK  Name = 
REMARK  5 active torsions:
REMARK  status: ('A' for Active; 'I' for Inactive)
REMARK    1  A    between atoms: C_1  and  O_2
REMARK    2  A    between atoms: O_2  and  N_3
REMARK    3  A    between atoms: C_4  and  C_5
REMARK    4  A    between atoms: C_4  and  C_7
REMARK    5  A    between atoms: C_13  and  C_14
REMARK                            x       y       z     vdW  Elec       q    Type
REMARK                         _______ _______ _______ _____ _____    ______ ____
ROOT
ATOM      1  C   UNL     1       4.558   4.476  17.344  0.00  0.00    +0.000 C 
ATOM      2  O   UNL     1       4.592   5.314  18.234  0.00  0.00    +0.000 OA
ATOM      3  N   UNL     1       3.587   3.507  17.167  0.00  0.00    +0.000 N 
ATOM      4  C   UNL     1       2.536   3.278  17.993  0.00  0.00    +0.000 C 
ATOM      5  N   UNL     1       1.727   2.304  17.770  0.00  0.00    +0.000 NA
ATOM      6  O   UNL     1       0.776   2.299  18.818  0.00  0.00    +0.000 OA
ATOM      7  C   UNL     1       0.986   3.447  19.663  0.00  0.00    +0.000 C 
ATOM      8  C   UNL     1       2.269   4.093  19.195  0.00  0.00    +0.000 C 
ATOM      9  H   UNL     1       3.681   2.874  16.380  0.00  0.00    +0.000 HD
ENDROOT
BRANCH   1  11
ATOM     10  N   UNL     1       5.358   4.494  15.050  0.00  0.00    +0.000 NA
ATOM     11  C   UNL     1       5.660   4.463  16.319  0.00  0.00    +0.000 C 
BRANCH  10  13
ATOM     12  C   UNL     1       6.236   3.708  13.067  0.00  0.00    +0.000 C 
ATOM     13  O   UNL     1       6.506   4.470  14.238  0.00  0.00    +0.000 OA
ENDBRANCH  10  13
BRANCH  11  14
ATOM     14  C   UNL     1       7.048   4.411  16.725  0.00  0.00    +0.000 C 
ATOM     15  N   UNL     1       8.166   4.361  17.041  0.00  0.00    +0.000 NA
ENDBRANCH  11  14
ENDBRANCH   1  11
BRANCH   7  16
ATOM     16  C   UNL     1       1.041   2.983  21.114  0.00  0.00    +0.000 C 
ATOM     17 CL   UNL     1       2.709   2.640  21.636  0.00  0.00    +0.000 Cl
ENDBRANCH   7  16
TORSDOF 4
ENDMDL
MODEL 7
REMARK VINA RESULT:      -6.2      2.986      6.115
REMARK  Name = 
REMARK  5 active torsions:
REMARK  status: ('A' for Active; 'I' for Inactive)
REMARK    1  A    between atoms: C_1  and  O_2
REMARK    2  A    between atoms: O_2  and  N_3
REMARK    3  A    between atoms: C_4  and  C_5
REMARK    4  A    between atoms: C_4  and  C_7
REMARK    5  A    between atoms: C_13  and  C_14
REMARK                            x       y       z     vdW  Elec       q    Type
REMARK                         _______ _______ _______ _____ _____    ______ ____
ROOT
ATOM      1  C   UNL     1       5.241   4.486  16.753  0.00  0.00    +0.000 C 
ATOM      2  O   UNL     1       4.454   4.206  15.860  0.00  0.00    +0.000 OA
ATOM      3  N   UNL     1       5.191   4.038  18.060  0.00  0.00    +0.000 N 
ATOM      4  C   UNL     1       4.219   3.257  18.594  0.00  0.00    +0.000 C 
ATOM      5  N   UNL     1       4.234   2.952  19.843  0.00  0.00    +0.000 NA
ATOM      6  O   UNL     1       3.079   2.177  20.100  0.00  0.00    +0.000 OA
ATOM      7  C   UNL     1       2.392   1.913  18.863  0.00  0.00    +0.000 C 
ATOM      8  C   UNL     1       3.083   2.739  17.804  0.00  0.00    +0.000 C 
ATOM      9  H   UNL     1       5.914   4.349  18.701  0.00  0.00    +0.000 HD
ENDROOT
BRANCH   1  11
ATOM     10  N   UNL     1       6.768   6.286  17.330  0.00  0.00    +0.000 NA
ATOM     11  C   UNL     1       6.391   5.406  16.443  0.00  0.00    +0.000 C 
BRANCH  10  13
ATOM     12  C   UNL     1       7.899   8.276  17.613  0.00  0.00    +0.000 C 
ATOM     13  O   UNL     1       7.848   7.062  16.873  0.00  0.00    +0.000 OA
ENDBRANCH  10  13
BRANCH  11  14
ATOM     14  C   UNL     1       7.080   5.328  15.173  0.00  0.00    +0.000 C 
ATOM     15  N   UNL     1       7.625   5.276  14.147  0.00  0.00    +0.000 NA
ENDBRANCH  11  14
ENDBRANCH   1  11
BRANCH   7  16
ATOM     16  C   UNL     1       0.919   2.267  19.035  0.00  0.00    +0.000 C 
ATOM     17 CL   UNL     1       0.696   3.652  20.132  0.00  0.00    +0.000 Cl
ENDBRANCH   7  16
TORSDOF 4
ENDMDL
MODEL 8
REMARK VINA RESULT:      -6.2      1.670      2.343
REMARK  Name = 
REMARK  5 active torsions:
REMARK  status: ('A' for Active; 'I' for Inactive)
REMARK    1  A    between atoms: C_1  and  O_2
REMARK    2  A    between atoms: O_2  and  N_3
REMARK    3  A    between atoms: C_4  and  C_5
REMARK    4  A    between atoms: C_4  and  C_7
REMARK    5  A    between atoms: C_13  and  C_14
REMARK                            x       y       z     vdW  Elec       q    Type
REMARK                         _______ _______ _______ _____ _____    ______ ____
ROOT
ATOM      1  C   UNL     1       4.613   3.051  18.978  0.00  0.00    +0.000 C 
ATOM      2  O   UNL     1       3.752   2.908  18.122  0.00  0.00    +0.000 OA
ATOM      3  N   UNL     1       5.764   3.809  18.865  0.00  0.00    +0.000 N 
ATOM      4  C   UNL     1       6.169   4.476  17.756  0.00  0.00    +0.000 C 
ATOM      5  N   UNL     1       7.293   5.098  17.737  0.00  0.00    +0.000 NA
ATOM      6  O   UNL     1       7.449   5.649  16.444  0.00  0.00    +0.000 OA
ATOM      7  C   UNL     1       6.250   5.422  15.678  0.00  0.00    +0.000 C 
ATOM      8  C   UNL     1       5.377   4.511  16.509  0.00  0.00    +0.000 C 
ATOM      9  H   UNL     1       6.396   3.841  19.659  0.00  0.00    +0.000 HD
ENDROOT
BRANCH   1  11
ATOM     10  N   UNL     1       5.376   1.538  20.720  0.00  0.00    +0.000 NA
ATOM     11  C   UNL     1       4.445   2.349  20.299  0.00  0.00    +0.000 C 
BRANCH  10  13
ATOM     12  C   UNL     1       6.057   0.026  22.323  0.00  0.00    +0.000 C 
ATOM     13  O   UNL     1       5.053   0.968  21.963  0.00  0.00    +0.000 OA
ENDBRANCH  10  13
BRANCH  11  14
ATOM     14  C   UNL     1       3.261   2.561  21.104  0.00  0.00    +0.000 C 
ATOM     15  N   UNL     1       2.307   2.717  21.751  0.00  0.00    +0.000 NA
ENDBRANCH  11  14
ENDBRANCH   1  11
BRANCH   7  16
ATOM     16  C   UNL     1       6.636   4.819  14.332  0.00  0.00    +0.000 C 
ATOM     17 CL   UNL     1       5.286   3.918  13.599  0.00  0.00    +0.000 Cl
ENDBRANCH   7  16
TORSDOF 4
ENDMDL
MODEL 9
REMARK VINA RESULT:      -6.2      3.220      6.480
REMARK  Name = 
REMARK  5 active torsions:
REMARK  status: ('A' for Active; 'I' for Inactive)
REMARK    1  A    between atoms: C_1  and  O_2
REMARK    2  A    between atoms: O_2  and  N_3
REMARK    3  A    between atoms: C_4  and  C_5
REMARK    4  A    between atoms: C_4  and  C_7
REMARK    5  A    between atoms: C_13  and  C_14
REMARK                            x       y       z     vdW  Elec       q    Type
REMARK                         _______ _______ _______ _____ _____    ______ ____
ROOT
ATOM      1  C   UNL     1       4.861   5.157  17.898  0.00  0.00    +0.000 C 
ATOM      2  O   UNL     1       4.850   5.746  18.970  0.00  0.00    +0.000 OA
ATOM      3  N   UNL     1       3.884   4.301  17.424  0.00  0.00    +0.000 N 
ATOM      4  C   UNL     1       2.772   3.915  18.098  0.00  0.00    +0.000 C 
ATOM      5  N   UNL     1       1.959   3.059  17.589  0.00  0.00    +0.000 NA
ATOM      6  O   UNL     1       0.937   2.833  18.540  0.00  0.00    +0.000 OA
ATOM      7  C   UNL     1       1.111   3.726  19.655  0.00  0.00    +0.000 C 
ATOM      8  C   UNL     1       2.438   4.418  19.447  0.00  0.00    +0.000 C 
ATOM      9  H   UNL     1       4.020   3.879  16.512  0.00  0.00    +0.000 HD
ENDROOT
BRANCH   1  11
ATOM     10  N   UNL     1       6.301   4.449  16.074  0.00  0.00    +0.000 NA
ATOM     11  C   UNL     1       6.033   5.354  16.974  0.00  0.00    +0.000 C 
BRANCH  10  13
ATOM     12  C   UNL     1       7.083   4.753  13.925  0.00  0.00    +0.000 C 
ATOM     13  O   UNL     1       7.427   4.792  15.305  0.00  0.00    +0.000 OA
ENDBRANCH  10  13
BRANCH  11  14
ATOM     14  C   UNL     1       6.866   6.533  17.078  0.00  0.00    +0.000 C 
ATOM     15  N   UNL     1       7.547   7.472  17.157  0.00  0.00    +0.000 NA
ENDBRANCH  11  14
ENDBRANCH   1  11
BRANCH   7  16
ATOM     16  C   UNL     1       1.053   2.916  20.945  0.00  0.00    +0.000 C 
ATOM     17 CL   UNL     1       2.675   2.627  21.619  0.00  0.00    +0.000 Cl
ENDBRANCH   7  16
TORSDOF 4
ENDMDL
