MODEL 1
REMARK VINA RESULT:      -6.3      0.000      0.000
REMARK  Name = 
REMARK  3 active torsions:
REMARK  status: ('A' for Active; 'I' for Inactive)
REMARK    1  A    between atoms: N_1  and  C_2
REMARK    2  A    between atoms: C_2  and  C_3
REMARK    3  A    between atoms: C_13  and  O_14
REMARK                            x       y       z     vdW  Elec       q    Type
REMARK                         _______ _______ _______ _____ _____    ______ ____
ROOT
ATOM      1  C   UNL     1       3.154   3.781  19.647  0.00  0.00    +0.000 A 
ATOM      2  C   UNL     1       2.564   4.973  19.202  0.00  0.00    +0.000 A 
ATOM      3  C   UNL     1       3.305   5.927  18.498  0.00  0.00    +0.000 A 
ATOM      4 CL   UNL     1       2.475   7.387  17.964  0.00  0.00    +0.000 Cl
ATOM      5  C   UNL     1       4.673   5.705  18.246  0.00  0.00    +0.000 A 
ATOM      6  C   UNL     1       5.472   6.643  17.567  0.00  0.00    +0.000 A 
ATOM      7  C   UNL     1       6.827   6.387  17.355  0.00  0.00    +0.000 A 
ATOM      8  C   UNL     1       7.379   5.191  17.810  0.00  0.00    +0.000 A 
ATOM      9  N   UNL     1       6.599   4.286  18.456  0.00  0.00    +0.000 NA
ATOM     10  C   UNL     1       5.274   4.503  18.688  0.00  0.00    +0.000 A 
ATOM     11  C   UNL     1       4.517   3.538  19.378  0.00  0.00    +0.000 A 
ENDROOT
BRANCH  11  12
ATOM     12  O   UNL     1       5.093   2.388  19.804  0.00  0.00    +0.000 OA
ATOM     13  H   UNL     1       4.747   1.512  19.595  0.00  0.00    +0.000 HD
ENDBRANCH  11  12
BRANCH   1  14
ATOM     14  C   UNL     1       2.330   2.775  20.417  0.00  0.00    +0.000 C 
BRANCH  14  15
ATOM     15  N   UNL     1       2.757   2.694  21.811  0.00  0.00    +0.000 NA
ATOM     16  H   UNL     1       1.972   3.037  22.413  0.00  0.00    +0.000 HD
ATOM     17  H   UNL     1       3.584   3.309  21.977  0.00  0.00    +0.000 HD
ENDBRANCH  14  15
ENDBRANCH   1  14
TORSDOF 3
ENDMDL
MODEL 2
REMARK VINA RESULT:      -6.2      2.189      4.407
REMARK  Name = 
REMARK  3 active torsions:
REMARK  status: ('A' for Active; 'I' for Inactive)
REMARK    1  A    between atoms: N_1  and  C_2
REMARK    2  A    between atoms: C_2  and  C_3
REMARK    3  A    between atoms: C_13  and  O_14
REMARK                            x       y       z     vdW  Elec       q    Type
REMARK                         _______ _______ _______ _____ _____    ______ ____
ROOT
ATOM      1  C   UNL     1       5.678   5.990  17.211  0.00  0.00    +0.000 A 
ATOM      2  C   UNL     1       4.675   6.937  17.464  0.00  0.00    +0.000 A 
ATOM      3  C   UNL     1       3.371   6.543  17.775  0.00  0.00    +0.000 A 
ATOM      4 CL   UNL     1       2.181   7.803  18.094  0.00  0.00    +0.000 Cl
ATOM      5  C   UNL     1       3.044   5.173  17.814  0.00  0.00    +0.000 A 
ATOM      6  C   UNL     1       1.741   4.721  18.094  0.00  0.00    +0.000 A 
ATOM      7  C   UNL     1       1.460   3.354  18.106  0.00  0.00    +0.000 A 
ATOM      8  C   UNL     1       2.482   2.442  17.851  0.00  0.00    +0.000 A 
ATOM      9  N   UNL     1       3.740   2.885  17.592  0.00  0.00    +0.000 NA
ATOM     10  C   UNL     1       4.051   4.212  17.565  0.00  0.00    +0.000 A 
ATOM     11  C   UNL     1       5.367   4.616  17.273  0.00  0.00    +0.000 A 
ENDROOT
BRANCH  11  12
ATOM     12  O   UNL     1       6.331   3.696  17.031  0.00  0.00    +0.000 OA
ATOM     13  H   UNL     1       6.178   2.887  16.527  0.00  0.00    +0.000 HD
ENDBRANCH  11  12
BRANCH   1  14
ATOM     14  C   UNL     1       7.076   6.448  16.865  0.00  0.00    +0.000 C 
BRANCH  14  15
ATOM     15  N   UNL     1       7.522   5.881  15.595  0.00  0.00    +0.000 NA
ATOM     16  H   UNL     1       6.859   5.116  15.329  0.00  0.00    +0.000 HD
ATOM     17  H   UNL     1       8.474   5.464  15.695  0.00  0.00    +0.000 HD
ENDBRANCH  14  15
ENDBRANCH   1  14
TORSDOF 3
ENDMDL
MODEL 3
REMARK VINA RESULT:      -6.2      2.299      2.440
REMARK  Name = 
REMARK  3 active torsions:
REMARK  status: ('A' for Active; 'I' for Inactive)
REMARK    1  A    between atoms: N_1  and  C_2
REMARK    2  A    between atoms: C_2  and  C_3
REMARK    3  A    between atoms: C_13  and  O_14
REMARK                            x       y       z     vdW  Elec       q    Type
REMARK                         _______ _______ _______ _____ _____    ______ ____
ROOT
ATOM      1  C   UNL     1       4.201   3.302  17.792  0.00  0.00    +0.000 A 
ATOM      2  C   UNL     1       4.282   4.004  16.580  0.00  0.00    +0.000 A 
ATOM      3  C   UNL     1       5.227   5.018  16.395  0.00  0.00    +0.000 A 
ATOM      4 CL   UNL     1       5.266   5.834  14.833  0.00  0.00    +0.000 Cl
ATOM      5  C   UNL     1       6.102   5.361  17.445  0.00  0.00    +0.000 A 
ATOM      6  C   UNL     1       7.052   6.392  17.322  0.00  0.00    +0.000 A 
ATOM      7  C   UNL     1       7.886   6.707  18.395  0.00  0.00    +0.000 A 
ATOM      8  C   UNL     1       7.778   5.987  19.583  0.00  0.00    +0.000 A 
ATOM      9  N   UNL     1       6.865   4.988  19.691  0.00  0.00    +0.000 NA
ATOM     10  C   UNL     1       6.029   4.654  18.668  0.00  0.00    +0.000 A 
ATOM     11  C   UNL     1       5.089   3.621  18.840  0.00  0.00    +0.000 A 
ENDROOT
BRANCH  11  12
ATOM     12  O   UNL     1       5.016   2.946  20.013  0.00  0.00    +0.000 OA
ATOM     13  H   UNL     1       5.783   2.556  20.449  0.00  0.00    +0.000 HD
ENDBRANCH  11  12
BRANCH   1  14
ATOM     14  C   UNL     1       3.160   2.220  17.967  0.00  0.00    +0.000 C 
BRANCH  14  15
ATOM     15  N   UNL     1       3.777   0.936  18.288  0.00  0.00    +0.000 NA
ATOM     16  H   UNL     1       3.718   0.796  19.324  0.00  0.00    +0.000 HD
ATOM     17  H   UNL     1       4.786   0.938  18.020  0.00  0.00    +0.000 HD
ENDBRANCH  14  15
ENDBRANCH   1  14
TORSDOF 3
ENDMDL
MODEL 4
REMARK VINA RESULT:      -6.1      1.490      4.212
REMARK  Name = 
REMARK  3 active torsions:
REMARK  status: ('A' for Active; 'I' for Inactive)
REMARK    1  A    between atoms: N_1  and  C_2
REMARK    2  A    between atoms: C_2  and  C_3
REMARK    3  A    between atoms: C_13  and  O_14
REMARK                            x       y       z     vdW  Elec       q    Type
REMARK                         _______ _______ _______ _____ _____    ______ ____
ROOT
ATOM      1  C   UNL     1       5.776   6.070  17.583  0.00  0.00    +0.000 A 
ATOM      2  C   UNL     1       4.690   6.949  17.462  0.00  0.00    +0.000 A 
ATOM      3  C   UNL     1       3.454   6.654  18.046  0.00  0.00    +0.000 A 
ATOM      4 CL   UNL     1       2.151   7.825  17.857  0.00  0.00    +0.000 Cl
ATOM      5  C   UNL     1       3.283   5.446  18.751  0.00  0.00    +0.000 A 
ATOM      6  C   UNL     1       2.054   5.086  19.335  0.00  0.00    +0.000 A 
ATOM      7  C   UNL     1       1.927   3.872  20.009  0.00  0.00    +0.000 A 
ATOM      8  C   UNL     1       3.029   3.025  20.110  0.00  0.00    +0.000 A 
ATOM      9  N   UNL     1       4.214   3.382  19.553  0.00  0.00    +0.000 NA
ATOM     10  C   UNL     1       4.376   4.557  18.881  0.00  0.00    +0.000 A 
ATOM     11  C   UNL     1       5.622   4.870  18.308  0.00  0.00    +0.000 A 
ENDROOT
BRANCH  11  12
ATOM     12  O   UNL     1       6.668   4.018  18.428  0.00  0.00    +0.000 OA
ATOM     13  H   UNL     1       7.542   4.289  18.733  0.00  0.00    +0.000 HD
ENDBRANCH  11  12
BRANCH   1  14
ATOM     14  C   UNL     1       7.095   6.410  16.929  0.00  0.00    +0.000 C 
BRANCH  14  15
ATOM     15  N   UNL     1       7.346   5.563  15.766  0.00  0.00    +0.000 NA
ATOM     16  H   UNL     1       8.377   5.387  15.708  0.00  0.00    +0.000 HD
ATOM     17  H   UNL     1       7.051   6.047  14.890  0.00  0.00    +0.000 HD
ENDBRANCH  14  15
ENDBRANCH   1  14
TORSDOF 3
ENDMDL
MODEL 5
REMARK VINA RESULT:      -6.1      1.757      4.299
REMARK  Name = 
REMARK  3 active torsions:
REMARK  status: ('A' for Active; 'I' for Inactive)
REMARK    1  A    between atoms: N_1  and  C_2
REMARK    2  A    between atoms: C_2  and  C_3
REMARK    3  A    between atoms: C_13  and  O_14
REMARK                            x       y       z     vdW  Elec       q    Type
REMARK                         _______ _______ _______ _____ _____    ______ ____
ROOT
ATOM      1  C   UNL     1       4.393   4.643  17.113  0.00  0.00    +0.000 A 
ATOM      2  C   UNL     1       3.864   5.888  17.485  0.00  0.00    +0.000 A 
ATOM      3  C   UNL     1       2.940   5.997  18.528  0.00  0.00    +0.000 A 
ATOM      4 CL   UNL     1       2.342   7.604  18.936  0.00  0.00    +0.000 Cl
ATOM      5  C   UNL     1       2.510   4.840  19.208  0.00  0.00    +0.000 A 
ATOM      6  C   UNL     1       1.561   4.889  20.245  0.00  0.00    +0.000 A 
ATOM      7  C   UNL     1       1.154   3.714  20.879  0.00  0.00    +0.000 A 
ATOM      8  C   UNL     1       1.702   2.496  20.483  0.00  0.00    +0.000 A 
ATOM      9  N   UNL     1       2.625   2.457  19.487  0.00  0.00    +0.000 NA
ATOM     10  C   UNL     1       3.043   3.582  18.841  0.00  0.00    +0.000 A 
ATOM     11  C   UNL     1       3.989   3.482  17.804  0.00  0.00    +0.000 A 
ENDROOT
BRANCH  11  12
ATOM     12  O   UNL     1       4.497   2.277  17.450  0.00  0.00    +0.000 OA
ATOM     13  H   UNL     1       5.130   2.158  16.732  0.00  0.00    +0.000 HD
ENDBRANCH  11  12
BRANCH   1  14
ATOM     14  C   UNL     1       5.382   4.556  15.973  0.00  0.00    +0.000 C 
BRANCH  14  15
ATOM     15  N   UNL     1       6.670   4.039  16.425  0.00  0.00    +0.000 NA
ATOM     16  H   UNL     1       6.939   3.242  15.801  0.00  0.00    +0.000 HD
ATOM     17  H   UNL     1       6.597   3.675  17.401  0.00  0.00    +0.000 HD
ENDBRANCH  14  15
ENDBRANCH   1  14
TORSDOF 3
ENDMDL
MODEL 6
REMARK VINA RESULT:      -6.0      1.164      4.002
REMARK  Name = 
REMARK  3 active torsions:
REMARK  status: ('A' for Active; 'I' for Inactive)
REMARK    1  A    between atoms: N_1  and  C_2
REMARK    2  A    between atoms: C_2  and  C_3
REMARK    3  A    between atoms: C_13  and  O_14
REMARK                            x       y       z     vdW  Elec       q    Type
REMARK                         _______ _______ _______ _____ _____    ______ ____
ROOT
ATOM      1  C   UNL     1       5.416   4.986  17.916  0.00  0.00    +0.000 A 
ATOM      2  C   UNL     1       4.764   6.183  17.585  0.00  0.00    +0.000 A 
ATOM      3  C   UNL     1       3.567   6.550  18.205  0.00  0.00    +0.000 A 
ATOM      4 CL   UNL     1       2.828   8.079  17.738  0.00  0.00    +0.000 Cl
ATOM      5  C   UNL     1       2.986   5.697  19.166  0.00  0.00    +0.000 A 
ATOM      6  C   UNL     1       1.768   6.003  19.801  0.00  0.00    +0.000 A 
ATOM      7  C   UNL     1       1.223   5.120  20.734  0.00  0.00    +0.000 A 
ATOM      8  C   UNL     1       1.899   3.940  21.039  0.00  0.00    +0.000 A 
ATOM      9  N   UNL     1       3.079   3.656  20.429  0.00  0.00    +0.000 NA
ATOM     10  C   UNL     1       3.640   4.490  19.508  0.00  0.00    +0.000 A 
ATOM     11  C   UNL     1       4.856   4.138  18.893  0.00  0.00    +0.000 A 
ENDROOT
BRANCH  11  12
ATOM     12  O   UNL     1       5.481   2.981  19.219  0.00  0.00    +0.000 OA
ATOM     13  H   UNL     1       6.386   2.775  18.957  0.00  0.00    +0.000 HD
ENDBRANCH  11  12
BRANCH   1  14
ATOM     14  C   UNL     1       6.703   4.611  17.217  0.00  0.00    +0.000 C 
BRANCH  14  15
ATOM     15  N   UNL     1       7.769   4.340  18.177  0.00  0.00    +0.000 NA
ATOM     16  H   UNL     1       7.582   3.409  18.617  0.00  0.00    +0.000 HD
ATOM     17  H   UNL     1       7.772   5.060  18.934  0.00  0.00    +0.000 HD
ENDBRANCH  14  15
ENDBRANCH   1  14
TORSDOF 3
ENDMDL
MODEL 7
REMARK VINA RESULT:      -6.0      1.884      1.884
REMARK  Name = 
REMARK  3 active torsions:
REMARK  status: ('A' for Active; 'I' for Inactive)
REMARK    1  A    between atoms: N_1  and  C_2
REMARK    2  A    between atoms: C_2  and  C_3
REMARK    3  A    between atoms: C_13  and  O_14
REMARK                            x       y       z     vdW  Elec       q    Type
REMARK                         _______ _______ _______ _____ _____    ______ ____
ROOT
ATOM      1  C   UNL     1       2.716   3.621  18.686  0.00  0.00    +0.000 A 
ATOM      2  C   UNL     1       2.461   5.000  18.713  0.00  0.00    +0.000 A 
ATOM      3  C   UNL     1       3.197   5.887  17.922  0.00  0.00    +0.000 A 
ATOM      4 CL   UNL     1       2.795   7.600  18.010  0.00  0.00    +0.000 Cl
ATOM      5  C   UNL     1       4.229   5.398  17.097  0.00  0.00    +0.000 A 
ATOM      6  C   UNL     1       5.019   6.248  16.302  0.00  0.00    +0.000 A 
ATOM      7  C   UNL     1       6.041   5.721  15.512  0.00  0.00    +0.000 A 
ATOM      8  C   UNL     1       6.265   4.345  15.509  0.00  0.00    +0.000 A 
ATOM      9  N   UNL     1       5.492   3.529  16.272  0.00  0.00    +0.000 NA
ATOM     10  C   UNL     1       4.489   4.008  17.060  0.00  0.00    +0.000 A 
ATOM     11  C   UNL     1       3.730   3.119  17.844  0.00  0.00    +0.000 A 
ENDROOT
BRANCH  11  12
ATOM     12  O   UNL     1       3.981   1.788  17.812  0.00  0.00    +0.000 OA
ATOM     13  H   UNL     1       3.777   1.192  18.543  0.00  0.00    +0.000 HD
ENDBRANCH  11  12
BRANCH   1  14
ATOM     14  C   UNL     1       1.912   2.689  19.563  0.00  0.00    +0.000 C 
BRANCH  14  15
ATOM     15  N   UNL     1       1.127   1.752  18.763  0.00  0.00    +0.000 NA
ATOM     16  H   UNL     1       0.119   1.867  19.023  0.00  0.00    +0.000 HD
ATOM     17  H   UNL     1       1.405   0.769  18.975  0.00  0.00    +0.000 HD
ENDBRANCH  14  15
ENDBRANCH   1  14
TORSDOF 3
ENDMDL
MODEL 8
REMARK VINA RESULT:      -5.9      1.550      1.589
REMARK  Name = 
REMARK  3 active torsions:
REMARK  status: ('A' for Active; 'I' for Inactive)
REMARK    1  A    between atoms: N_1  and  C_2
REMARK    2  A    between atoms: C_2  and  C_3
REMARK    3  A    between atoms: C_13  and  O_14
REMARK                            x       y       z     vdW  Elec       q    Type
REMARK                         _______ _______ _______ _____ _____    ______ ____
ROOT
ATOM      1  C   UNL     1       2.216   3.915  20.066  0.00  0.00    +0.000 A 
ATOM      2  C   UNL     1       1.942   5.290  20.117  0.00  0.00    +0.000 A 
ATOM      3  C   UNL     1       2.541   6.180  19.221  0.00  0.00    +0.000 A 
ATOM      4 CL   UNL     1       2.125   7.887  19.350  0.00  0.00    +0.000 Cl
ATOM      5  C   UNL     1       3.453   5.699  18.260  0.00  0.00    +0.000 A 
ATOM      6  C   UNL     1       4.106   6.553  17.353  0.00  0.00    +0.000 A 
ATOM      7  C   UNL     1       5.014   6.033  16.429  0.00  0.00    +0.000 A 
ATOM      8  C   UNL     1       5.259   4.662  16.406  0.00  0.00    +0.000 A 
ATOM      9  N   UNL     1       4.618   3.842  17.280  0.00  0.00    +0.000 NA
ATOM     10  C   UNL     1       3.730   4.313  18.200  0.00  0.00    +0.000 A 
ATOM     11  C   UNL     1       3.107   3.421  19.092  0.00  0.00    +0.000 A 
ENDROOT
BRANCH  11  12
ATOM     12  O   UNL     1       3.375   2.094  19.036  0.00  0.00    +0.000 OA
ATOM     13  H   UNL     1       2.857   1.428  19.504  0.00  0.00    +0.000 HD
ENDBRANCH  11  12
BRANCH   1  14
ATOM     14  C   UNL     1       1.562   2.981  21.057  0.00  0.00    +0.000 C 
BRANCH  14  15
ATOM     15  N   UNL     1       2.502   2.565  22.095  0.00  0.00    +0.000 NA
ATOM     16  H   UNL     1       2.312   1.560  22.323  0.00  0.00    +0.000 HD
ATOM     17  H   UNL     1       2.360   3.125  22.964  0.00  0.00    +0.000 HD
ENDBRANCH  14  15
ENDBRANCH   1  14
TORSDOF 3
ENDMDL
MODEL 9
REMARK VINA RESULT:      -5.9      1.838      4.240
REMARK  Name = 
REMARK  3 active torsions:
REMARK  status: ('A' for Active; 'I' for Inactive)
REMARK    1  A    between atoms: N_1  and  C_2
REMARK    2  A    between atoms: C_2  and  C_3
REMARK    3  A    between atoms: C_13  and  O_14
REMARK                            x       y       z     vdW  Elec       q    Type
REMARK                         _______ _______ _______ _____ _____    ______ ____
ROOT
ATOM      1  C   UNL     1       4.358   5.881  17.333  0.00  0.00    +0.000 A 
ATOM      2  C   UNL     1       3.557   6.874  17.915  0.00  0.00    +0.000 A 
ATOM      3  C   UNL     1       2.808   6.616  19.067  0.00  0.00    +0.000 A 
ATOM      4 CL   UNL     1       1.843   7.929  19.737  0.00  0.00    +0.000 Cl
ATOM      5  C   UNL     1       2.837   5.331  19.648  0.00  0.00    +0.000 A 
ATOM      6  C   UNL     1       2.082   5.009  20.790  0.00  0.00    +0.000 A 
ATOM      7  C   UNL     1       2.129   3.719  21.320  0.00  0.00    +0.000 A 
ATOM      8  C   UNL     1       2.938   2.758  20.716  0.00  0.00    +0.000 A 
ATOM      9  N   UNL     1       3.671   3.080  19.619  0.00  0.00    +0.000 NA
ATOM     10  C   UNL     1       3.646   4.327  19.069  0.00  0.00    +0.000 A 
ATOM     11  C   UNL     1       4.413   4.601  17.921  0.00  0.00    +0.000 A 
ENDROOT
BRANCH  11  12
ATOM     12  O   UNL     1       5.186   3.637  17.365  0.00  0.00    +0.000 OA
ATOM     13  H   UNL     1       5.411   2.812  17.812  0.00  0.00    +0.000 HD
ENDBRANCH  11  12
BRANCH   1  14
ATOM     14  C   UNL     1       5.145   6.188  16.080  0.00  0.00    +0.000 C 
BRANCH  14  15
ATOM     15  N   UNL     1       6.579   6.239  16.353  0.00  0.00    +0.000 NA
ATOM     16  H   UNL     1       6.725   6.803  17.223  0.00  0.00    +0.000 HD
ATOM     17  H   UNL     1       7.084   6.713  15.572  0.00  0.00    +0.000 HD
ENDBRANCH  14  15
ENDBRANCH   1  14
TORSDOF 3
ENDMDL
