MODEL 1
REMARK VINA RESULT:      -6.7      0.000      0.000
REMARK  Name = 
REMARK  4 active torsions:
REMARK  status: ('A' for Active; 'I' for Inactive)
REMARK    1  A    between atoms: C_2  and  C_3
REMARK    2  A    between atoms: C_3  and  O_4
REMARK    3  A    between atoms: O_4  and  N_5
REMARK    4  A    between atoms: C_8  and  C_9
REMARK                            x       y       z     vdW  Elec       q    Type
REMARK                         _______ _______ _______ _____ _____    ______ ____
ROOT
ATOM      1  N   UNL     1       1.972   6.303  19.846  0.00  0.00    +0.000 N 
ATOM      2  C   UNL     1       1.481   7.510  20.269  0.00  0.00    +0.000 A 
ATOM      3  O   UNL     1       0.985   7.696  21.376  0.00  0.00    +0.000 OA
ATOM      4  C   UNL     1       1.540   8.663  19.302  0.00  0.00    +0.000 A 
ATOM      5  N   UNL     1       2.332   8.563  18.250  0.00  0.00    +0.000 N 
ATOM      6  O   UNL     1       2.457   9.525  17.417  0.00  0.00    +0.000 OA
ATOM      7  C   UNL     1       3.099   7.350  18.009  0.00  0.00    +0.000 A 
ATOM      8  C   UNL     1       4.052   7.327  16.975  0.00  0.00    +0.000 A 
ATOM      9  C   UNL     1       4.812   6.180  16.751  0.00  0.00    +0.000 A 
ATOM     10  C   UNL     1       4.611   5.050  17.540  0.00  0.00    +0.000 A 
ATOM     11  C   UNL     1       3.648   5.064  18.555  0.00  0.00    +0.000 A 
ATOM     12  C   UNL     1       2.895   6.219  18.797  0.00  0.00    +0.000 A 
ENDROOT
BRANCH   4  13
ATOM     13  C   UNL     1       0.698   9.881  19.556  0.00  0.00    +0.000 A 
ATOM     14  C   UNL     1       1.133  10.859  20.465  0.00  0.00    +0.000 A 
ATOM     15  C   UNL     1       0.308  11.923  20.838  0.00  0.00    +0.000 A 
ATOM     16  C   UNL     1      -0.943  12.059  20.252  0.00  0.00    +0.000 A 
ATOM     17 BR   UNL     1      -2.062  13.491  20.764  0.00  0.00    +0.000 Br
ATOM     18  C   UNL     1      -1.372  11.140  19.299  0.00  0.00    +0.000 A 
ATOM     19  C   UNL     1      -0.563  10.044  18.966  0.00  0.00    +0.000 A 
ENDBRANCH   4  13
BRANCH   1  20
ATOM     20  O   UNL     1       2.031   5.264  20.821  0.00  0.00    +0.000 OA
BRANCH  20  21
ATOM     21  C   UNL     1       1.019   4.276  20.571  0.00  0.00    +0.000 C 
BRANCH  21  23
ATOM     22  C   UNL     1       2.680   2.656  21.531  0.00  0.00    +0.000 C 
ATOM     23  C   UNL     1       1.417   3.010  21.263  0.00  0.00    +0.000 C 
ENDBRANCH  21  23
ENDBRANCH  20  21
ENDBRANCH   1  20
TORSDOF 4
ENDMDL
MODEL 2
REMARK VINA RESULT:      -6.6      3.269      7.006
REMARK  Name = 
REMARK  4 active torsions:
REMARK  status: ('A' for Active; 'I' for Inactive)
REMARK    1  A    between atoms: C_2  and  C_3
REMARK    2  A    between atoms: C_3  and  O_4
REMARK    3  A    between atoms: O_4  and  N_5
REMARK    4  A    between atoms: C_8  and  C_9
REMARK                            x       y       z     vdW  Elec       q    Type
REMARK                         _______ _______ _______ _____ _____    ______ ____
ROOT
ATOM      1  N   UNL     1       0.330  10.099  19.042  0.00  0.00    +0.000 N 
ATOM      2  C   UNL     1       1.333   9.403  18.422  0.00  0.00    +0.000 A 
ATOM      3  O   UNL     1       1.817   9.720  17.340  0.00  0.00    +0.000 OA
ATOM      4  C   UNL     1       1.850   8.167  19.109  0.00  0.00    +0.000 A 
ATOM      5  N   UNL     1       1.566   7.991  20.387  0.00  0.00    +0.000 N 
ATOM      6  O   UNL     1       2.013   6.984  21.035  0.00  0.00    +0.000 OA
ATOM      7  C   UNL     1       0.739   8.950  21.104  0.00  0.00    +0.000 A 
ATOM      8  C   UNL     1       0.585   8.826  22.496  0.00  0.00    +0.000 A 
ATOM      9  C   UNL     1      -0.184   9.753  23.199  0.00  0.00    +0.000 A 
ATOM     10  C   UNL     1      -0.814  10.790  22.516  0.00  0.00    +0.000 A 
ATOM     11  C   UNL     1      -0.679  10.902  21.128  0.00  0.00    +0.000 A 
ATOM     12  C   UNL     1       0.107   9.985  20.419  0.00  0.00    +0.000 A 
ENDROOT
BRANCH   4  13
ATOM     13  C   UNL     1       2.661   7.174  18.326  0.00  0.00    +0.000 A 
ATOM     14  C   UNL     1       2.230   5.841  18.222  0.00  0.00    +0.000 A 
ATOM     15  C   UNL     1       3.033   4.861  17.635  0.00  0.00    +0.000 A 
ATOM     16  C   UNL     1       4.256   5.217  17.081  0.00  0.00    +0.000 A 
ATOM     17 BR   UNL     1       5.346   3.890  16.296  0.00  0.00    +0.000 Br
ATOM     18  C   UNL     1       4.677   6.543  17.112  0.00  0.00    +0.000 A 
ATOM     19  C   UNL     1       3.892   7.515  17.749  0.00  0.00    +0.000 A 
ENDBRANCH   4  13
BRANCH   1  20
ATOM     20  O   UNL     1      -0.050  11.337  18.444  0.00  0.00    +0.000 OA
BRANCH  20  21
ATOM     21  C   UNL     1      -1.453  11.343  18.137  0.00  0.00    +0.000 C 
BRANCH  21  23
ATOM     22  C   UNL     1      -2.963   9.841  16.805  0.00  0.00    +0.000 C 
ATOM     23  C   UNL     1      -1.746  10.166  17.259  0.00  0.00    +0.000 C 
ENDBRANCH  21  23
ENDBRANCH  20  21
ENDBRANCH   1  20
TORSDOF 4
ENDMDL
MODEL 3
REMARK VINA RESULT:      -6.6      2.160      4.286
REMARK  Name = 
REMARK  4 active torsions:
REMARK  status: ('A' for Active; 'I' for Inactive)
REMARK    1  A    between atoms: C_2  and  C_3
REMARK    2  A    between atoms: C_3  and  O_4
REMARK    3  A    between atoms: O_4  and  N_5
REMARK    4  A    between atoms: C_8  and  C_9
REMARK                            x       y       z     vdW  Elec       q    Type
REMARK                         _______ _______ _______ _____ _____    ______ ____
ROOT
ATOM      1  N   UNL     1       4.139   5.410  18.019  0.00  0.00    +0.000 N 
ATOM      2  C   UNL     1       3.454   6.575  18.243  0.00  0.00    +0.000 A 
ATOM      3  O   UNL     1       3.692   7.630  17.665  0.00  0.00    +0.000 OA
ATOM      4  C   UNL     1       2.360   6.551  19.278  0.00  0.00    +0.000 A 
ATOM      5  N   UNL     1       1.894   5.381  19.675  0.00  0.00    +0.000 N 
ATOM      6  O   UNL     1       0.937   5.297  20.519  0.00  0.00    +0.000 OA
ATOM      7  C   UNL     1       2.453   4.142  19.155  0.00  0.00    +0.000 A 
ATOM      8  C   UNL     1       1.836   2.918  19.469  0.00  0.00    +0.000 A 
ATOM      9  C   UNL     1       2.346   1.727  18.956  0.00  0.00    +0.000 A 
ATOM     10  C   UNL     1       3.479   1.749  18.146  0.00  0.00    +0.000 A 
ATOM     11  C   UNL     1       4.106   2.964  17.850  0.00  0.00    +0.000 A 
ATOM     12  C   UNL     1       3.588   4.166  18.347  0.00  0.00    +0.000 A 
ENDROOT
BRANCH   4  13
ATOM     13  C   UNL     1       1.840   7.847  19.830  0.00  0.00    +0.000 A 
ATOM     14  C   UNL     1       1.691   8.012  21.216  0.00  0.00    +0.000 A 
ATOM     15  C   UNL     1       1.069   9.142  21.752  0.00  0.00    +0.000 A 
ATOM     16  C   UNL     1       0.645  10.158  20.906  0.00  0.00    +0.000 A 
ATOM     17 BR   UNL     1      -0.206  11.680  21.630  0.00  0.00    +0.000 Br
ATOM     18  C   UNL     1       0.840  10.049  19.533  0.00  0.00    +0.000 A 
ATOM     19  C   UNL     1       1.416   8.891  18.994  0.00  0.00    +0.000 A 
ENDBRANCH   4  13
BRANCH   1  20
ATOM     20  O   UNL     1       5.075   5.420  16.943  0.00  0.00    +0.000 OA
BRANCH  20  21
ATOM     21  C   UNL     1       6.420   5.475  17.442  0.00  0.00    +0.000 C 
BRANCH  21  23
ATOM     22  C   UNL     1       7.764   7.557  17.853  0.00  0.00    +0.000 C 
ATOM     23  C   UNL     1       7.011   6.794  17.051  0.00  0.00    +0.000 C 
ENDBRANCH  21  23
ENDBRANCH  20  21
ENDBRANCH   1  20
TORSDOF 4
ENDMDL
MODEL 4
REMARK VINA RESULT:      -6.6      2.048      4.207
REMARK  Name = 
REMARK  4 active torsions:
REMARK  status: ('A' for Active; 'I' for Inactive)
REMARK    1  A    between atoms: C_2  and  C_3
REMARK    2  A    between atoms: C_3  and  O_4
REMARK    3  A    between atoms: O_4  and  N_5
REMARK    4  A    between atoms: C_8  and  C_9
REMARK                            x       y       z     vdW  Elec       q    Type
REMARK                         _______ _______ _______ _____ _____    ______ ____
ROOT
ATOM      1  N   UNL     1       3.994   5.693  17.801  0.00  0.00    +0.000 N 
ATOM      2  C   UNL     1       3.264   6.806  18.120  0.00  0.00    +0.000 A 
ATOM      3  O   UNL     1       3.368   7.882  17.540  0.00  0.00    +0.000 OA
ATOM      4  C   UNL     1       2.295   6.698  19.267  0.00  0.00    +0.000 A 
ATOM      5  N   UNL     1       1.952   5.494  19.691  0.00  0.00    +0.000 N 
ATOM      6  O   UNL     1       1.101   5.337  20.632  0.00  0.00    +0.000 OA
ATOM      7  C   UNL     1       2.529   4.301  19.089  0.00  0.00    +0.000 A 
ATOM      8  C   UNL     1       2.031   3.036  19.446  0.00  0.00    +0.000 A 
ATOM      9  C   UNL     1       2.557   1.887  18.857  0.00  0.00    +0.000 A 
ATOM     10  C   UNL     1       3.591   1.995  17.929  0.00  0.00    +0.000 A 
ATOM     11  C   UNL     1       4.102   3.252  17.589  0.00  0.00    +0.000 A 
ATOM     12  C   UNL     1       3.565   4.411  18.163  0.00  0.00    +0.000 A 
ENDROOT
BRANCH   4  13
ATOM     13  C   UNL     1       1.755   7.950  19.897  0.00  0.00    +0.000 A 
ATOM     14  C   UNL     1       1.668   8.053  21.295  0.00  0.00    +0.000 A 
ATOM     15  C   UNL     1       1.032   9.135  21.907  0.00  0.00    +0.000 A 
ATOM     16  C   UNL     1       0.532  10.168  21.125  0.00  0.00    +0.000 A 
ATOM     17 BR   UNL     1      -0.337  11.626  21.952  0.00  0.00    +0.000 Br
ATOM     18  C   UNL     1       0.664  10.123  19.741  0.00  0.00    +0.000 A 
ATOM     19  C   UNL     1       1.255   9.009  19.127  0.00  0.00    +0.000 A 
ENDBRANCH   4  13
BRANCH   1  20
ATOM     20  O   UNL     1       4.804   5.777  16.630  0.00  0.00    +0.000 OA
BRANCH  20  21
ATOM     21  C   UNL     1       6.175   6.022  16.978  0.00  0.00    +0.000 C 
BRANCH  21  23
ATOM     22  C   UNL     1       6.649   4.448  15.078  0.00  0.00    +0.000 C 
ATOM     23  C   UNL     1       7.034   5.076  16.197  0.00  0.00    +0.000 C 
ENDBRANCH  21  23
ENDBRANCH  20  21
ENDBRANCH   1  20
TORSDOF 4
ENDMDL
MODEL 5
REMARK VINA RESULT:      -6.6      1.428      1.776
REMARK  Name = 
REMARK  4 active torsions:
REMARK  status: ('A' for Active; 'I' for Inactive)
REMARK    1  A    between atoms: C_2  and  C_3
REMARK    2  A    between atoms: C_3  and  O_4
REMARK    3  A    between atoms: O_4  and  N_5
REMARK    4  A    between atoms: C_8  and  C_9
REMARK                            x       y       z     vdW  Elec       q    Type
REMARK                         _______ _______ _______ _____ _____    ______ ____
ROOT
ATOM      1  N   UNL     1       2.671   5.061  18.947  0.00  0.00    +0.000 N 
ATOM      2  C   UNL     1       2.249   6.020  19.828  0.00  0.00    +0.000 A 
ATOM      3  O   UNL     1       1.847   5.778  20.962  0.00  0.00    +0.000 OA
ATOM      4  C   UNL     1       2.264   7.451  19.359  0.00  0.00    +0.000 A 
ATOM      5  N   UNL     1       2.968   7.754  18.283  0.00  0.00    +0.000 N 
ATOM      6  O   UNL     1       3.054   8.958  17.861  0.00  0.00    +0.000 OA
ATOM      7  C   UNL     1       3.679   6.721  17.544  0.00  0.00    +0.000 A 
ATOM      8  C   UNL     1       4.547   7.089  16.502  0.00  0.00    +0.000 A 
ATOM      9  C   UNL     1       5.255   6.112  15.803  0.00  0.00    +0.000 A 
ATOM     10  C   UNL     1       5.084   4.768  16.128  0.00  0.00    +0.000 A 
ATOM     11  C   UNL     1       4.205   4.399  17.152  0.00  0.00    +0.000 A 
ATOM     12  C   UNL     1       3.506   5.378  17.869  0.00  0.00    +0.000 A 
ENDROOT
BRANCH   4  13
ATOM     13  C   UNL     1       1.480   8.483  20.117  0.00  0.00    +0.000 A 
ATOM     14  C   UNL     1       1.572   8.549  21.517  0.00  0.00    +0.000 A 
ATOM     15  C   UNL     1       0.744   9.391  22.262  0.00  0.00    +0.000 A 
ATOM     16  C   UNL     1      -0.146  10.232  21.608  0.00  0.00    +0.000 A 
ATOM     17 BR   UNL     1      -1.274  11.363  22.616  0.00  0.00    +0.000 Br
ATOM     18  C   UNL     1      -0.212  10.234  20.218  0.00  0.00    +0.000 A 
ATOM     19  C   UNL     1       0.583   9.350  19.475  0.00  0.00    +0.000 A 
ENDBRANCH   4  13
BRANCH   1  20
ATOM     20  O   UNL     1       2.777   3.733  19.455  0.00  0.00    +0.000 OA
BRANCH  20  21
ATOM     21  C   UNL     1       1.593   2.978  19.153  0.00  0.00    +0.000 C 
BRANCH  21  23
ATOM     22  C   UNL     1       1.591   2.550  21.629  0.00  0.00    +0.000 C 
ATOM     23  C   UNL     1       0.966   2.551  20.444  0.00  0.00    +0.000 C 
ENDBRANCH  21  23
ENDBRANCH  20  21
ENDBRANCH   1  20
TORSDOF 4
ENDMDL
MODEL 6
REMARK VINA RESULT:      -6.6      0.197      1.022
REMARK  Name = 
REMARK  4 active torsions:
REMARK  status: ('A' for Active; 'I' for Inactive)
REMARK    1  A    between atoms: C_2  and  C_3
REMARK    2  A    between atoms: C_3  and  O_4
REMARK    3  A    between atoms: O_4  and  N_5
REMARK    4  A    between atoms: C_8  and  C_9
REMARK                            x       y       z     vdW  Elec       q    Type
REMARK                         _______ _______ _______ _____ _____    ______ ____
ROOT
ATOM      1  N   UNL     1       2.021   6.299  19.802  0.00  0.00    +0.000 N 
ATOM      2  C   UNL     1       1.513   7.462  20.316  0.00  0.00    +0.000 A 
ATOM      3  O   UNL     1       1.043   7.563  21.444  0.00  0.00    +0.000 OA
ATOM      4  C   UNL     1       1.516   8.676  19.425  0.00  0.00    +0.000 A 
ATOM      5  N   UNL     1       2.280   8.665  18.348  0.00  0.00    +0.000 N 
ATOM      6  O   UNL     1       2.359   9.682  17.577  0.00  0.00    +0.000 OA
ATOM      7  C   UNL     1       3.070   7.491  18.008  0.00  0.00    +0.000 A 
ATOM      8  C   UNL     1       3.995   7.561  16.951  0.00  0.00    +0.000 A 
ATOM      9  C   UNL     1       4.776   6.452  16.632  0.00  0.00    +0.000 A 
ATOM     10  C   UNL     1       4.625   5.268  17.350  0.00  0.00    +0.000 A 
ATOM     11  C   UNL     1       3.691   5.190  18.389  0.00  0.00    +0.000 A 
ATOM     12  C   UNL     1       2.916   6.307  18.726  0.00  0.00    +0.000 A 
ENDROOT
BRANCH   4  13
ATOM     13  C   UNL     1       0.652   9.852  19.779  0.00  0.00    +0.000 A 
ATOM     14  C   UNL     1      -0.568  10.054  19.114  0.00  0.00    +0.000 A 
ATOM     15  C   UNL     1      -1.319  11.215  19.310  0.00  0.00    +0.000 A 
ATOM     16  C   UNL     1      -0.891  12.164  20.228  0.00  0.00    +0.000 A 
ATOM     17 BR   UNL     1      -1.901  13.738  20.484  0.00  0.00    +0.000 Br
ATOM     18  C   UNL     1       0.281  11.957  20.949  0.00  0.00    +0.000 A 
ATOM     19  C   UNL     1       1.060  10.816  20.712  0.00  0.00    +0.000 A 
ENDBRANCH   4  13
BRANCH   1  20
ATOM     20  O   UNL     1       2.133   5.200  20.704  0.00  0.00    +0.000 OA
BRANCH  20  21
ATOM     21  C   UNL     1       1.002   4.324  20.578  0.00  0.00    +0.000 C 
BRANCH  21  23
ATOM     22  C   UNL     1       2.595   2.666  21.592  0.00  0.00    +0.000 C 
ATOM     23  C   UNL     1       1.417   2.956  21.025  0.00  0.00    +0.000 C 
ENDBRANCH  21  23
ENDBRANCH  20  21
ENDBRANCH   1  20
TORSDOF 4
ENDMDL
MODEL 7
REMARK VINA RESULT:      -6.5      3.250      6.984
REMARK  Name = 
REMARK  4 active torsions:
REMARK  status: ('A' for Active; 'I' for Inactive)
REMARK    1  A    between atoms: C_2  and  C_3
REMARK    2  A    between atoms: C_3  and  O_4
REMARK    3  A    between atoms: O_4  and  N_5
REMARK    4  A    between atoms: C_8  and  C_9
REMARK                            x       y       z     vdW  Elec       q    Type
REMARK                         _______ _______ _______ _____ _____    ______ ____
ROOT
ATOM      1  N   UNL     1       0.289  10.003  18.983  0.00  0.00    +0.000 N 
ATOM      2  C   UNL     1       1.322   9.291  18.435  0.00  0.00    +0.000 A 
ATOM      3  O   UNL     1       1.819   9.538  17.341  0.00  0.00    +0.000 OA
ATOM      4  C   UNL     1       1.857   8.124  19.222  0.00  0.00    +0.000 A 
ATOM      5  N   UNL     1       1.553   8.037  20.505  0.00  0.00    +0.000 N 
ATOM      6  O   UNL     1       2.012   7.093  21.235  0.00  0.00    +0.000 OA
ATOM      7  C   UNL     1       0.686   9.023  21.133  0.00  0.00    +0.000 A 
ATOM      8  C   UNL     1       0.508   9.000  22.527  0.00  0.00    +0.000 A 
ATOM      9  C   UNL     1      -0.299   9.955  23.144  0.00  0.00    +0.000 A 
ATOM     10  C   UNL     1      -0.942  10.921  22.374  0.00  0.00    +0.000 A 
ATOM     11  C   UNL     1      -0.782  10.932  20.984  0.00  0.00    +0.000 A 
ATOM     12  C   UNL     1       0.042   9.987  20.361  0.00  0.00    +0.000 A 
ENDROOT
BRANCH   4  13
ATOM     13  C   UNL     1       2.709   7.098  18.532  0.00  0.00    +0.000 A 
ATOM     14  C   UNL     1       3.943   7.469  17.972  0.00  0.00    +0.000 A 
ATOM     15  C   UNL     1       4.685   6.579  17.193  0.00  0.00    +0.000 A 
ATOM     16  C   UNL     1       4.232   5.278  17.018  0.00  0.00    +0.000 A 
ATOM     17 BR   UNL     1       5.231   4.078  15.956  0.00  0.00    +0.000 Br
ATOM     18  C   UNL     1       3.046   4.865  17.616  0.00  0.00    +0.000 A 
ATOM     19  C   UNL     1       2.277   5.776  18.354  0.00  0.00    +0.000 A 
ENDBRANCH   4  13
BRANCH   1  20
ATOM     20  O   UNL     1      -0.111  11.182  18.286  0.00  0.00    +0.000 OA
BRANCH  20  21
ATOM     21  C   UNL     1      -1.524  11.166  18.033  0.00  0.00    +0.000 C 
BRANCH  21  23
ATOM     22  C   UNL     1      -2.601  10.061  16.050  0.00  0.00    +0.000 C 
ATOM     23  C   UNL     1      -1.828  10.002  17.142  0.00  0.00    +0.000 C 
ENDBRANCH  21  23
ENDBRANCH  20  21
ENDBRANCH   1  20
TORSDOF 4
ENDMDL
MODEL 8
REMARK VINA RESULT:      -6.5      1.356      1.913
REMARK  Name = 
REMARK  4 active torsions:
REMARK  status: ('A' for Active; 'I' for Inactive)
REMARK    1  A    between atoms: C_2  and  C_3
REMARK    2  A    between atoms: C_3  and  O_4
REMARK    3  A    between atoms: O_4  and  N_5
REMARK    4  A    between atoms: C_8  and  C_9
REMARK                            x       y       z     vdW  Elec       q    Type
REMARK                         _______ _______ _______ _____ _____    ______ ____
ROOT
ATOM      1  N   UNL     1       2.702   5.023  18.955  0.00  0.00    +0.000 N 
ATOM      2  C   UNL     1       2.245   5.978  19.824  0.00  0.00    +0.000 A 
ATOM      3  O   UNL     1       1.837   5.735  20.955  0.00  0.00    +0.000 OA
ATOM      4  C   UNL     1       2.228   7.405  19.343  0.00  0.00    +0.000 A 
ATOM      5  N   UNL     1       2.935   7.717  18.272  0.00  0.00    +0.000 N 
ATOM      6  O   UNL     1       2.995   8.919  17.840  0.00  0.00    +0.000 OA
ATOM      7  C   UNL     1       3.682   6.698  17.550  0.00  0.00    +0.000 A 
ATOM      8  C   UNL     1       4.551   7.080  16.513  0.00  0.00    +0.000 A 
ATOM      9  C   UNL     1       5.292   6.116  15.831  0.00  0.00    +0.000 A 
ATOM     10  C   UNL     1       5.153   4.771  16.166  0.00  0.00    +0.000 A 
ATOM     11  C   UNL     1       4.272   4.387  17.183  0.00  0.00    +0.000 A 
ATOM     12  C   UNL     1       3.540   5.353  17.884  0.00  0.00    +0.000 A 
ENDROOT
BRANCH   4  13
ATOM     13  C   UNL     1       1.408   8.422  20.083  0.00  0.00    +0.000 A 
ATOM     14  C   UNL     1       0.628   9.349  19.373  0.00  0.00    +0.000 A 
ATOM     15  C   UNL     1      -0.022  10.401  20.021  0.00  0.00    +0.000 A 
ATOM     16  C   UNL     1       0.045  10.501  21.404  0.00  0.00    +0.000 A 
ATOM     17 BR   UNL     1      -0.826  11.930  22.280  0.00  0.00    +0.000 Br
ATOM     18  C   UNL     1       0.757   9.558  22.138  0.00  0.00    +0.000 A 
ATOM     19  C   UNL     1       1.452   8.534  21.480  0.00  0.00    +0.000 A 
ENDBRANCH   4  13
BRANCH   1  20
ATOM     20  O   UNL     1       2.837   3.702  19.476  0.00  0.00    +0.000 OA
BRANCH  20  21
ATOM     21  C   UNL     1       1.674   2.916  19.174  0.00  0.00    +0.000 C 
BRANCH  21  23
ATOM     22  C   UNL     1       1.640   2.556  21.659  0.00  0.00    +0.000 C 
ATOM     23  C   UNL     1       1.038   2.503  20.465  0.00  0.00    +0.000 C 
ENDBRANCH  21  23
ENDBRANCH  20  21
ENDBRANCH   1  20
TORSDOF 4
ENDMDL
MODEL 9
REMARK VINA RESULT:      -6.5      3.979      7.354
REMARK  Name = 
REMARK  4 active torsions:
REMARK  status: ('A' for Active; 'I' for Inactive)
REMARK    1  A    between atoms: C_2  and  C_3
REMARK    2  A    between atoms: C_3  and  O_4
REMARK    3  A    between atoms: O_4  and  N_5
REMARK    4  A    between atoms: C_8  and  C_9
REMARK                            x       y       z     vdW  Elec       q    Type
REMARK                         _______ _______ _______ _____ _____    ______ ____
ROOT
ATOM      1  N   UNL     1       2.968   5.881  19.062  0.00  0.00    +0.000 N 
ATOM      2  C   UNL     1       4.031   5.864  18.198  0.00  0.00    +0.000 A 
ATOM      3  O   UNL     1       4.718   6.846  17.940  0.00  0.00    +0.000 OA
ATOM      4  C   UNL     1       4.352   4.561  17.515  0.00  0.00    +0.000 A 
ATOM      5  N   UNL     1       3.833   3.449  18.004  0.00  0.00    +0.000 N 
ATOM      6  O   UNL     1       4.104   2.308  17.494  0.00  0.00    +0.000 OA
ATOM      7  C   UNL     1       2.939   3.486  19.152  0.00  0.00    +0.000 A 
ATOM      8  C   UNL     1       2.529   2.282  19.750  0.00  0.00    +0.000 A 
ATOM      9  C   UNL     1       1.693   2.305  20.866  0.00  0.00    +0.000 A 
ATOM     10  C   UNL     1       1.250   3.524  21.374  0.00  0.00    +0.000 A 
ATOM     11  C   UNL     1       1.640   4.722  20.767  0.00  0.00    +0.000 A 
ATOM     12  C   UNL     1       2.494   4.706  19.657  0.00  0.00    +0.000 A 
ENDROOT
BRANCH   4  13
ATOM     13  C   UNL     1       5.240   4.563  16.304  0.00  0.00    +0.000 A 
ATOM     14  C   UNL     1       6.620   4.783  16.444  0.00  0.00    +0.000 A 
ATOM     15  C   UNL     1       7.447   4.944  15.330  0.00  0.00    +0.000 A 
ATOM     16  C   UNL     1       6.913   4.818  14.055  0.00  0.00    +0.000 A 
ATOM     17 BR   UNL     1       8.030   5.046  12.549  0.00  0.00    +0.000 Br
ATOM     18  C   UNL     1       5.562   4.534  13.889  0.00  0.00    +0.000 A 
ATOM     19  C   UNL     1       4.724   4.426  15.008  0.00  0.00    +0.000 A 
ENDBRANCH   4  13
BRANCH   1  20
ATOM     20  O   UNL     1       2.766   7.085  19.798  0.00  0.00    +0.000 OA
BRANCH  20  21
ATOM     21  C   UNL     1       1.950   8.003  19.054  0.00  0.00    +0.000 C 
BRANCH  21  23
ATOM     22  C   UNL     1       1.075   8.567  21.340  0.00  0.00    +0.000 C 
ATOM     23  C   UNL     1       1.148   8.811  20.026  0.00  0.00    +0.000 C 
ENDBRANCH  21  23
ENDBRANCH  20  21
ENDBRANCH   1  20
TORSDOF 4
ENDMDL
