MODEL 1
REMARK VINA RESULT:      -6.4      0.000      0.000
REMARK  Name = 
REMARK  2 active torsions:
REMARK  status: ('A' for Active; 'I' for Inactive)
REMARK    1  A    between atoms: C_1  and  C_2
REMARK    2  A    between atoms: C_6  and  C_7
REMARK                            x       y       z     vdW  Elec       q    Type
REMARK                         _______ _______ _______ _____ _____    ______ ____
ROOT
ATOM      1  C   UNL     1       1.329   2.486  21.778  0.00  0.00    +0.000 C 
ATOM      2  C   UNL     1       2.083   2.861  20.547  0.00  0.00    +0.000 A 
ATOM      3  N   UNL     1       3.297   3.344  20.544  0.00  0.00    +0.000 NA
ATOM      4  N   UNL     1       3.599   3.533  19.236  0.00  0.00    +0.000 N 
ATOM      5  C   UNL     1       4.719   3.987  18.607  0.00  0.00    +0.000 A 
ATOM      6  C   UNL     1       4.407   3.903  17.255  0.00  0.00    +0.000 A 
ATOM      7  N   UNL     1       3.122   3.416  17.063  0.00  0.00    +0.000 NA
ATOM      8  C   UNL     1       2.695   3.224  18.275  0.00  0.00    +0.000 A 
ATOM      9  S   UNL     1       1.262   2.623  18.986  0.00  0.00    +0.000 S 
ENDROOT
BRANCH   6  10
ATOM     10  C   UNL     1       5.287   4.209  16.140  0.00  0.00    +0.000 A 
ATOM     11  C   UNL     1       6.486   4.893  16.398  0.00  0.00    +0.000 A 
ATOM     12  C   UNL     1       7.357   5.230  15.361  0.00  0.00    +0.000 A 
ATOM     13  C   UNL     1       7.040   4.872  14.054  0.00  0.00    +0.000 A 
ATOM     14 CL   UNL     1       8.106   5.293  12.772  0.00  0.00    +0.000 Cl
ATOM     15  C   UNL     1       5.864   4.175  13.780  0.00  0.00    +0.000 A 
ATOM     16  C   UNL     1       4.987   3.844  14.821  0.00  0.00    +0.000 A 
ENDBRANCH   6  10
TORSDOF 1
ENDMDL
MODEL 2
REMARK VINA RESULT:      -6.4      3.966      6.676
REMARK  Name = 
REMARK  2 active torsions:
REMARK  status: ('A' for Active; 'I' for Inactive)
REMARK    1  A    between atoms: C_1  and  C_2
REMARK    2  A    between atoms: C_6  and  C_7
REMARK                            x       y       z     vdW  Elec       q    Type
REMARK                         _______ _______ _______ _____ _____    ______ ____
ROOT
ATOM      1  C   UNL     1       8.256   5.562  12.773  0.00  0.00    +0.000 C 
ATOM      2  C   UNL     1       7.396   5.151  13.921  0.00  0.00    +0.000 A 
ATOM      3  N   UNL     1       7.492   5.642  15.127  0.00  0.00    +0.000 NA
ATOM      4  N   UNL     1       6.531   5.009  15.845  0.00  0.00    +0.000 N 
ATOM      5  C   UNL     1       6.134   5.114  17.143  0.00  0.00    +0.000 A 
ATOM      6  C   UNL     1       5.071   4.223  17.246  0.00  0.00    +0.000 A 
ATOM      7  N   UNL     1       4.830   3.583  16.039  0.00  0.00    +0.000 NA
ATOM      8  C   UNL     1       5.734   4.087  15.252  0.00  0.00    +0.000 A 
ATOM      9  S   UNL     1       6.157   3.913  13.606  0.00  0.00    +0.000 S 
ENDROOT
BRANCH   6  10
ATOM     10  C   UNL     1       4.241   3.993  18.416  0.00  0.00    +0.000 A 
ATOM     11  C   UNL     1       4.062   2.674  18.864  0.00  0.00    +0.000 A 
ATOM     12  C   UNL     1       3.257   2.396  19.971  0.00  0.00    +0.000 A 
ATOM     13  C   UNL     1       2.635   3.441  20.648  0.00  0.00    +0.000 A 
ATOM     14 CL   UNL     1       1.636   3.101  22.005  0.00  0.00    +0.000 Cl
ATOM     15  C   UNL     1       2.816   4.759  20.230  0.00  0.00    +0.000 A 
ATOM     16  C   UNL     1       3.618   5.035  19.115  0.00  0.00    +0.000 A 
ENDBRANCH   6  10
TORSDOF 1
ENDMDL
MODEL 3
REMARK VINA RESULT:      -6.3      0.139      1.215
REMARK  Name = 
REMARK  2 active torsions:
REMARK  status: ('A' for Active; 'I' for Inactive)
REMARK    1  A    between atoms: C_1  and  C_2
REMARK    2  A    between atoms: C_6  and  C_7
REMARK                            x       y       z     vdW  Elec       q    Type
REMARK                         _______ _______ _______ _____ _____    ______ ____
ROOT
ATOM      1  C   UNL     1       1.388   2.501  21.779  0.00  0.00    +0.000 C 
ATOM      2  C   UNL     1       2.148   2.906  20.562  0.00  0.00    +0.000 A 
ATOM      3  N   UNL     1       3.395   3.295  20.566  0.00  0.00    +0.000 NA
ATOM      4  N   UNL     1       3.689   3.554  19.268  0.00  0.00    +0.000 N 
ATOM      5  C   UNL     1       4.830   3.967  18.648  0.00  0.00    +0.000 A 
ATOM      6  C   UNL     1       4.490   4.003  17.301  0.00  0.00    +0.000 A 
ATOM      7  N   UNL     1       3.169   3.629  17.102  0.00  0.00    +0.000 NA
ATOM      8  C   UNL     1       2.748   3.383  18.308  0.00  0.00    +0.000 A 
ATOM      9  S   UNL     1       1.285   2.842  19.006  0.00  0.00    +0.000 S 
ENDROOT
BRANCH   6  10
ATOM     10  C   UNL     1       5.372   4.321  16.190  0.00  0.00    +0.000 A 
ATOM     11  C   UNL     1       5.005   3.909  14.900  0.00  0.00    +0.000 A 
ATOM     12  C   UNL     1       5.826   4.171  13.802  0.00  0.00    +0.000 A 
ATOM     13  C   UNL     1       7.020   4.860  13.987  0.00  0.00    +0.000 A 
ATOM     14 CL   UNL     1       8.040   5.176  12.638  0.00  0.00    +0.000 Cl
ATOM     15  C   UNL     1       7.394   5.295  15.258  0.00  0.00    +0.000 A 
ATOM     16  C   UNL     1       6.572   5.025  16.360  0.00  0.00    +0.000 A 
ENDBRANCH   6  10
TORSDOF 1
ENDMDL
MODEL 4
REMARK VINA RESULT:      -6.3      4.451      4.721
REMARK  Name = 
REMARK  2 active torsions:
REMARK  status: ('A' for Active; 'I' for Inactive)
REMARK    1  A    between atoms: C_1  and  C_2
REMARK    2  A    between atoms: C_6  and  C_7
REMARK                            x       y       z     vdW  Elec       q    Type
REMARK                         _______ _______ _______ _____ _____    ______ ____
ROOT
ATOM      1  C   UNL     1      -0.370   9.868  22.056  0.00  0.00    +0.000 C 
ATOM      2  C   UNL     1       0.515   9.193  21.062  0.00  0.00    +0.000 A 
ATOM      3  N   UNL     1       1.105   8.045  21.260  0.00  0.00    +0.000 NA
ATOM      4  N   UNL     1       1.792   7.799  20.117  0.00  0.00    +0.000 N 
ATOM      5  C   UNL     1       2.573   6.756  19.720  0.00  0.00    +0.000 A 
ATOM      6  C   UNL     1       2.952   7.090  18.424  0.00  0.00    +0.000 A 
ATOM      7  N   UNL     1       2.421   8.313  18.042  0.00  0.00    +0.000 NA
ATOM      8  C   UNL     1       1.751   8.685  19.092  0.00  0.00    +0.000 A 
ATOM      9  S   UNL     1       0.768  10.020  19.506  0.00  0.00    +0.000 S 
ENDROOT
BRANCH   6  10
ATOM     10  C   UNL     1       3.745   6.279  17.515  0.00  0.00    +0.000 A 
ATOM     11  C   UNL     1       3.574   4.886  17.535  0.00  0.00    +0.000 A 
ATOM     12  C   UNL     1       4.326   4.060  16.697  0.00  0.00    +0.000 A 
ATOM     13  C   UNL     1       5.248   4.625  15.822  0.00  0.00    +0.000 A 
ATOM     14 CL   UNL     1       6.183   3.610  14.796  0.00  0.00    +0.000 Cl
ATOM     15  C   UNL     1       5.419   6.008  15.775  0.00  0.00    +0.000 A 
ATOM     16  C   UNL     1       4.669   6.835  16.621  0.00  0.00    +0.000 A 
ENDBRANCH   6  10
TORSDOF 1
ENDMDL
MODEL 5
REMARK VINA RESULT:      -6.3      4.904      5.233
REMARK  Name = 
REMARK  2 active torsions:
REMARK  status: ('A' for Active; 'I' for Inactive)
REMARK    1  A    between atoms: C_1  and  C_2
REMARK    2  A    between atoms: C_6  and  C_7
REMARK                            x       y       z     vdW  Elec       q    Type
REMARK                         _______ _______ _______ _____ _____    ______ ____
ROOT
ATOM      1  C   UNL     1      -0.388  11.193  21.387  0.00  0.00    +0.000 C 
ATOM      2  C   UNL     1       0.386  10.125  20.690  0.00  0.00    +0.000 A 
ATOM      3  N   UNL     1       0.760  10.182  19.440  0.00  0.00    +0.000 NA
ATOM      4  N   UNL     1       1.436   9.027  19.219  0.00  0.00    +0.000 N 
ATOM      5  C   UNL     1       2.076   8.531  18.124  0.00  0.00    +0.000 A 
ATOM      6  C   UNL     1       2.604   7.321  18.560  0.00  0.00    +0.000 A 
ATOM      7  N   UNL     1       2.286   7.080  19.889  0.00  0.00    +0.000 NA
ATOM      8  C   UNL     1       1.586   8.124  20.219  0.00  0.00    +0.000 A 
ATOM      9  S   UNL     1       0.826   8.687  21.642  0.00  0.00    +0.000 S 
ENDROOT
BRANCH   6  10
ATOM     10  C   UNL     1       3.440   6.412  17.793  0.00  0.00    +0.000 A 
ATOM     11  C   UNL     1       4.436   6.952  16.965  0.00  0.00    +0.000 A 
ATOM     12  C   UNL     1       5.252   6.125  16.192  0.00  0.00    +0.000 A 
ATOM     13  C   UNL     1       5.085   4.745  16.251  0.00  0.00    +0.000 A 
ATOM     14 CL   UNL     1       6.083   3.723  15.293  0.00  0.00    +0.000 Cl
ATOM     15  C   UNL     1       4.114   4.188  17.083  0.00  0.00    +0.000 A 
ATOM     16  C   UNL     1       3.291   5.020  17.852  0.00  0.00    +0.000 A 
ENDBRANCH   6  10
TORSDOF 1
ENDMDL
MODEL 6
REMARK VINA RESULT:      -6.3      3.945      6.607
REMARK  Name = 
REMARK  2 active torsions:
REMARK  status: ('A' for Active; 'I' for Inactive)
REMARK    1  A    between atoms: C_1  and  C_2
REMARK    2  A    between atoms: C_6  and  C_7
REMARK                            x       y       z     vdW  Elec       q    Type
REMARK                         _______ _______ _______ _____ _____    ______ ____
ROOT
ATOM      1  C   UNL     1       8.337   5.626  12.880  0.00  0.00    +0.000 C 
ATOM      2  C   UNL     1       7.425   5.151  13.960  0.00  0.00    +0.000 A 
ATOM      3  N   UNL     1       7.486   5.546  15.204  0.00  0.00    +0.000 NA
ATOM      4  N   UNL     1       6.484   4.885  15.835  0.00  0.00    +0.000 N 
ATOM      5  C   UNL     1       6.040   4.900  17.122  0.00  0.00    +0.000 A 
ATOM      6  C   UNL     1       4.954   4.033  17.117  0.00  0.00    +0.000 A 
ATOM      7  N   UNL     1       4.744   3.494  15.856  0.00  0.00    +0.000 NA
ATOM      8  C   UNL     1       5.689   4.032  15.144  0.00  0.00    +0.000 A 
ATOM      9  S   UNL     1       6.170   3.973  13.505  0.00  0.00    +0.000 S 
ENDROOT
BRANCH   6  10
ATOM     10  C   UNL     1       4.075   3.735  18.235  0.00  0.00    +0.000 A 
ATOM     11  C   UNL     1       3.751   4.769  19.129  0.00  0.00    +0.000 A 
ATOM     12  C   UNL     1       2.928   4.532  20.231  0.00  0.00    +0.000 A 
ATOM     13  C   UNL     1       2.410   3.258  20.441  0.00  0.00    +0.000 A 
ATOM     14 CL   UNL     1       1.403   2.960  21.803  0.00  0.00    +0.000 Cl
ATOM     15  C   UNL     1       2.704   2.223  19.554  0.00  0.00    +0.000 A 
ATOM     16  C   UNL     1       3.537   2.460  18.452  0.00  0.00    +0.000 A 
ENDBRANCH   6  10
TORSDOF 1
ENDMDL
MODEL 7
REMARK VINA RESULT:      -6.2      1.108      1.684
REMARK  Name = 
REMARK  2 active torsions:
REMARK  status: ('A' for Active; 'I' for Inactive)
REMARK    1  A    between atoms: C_1  and  C_2
REMARK    2  A    between atoms: C_6  and  C_7
REMARK                            x       y       z     vdW  Elec       q    Type
REMARK                         _______ _______ _______ _____ _____    ______ ____
ROOT
ATOM      1  C   UNL     1       1.201   2.651  21.795  0.00  0.00    +0.000 C 
ATOM      2  C   UNL     1       2.123   3.091  20.708  0.00  0.00    +0.000 A 
ATOM      3  N   UNL     1       2.703   2.284  19.861  0.00  0.00    +0.000 NA
ATOM      4  N   UNL     1       3.434   3.088  19.050  0.00  0.00    +0.000 N 
ATOM      5  C   UNL     1       4.229   2.832  17.973  0.00  0.00    +0.000 A 
ATOM      6  C   UNL     1       4.657   4.088  17.561  0.00  0.00    +0.000 A 
ATOM      7  N   UNL     1       4.142   5.089  18.371  0.00  0.00    +0.000 NA
ATOM      8  C   UNL     1       3.433   4.430  19.239  0.00  0.00    +0.000 A 
ATOM      9  S   UNL     1       2.436   4.838  20.565  0.00  0.00    +0.000 S 
ENDROOT
BRANCH   6  10
ATOM     10  C   UNL     1       5.484   4.387  16.403  0.00  0.00    +0.000 A 
ATOM     11  C   UNL     1       5.015   4.024  15.131  0.00  0.00    +0.000 A 
ATOM     12  C   UNL     1       5.779   4.269  13.988  0.00  0.00    +0.000 A 
ATOM     13  C   UNL     1       7.016   4.893  14.110  0.00  0.00    +0.000 A 
ATOM     14 CL   UNL     1       7.965   5.187  12.706  0.00  0.00    +0.000 Cl
ATOM     15  C   UNL     1       7.491   5.278  15.363  0.00  0.00    +0.000 A 
ATOM     16  C   UNL     1       6.727   5.025  16.510  0.00  0.00    +0.000 A 
ENDBRANCH   6  10
TORSDOF 1
ENDMDL
MODEL 8
REMARK VINA RESULT:      -6.1      4.996      5.250
REMARK  Name = 
REMARK  2 active torsions:
REMARK  status: ('A' for Active; 'I' for Inactive)
REMARK    1  A    between atoms: C_1  and  C_2
REMARK    2  A    between atoms: C_6  and  C_7
REMARK                            x       y       z     vdW  Elec       q    Type
REMARK                         _______ _______ _______ _____ _____    ______ ____
ROOT
ATOM      1  C   UNL     1      -0.674  10.909  21.448  0.00  0.00    +0.000 C 
ATOM      2  C   UNL     1       0.225  10.058  20.616  0.00  0.00    +0.000 A 
ATOM      3  N   UNL     1       0.745   8.927  21.011  0.00  0.00    +0.000 NA
ATOM      4  N   UNL     1       1.476   8.486  19.958  0.00  0.00    +0.000 N 
ATOM      5  C   UNL     1       2.222   7.363  19.762  0.00  0.00    +0.000 A 
ATOM      6  C   UNL     1       2.683   7.486  18.457  0.00  0.00    +0.000 A 
ATOM      7  N   UNL     1       2.236   8.661  17.871  0.00  0.00    +0.000 NA
ATOM      8  C   UNL     1       1.533   9.212  18.815  0.00  0.00    +0.000 A 
ATOM      9  S   UNL     1       0.599  10.634  18.973  0.00  0.00    +0.000 S 
ENDROOT
BRANCH   6  10
ATOM     10  C   UNL     1       3.480   6.516  17.722  0.00  0.00    +0.000 A 
ATOM     11  C   UNL     1       4.467   6.987  16.842  0.00  0.00    +0.000 A 
ATOM     12  C   UNL     1       5.246   6.099  16.098  0.00  0.00    +0.000 A 
ATOM     13  C   UNL     1       5.049   4.729  16.238  0.00  0.00    +0.000 A 
ATOM     14 CL   UNL     1       6.000   3.632  15.315  0.00  0.00    +0.000 Cl
ATOM     15  C   UNL     1       4.086   4.241  17.121  0.00  0.00    +0.000 A 
ATOM     16  C   UNL     1       3.301   5.134  17.863  0.00  0.00    +0.000 A 
ENDBRANCH   6  10
TORSDOF 1
ENDMDL
MODEL 9
REMARK VINA RESULT:      -6.1      5.348      7.171
REMARK  Name = 
REMARK  2 active torsions:
REMARK  status: ('A' for Active; 'I' for Inactive)
REMARK    1  A    between atoms: C_1  and  C_2
REMARK    2  A    between atoms: C_6  and  C_7
REMARK                            x       y       z     vdW  Elec       q    Type
REMARK                         _______ _______ _______ _____ _____    ______ ____
ROOT
ATOM      1  C   UNL     1       6.503   4.355  14.520  0.00  0.00    +0.000 C 
ATOM      2  C   UNL     1       5.618   5.012  15.524  0.00  0.00    +0.000 A 
ATOM      3  N   UNL     1       5.435   6.302  15.615  0.00  0.00    +0.000 NA
ATOM      4  N   UNL     1       4.561   6.464  16.639  0.00  0.00    +0.000 N 
ATOM      5  C   UNL     1       3.980   7.568  17.187  0.00  0.00    +0.000 A 
ATOM      6  C   UNL     1       3.150   7.058  18.179  0.00  0.00    +0.000 A 
ATOM      7  N   UNL     1       3.228   5.675  18.241  0.00  0.00    +0.000 NA
ATOM      8  C   UNL     1       4.087   5.385  17.309  0.00  0.00    +0.000 A 
ATOM      9  S   UNL     1       4.754   3.951  16.664  0.00  0.00    +0.000 S 
ENDROOT
BRANCH   6  10
ATOM     10  C   UNL     1       2.248   7.816  19.030  0.00  0.00    +0.000 A 
ATOM     11  C   UNL     1       1.679   8.996  18.524  0.00  0.00    +0.000 A 
ATOM     12  C   UNL     1       0.822   9.771  19.307  0.00  0.00    +0.000 A 
ATOM     13  C   UNL     1       0.517   9.364  20.602  0.00  0.00    +0.000 A 
ATOM     14 CL   UNL     1      -0.530  10.322  21.573  0.00  0.00    +0.000 Cl
ATOM     15  C   UNL     1       1.057   8.185  21.115  0.00  0.00    +0.000 A 
ATOM     16  C   UNL     1       1.922   7.412  20.331  0.00  0.00    +0.000 A 
ENDBRANCH   6  10
TORSDOF 1
ENDMDL
