MODEL 1
REMARK VINA RESULT:      -8.5      0.000      0.000
REMARK  Name = 
REMARK  6 active torsions:
REMARK  status: ('A' for Active; 'I' for Inactive)
REMARK    1  A    between atoms: N_3  and  C_4
REMARK    2  A    between atoms: C_4  and  C_5
REMARK    3  A    between atoms: N_12  and  N_13
REMARK    4  A    between atoms: C_14  and  C_15
REMARK    5  A    between atoms: C_18  and  C_19
REMARK    6  A    between atoms: C_22  and  N_23
REMARK                            x       y       z     vdW  Elec       q    Type
REMARK                         _______ _______ _______ _____ _____    ______ ____
ROOT
ATOM      1  N   UNL     1       0.841   7.879  21.048  0.00  0.00    +0.000 NA
ATOM      2  C   UNL     1       1.909   7.151  21.167  0.00  0.00    +0.000 C 
ENDROOT
BRANCH   1   6
ATOM      3  O   UNL     1      -0.112  10.907  22.567  0.00  0.00    +0.000 OA
ATOM      4  C   UNL     1       0.024  10.040  21.710  0.00  0.00    +0.000 C 
ATOM      5  N   UNL     1      -0.414  10.153  20.420  0.00  0.00    +0.000 N 
ATOM      6  N   UNL     1       0.671   8.856  21.989  0.00  0.00    +0.000 N 
ATOM      7  H   UNL     1      -0.448   9.273  19.921  0.00  0.00    +0.000 HD
ATOM      8  H   UNL     1       1.049   8.761  22.925  0.00  0.00    +0.000 HD
BRANCH   5   9
ATOM      9  C   UNL     1      -1.209  11.275  19.983  0.00  0.00    +0.000 C 
BRANCH   9  10
ATOM     10  C   UNL     1      -1.871  11.027  18.648  0.00  0.00    +0.000 A 
ATOM     11  C   UNL     1      -1.336  10.102  17.739  0.00  0.00    +0.000 A 
ATOM     12  C   UNL     1      -1.982   9.839  16.527  0.00  0.00    +0.000 A 
ATOM     13  C   UNL     1      -3.169  10.500  16.216  0.00  0.00    +0.000 A 
ATOM     14 CL   UNL     1      -3.965  10.175  14.726  0.00  0.00    +0.000 Cl
ATOM     15  C   UNL     1      -3.718  11.417  17.109  0.00  0.00    +0.000 A 
ATOM     16  C   UNL     1      -3.072  11.678  18.322  0.00  0.00    +0.000 A 
ENDBRANCH   9  10
ENDBRANCH   5   9
ENDBRANCH   1   6
BRANCH   2  17
ATOM     17  C   UNL     1       2.161   6.116  20.202  0.00  0.00    +0.000 A 
ATOM     18  C   UNL     1       1.529   4.905  20.007  0.00  0.00    +0.000 A 
ATOM     19  C   UNL     1       2.172   4.281  18.920  0.00  0.00    +0.000 A 
ATOM     20  C   UNL     1       3.164   5.142  18.490  0.00  0.00    +0.000 A 
ATOM     21  O   UNL     1       3.160   6.268  19.278  0.00  0.00    +0.000 OA
BRANCH  20  22
ATOM     22  C   UNL     1       4.138   5.082  17.396  0.00  0.00    +0.000 A 
ATOM     23  C   UNL     1       4.663   3.841  16.989  0.00  0.00    +0.000 A 
ATOM     24  C   UNL     1       5.557   3.743  15.917  0.00  0.00    +0.000 A 
ATOM     25  C   UNL     1       5.940   4.901  15.235  0.00  0.00    +0.000 A 
ATOM     26  C   UNL     1       5.446   6.149  15.632  0.00  0.00    +0.000 A 
ATOM     27  C   UNL     1       4.551   6.233  16.709  0.00  0.00    +0.000 A 
BRANCH  25  28
ATOM     28  N   UNL     1       6.854   4.804  14.089  0.00  0.00    +0.000 N 
ATOM     29  O   UNL     1       7.883   5.496  14.114  0.00  0.00    +0.000 OA
ATOM     30  O   UNL     1       6.546   4.034  13.170  0.00  0.00    +0.000 OA
ENDBRANCH  25  28
ENDBRANCH  20  22
ENDBRANCH   2  17
TORSDOF 6
ENDMDL
MODEL 2
REMARK VINA RESULT:      -8.4      0.790      1.635
REMARK  Name = 
REMARK  6 active torsions:
REMARK  status: ('A' for Active; 'I' for Inactive)
REMARK    1  A    between atoms: N_3  and  C_4
REMARK    2  A    between atoms: C_4  and  C_5
REMARK    3  A    between atoms: N_12  and  N_13
REMARK    4  A    between atoms: C_14  and  C_15
REMARK    5  A    between atoms: C_18  and  C_19
REMARK    6  A    between atoms: C_22  and  N_23
REMARK                            x       y       z     vdW  Elec       q    Type
REMARK                         _______ _______ _______ _____ _____    ______ ____
ROOT
ATOM      1  N   UNL     1       1.737   7.409  20.582  0.00  0.00    +0.000 NA
ATOM      2  C   UNL     1       1.875   6.135  20.793  0.00  0.00    +0.000 C 
ENDROOT
BRANCH   1   6
ATOM      3  O   UNL     1       0.699  10.086  22.617  0.00  0.00    +0.000 OA
ATOM      4  C   UNL     1       0.887   9.405  21.613  0.00  0.00    +0.000 C 
ATOM      5  N   UNL     1       0.532   9.781  20.348  0.00  0.00    +0.000 N 
ATOM      6  N   UNL     1       1.511   8.179  21.688  0.00  0.00    +0.000 N 
ATOM      7  H   UNL     1       0.526   9.020  19.681  0.00  0.00    +0.000 HD
ATOM      8  H   UNL     1       1.829   7.893  22.608  0.00  0.00    +0.000 HD
BRANCH   5   9
ATOM      9  C   UNL     1      -0.230  10.980  20.097  0.00  0.00    +0.000 C 
BRANCH   9  10
ATOM     10  C   UNL     1      -1.165  10.834  18.920  0.00  0.00    +0.000 A 
ATOM     11  C   UNL     1      -2.247  11.711  18.746  0.00  0.00    +0.000 A 
ATOM     12  C   UNL     1      -3.078  11.603  17.626  0.00  0.00    +0.000 A 
ATOM     13  C   UNL     1      -2.833  10.618  16.672  0.00  0.00    +0.000 A 
ATOM     14 CL   UNL     1      -3.855  10.487  15.295  0.00  0.00    +0.000 Cl
ATOM     15  C   UNL     1      -1.760   9.743  16.825  0.00  0.00    +0.000 A 
ATOM     16  C   UNL     1      -0.928   9.852  17.944  0.00  0.00    +0.000 A 
ENDBRANCH   9  10
ENDBRANCH   5   9
ENDBRANCH   1   6
BRANCH   2  17
ATOM     17  C   UNL     1       2.132   5.266  19.678  0.00  0.00    +0.000 A 
ATOM     18  C   UNL     1       1.476   4.122  19.268  0.00  0.00    +0.000 A 
ATOM     19  C   UNL     1       2.139   3.666  18.112  0.00  0.00    +0.000 A 
ATOM     20  C   UNL     1       3.165   4.555  17.858  0.00  0.00    +0.000 A 
ATOM     21  O   UNL     1       3.165   5.536  18.820  0.00  0.00    +0.000 OA
BRANCH  20  22
ATOM     22  C   UNL     1       4.173   4.646  16.797  0.00  0.00    +0.000 A 
ATOM     23  C   UNL     1       4.604   5.906  16.341  0.00  0.00    +0.000 A 
ATOM     24  C   UNL     1       5.599   6.029  15.365  0.00  0.00    +0.000 A 
ATOM     25  C   UNL     1       6.176   4.876  14.826  0.00  0.00    +0.000 A 
ATOM     26  C   UNL     1       5.752   3.610  15.248  0.00  0.00    +0.000 A 
ATOM     27  C   UNL     1       4.753   3.502  16.227  0.00  0.00    +0.000 A 
BRANCH  25  28
ATOM     28  N   UNL     1       7.242   4.995  13.822  0.00  0.00    +0.000 N 
ATOM     29  O   UNL     1       7.092   4.393  12.749  0.00  0.00    +0.000 OA
ATOM     30  O   UNL     1       8.225   5.693  14.105  0.00  0.00    +0.000 OA
ENDBRANCH  25  28
ENDBRANCH  20  22
ENDBRANCH   2  17
TORSDOF 6
ENDMDL
MODEL 3
REMARK VINA RESULT:      -8.3      1.114      1.415
REMARK  Name = 
REMARK  6 active torsions:
REMARK  status: ('A' for Active; 'I' for Inactive)
REMARK    1  A    between atoms: N_3  and  C_4
REMARK    2  A    between atoms: C_4  and  C_5
REMARK    3  A    between atoms: N_12  and  N_13
REMARK    4  A    between atoms: C_14  and  C_15
REMARK    5  A    between atoms: C_18  and  C_19
REMARK    6  A    between atoms: C_22  and  N_23
REMARK                            x       y       z     vdW  Elec       q    Type
REMARK                         _______ _______ _______ _____ _____    ______ ____
ROOT
ATOM      1  N   UNL     1       1.391   8.580  20.662  0.00  0.00    +0.000 NA
ATOM      2  C   UNL     1       1.452   7.400  21.199  0.00  0.00    +0.000 C 
ENDROOT
BRANCH   1   6
ATOM      3  O   UNL     1       0.248  11.716  21.778  0.00  0.00    +0.000 OA
ATOM      4  C   UNL     1       0.567  10.810  21.015  0.00  0.00    +0.000 C 
ATOM      5  N   UNL     1       0.532  10.899  19.652  0.00  0.00    +0.000 N 
ATOM      6  N   UNL     1       1.023   9.601  21.494  0.00  0.00    +0.000 N 
ATOM      7  H   UNL     1       0.585  10.005  19.181  0.00  0.00    +0.000 HD
ATOM      8  H   UNL     1       1.104   9.519  22.501  0.00  0.00    +0.000 HD
BRANCH   5   9
ATOM      9  C   UNL     1      -0.021  12.050  18.979  0.00  0.00    +0.000 C 
BRANCH   9  10
ATOM     10  C   UNL     1      -1.489  11.884  18.667  0.00  0.00    +0.000 A 
ATOM     11  C   UNL     1      -1.908  11.250  17.487  0.00  0.00    +0.000 A 
ATOM     12  C   UNL     1      -3.268  11.054  17.227  0.00  0.00    +0.000 A 
ATOM     13  C   UNL     1      -4.220  11.489  18.148  0.00  0.00    +0.000 A 
ATOM     14 CL   UNL     1      -5.892  11.246  17.829  0.00  0.00    +0.000 Cl
ATOM     15  C   UNL     1      -3.823  12.114  19.327  0.00  0.00    +0.000 A 
ATOM     16  C   UNL     1      -2.462  12.309  19.586  0.00  0.00    +0.000 A 
ENDBRANCH   9  10
ENDBRANCH   5   9
ENDBRANCH   1   6
BRANCH   2  17
ATOM     17  C   UNL     1       1.850   6.282  20.388  0.00  0.00    +0.000 A 
ATOM     18  C   UNL     1       1.396   4.978  20.382  0.00  0.00    +0.000 A 
ATOM     19  C   UNL     1       2.123   4.300  19.384  0.00  0.00    +0.000 A 
ATOM     20  C   UNL     1       2.982   5.221  18.815  0.00  0.00    +0.000 A 
ATOM     21  O   UNL     1       2.818   6.437  19.433  0.00  0.00    +0.000 OA
BRANCH  20  22
ATOM     22  C   UNL     1       3.955   5.141  17.722  0.00  0.00    +0.000 A 
ATOM     23  C   UNL     1       4.424   3.886  17.288  0.00  0.00    +0.000 A 
ATOM     24  C   UNL     1       5.316   3.771  16.215  0.00  0.00    +0.000 A 
ATOM     25  C   UNL     1       5.754   4.925  15.560  0.00  0.00    +0.000 A 
ATOM     26  C   UNL     1       5.317   6.186  15.985  0.00  0.00    +0.000 A 
ATOM     27  C   UNL     1       4.424   6.286  17.062  0.00  0.00    +0.000 A 
BRANCH  25  28
ATOM     28  N   UNL     1       6.666   4.812  14.415  0.00  0.00    +0.000 N 
ATOM     29  O   UNL     1       6.368   4.010  13.518  0.00  0.00    +0.000 OA
ATOM     30  O   UNL     1       7.676   5.528  14.410  0.00  0.00    +0.000 OA
ENDBRANCH  25  28
ENDBRANCH  20  22
ENDBRANCH   2  17
TORSDOF 6
ENDMDL
MODEL 4
REMARK VINA RESULT:      -8.2      1.387      1.744
REMARK  Name = 
REMARK  6 active torsions:
REMARK  status: ('A' for Active; 'I' for Inactive)
REMARK    1  A    between atoms: N_3  and  C_4
REMARK    2  A    between atoms: C_4  and  C_5
REMARK    3  A    between atoms: N_12  and  N_13
REMARK    4  A    between atoms: C_14  and  C_15
REMARK    5  A    between atoms: C_18  and  C_19
REMARK    6  A    between atoms: C_22  and  N_23
REMARK                            x       y       z     vdW  Elec       q    Type
REMARK                         _______ _______ _______ _____ _____    ______ ____
ROOT
ATOM      1  N   UNL     1       1.966   6.726  19.985  0.00  0.00    +0.000 NA
ATOM      2  C   UNL     1       2.193   5.452  20.089  0.00  0.00    +0.000 C 
ENDROOT
BRANCH   1   6
ATOM      3  O   UNL     1       0.972   9.268  22.206  0.00  0.00    +0.000 OA
ATOM      4  C   UNL     1       1.273   8.705  21.158  0.00  0.00    +0.000 C 
ATOM      5  N   UNL     1       1.319   9.318  19.937  0.00  0.00    +0.000 N 
ATOM      6  N   UNL     1       1.620   7.372  21.139  0.00  0.00    +0.000 N 
ATOM      7  H   UNL     1       1.338   8.674  19.157  0.00  0.00    +0.000 HD
ATOM      8  H   UNL     1       1.641   6.901  22.036  0.00  0.00    +0.000 HD
BRANCH   5   9
ATOM      9  C   UNL     1       0.880  10.680  19.753  0.00  0.00    +0.000 C 
BRANCH   9  10
ATOM     10  C   UNL     1      -0.366  10.775  18.905  0.00  0.00    +0.000 A 
ATOM     11  C   UNL     1      -0.618   9.842  17.887  0.00  0.00    +0.000 A 
ATOM     12  C   UNL     1      -1.799   9.905  17.140  0.00  0.00    +0.000 A 
ATOM     13  C   UNL     1      -2.737  10.900  17.408  0.00  0.00    +0.000 A 
ATOM     14 CL   UNL     1      -4.190  10.975  16.490  0.00  0.00    +0.000 Cl
ATOM     15  C   UNL     1      -2.507  11.830  18.419  0.00  0.00    +0.000 A 
ATOM     16  C   UNL     1      -1.326  11.766  19.166  0.00  0.00    +0.000 A 
ENDBRANCH   9  10
ENDBRANCH   5   9
ENDBRANCH   1   6
BRANCH   2  17
ATOM     17  C   UNL     1       2.579   4.712  18.920  0.00  0.00    +0.000 A 
ATOM     18  C   UNL     1       2.021   3.582  18.355  0.00  0.00    +0.000 A 
ATOM     19  C   UNL     1       2.789   3.277  17.214  0.00  0.00    +0.000 A 
ATOM     20  C   UNL     1       3.776   4.240  17.124  0.00  0.00    +0.000 A 
ATOM     21  O   UNL     1       3.650   5.119  18.172  0.00  0.00    +0.000 OA
BRANCH  20  22
ATOM     22  C   UNL     1       4.848   4.487  16.155  0.00  0.00    +0.000 A 
ATOM     23  C   UNL     1       4.975   3.663  15.020  0.00  0.00    +0.000 A 
ATOM     24  C   UNL     1       5.956   3.901  14.051  0.00  0.00    +0.000 A 
ATOM     25  C   UNL     1       6.832   4.979  14.212  0.00  0.00    +0.000 A 
ATOM     26  C   UNL     1       6.738   5.801  15.340  0.00  0.00    +0.000 A 
ATOM     27  C   UNL     1       5.751   5.551  16.304  0.00  0.00    +0.000 A 
BRANCH  25  28
ATOM     28  N   UNL     1       7.845   5.254  13.185  0.00  0.00    +0.000 N 
ATOM     29  O   UNL     1       8.860   5.878  13.530  0.00  0.00    +0.000 OA
ATOM     30  O   UNL     1       7.629   4.842  12.037  0.00  0.00    +0.000 OA
ENDBRANCH  25  28
ENDBRANCH  20  22
ENDBRANCH   2  17
TORSDOF 6
ENDMDL
MODEL 5
REMARK VINA RESULT:      -8.2      1.089      1.513
REMARK  Name = 
REMARK  6 active torsions:
REMARK  status: ('A' for Active; 'I' for Inactive)
REMARK    1  A    between atoms: N_3  and  C_4
REMARK    2  A    between atoms: C_4  and  C_5
REMARK    3  A    between atoms: N_12  and  N_13
REMARK    4  A    between atoms: C_14  and  C_15
REMARK    5  A    between atoms: C_18  and  C_19
REMARK    6  A    between atoms: C_22  and  N_23
REMARK                            x       y       z     vdW  Elec       q    Type
REMARK                         _______ _______ _______ _____ _____    ______ ____
ROOT
ATOM      1  N   UNL     1       1.590   7.427  20.564  0.00  0.00    +0.000 NA
ATOM      2  C   UNL     1       1.607   6.202  20.991  0.00  0.00    +0.000 C 
ENDROOT
BRANCH   1   6
ATOM      3  O   UNL     1       0.175  10.426  21.743  0.00  0.00    +0.000 OA
ATOM      4  C   UNL     1       0.677   9.612  20.974  0.00  0.00    +0.000 C 
ATOM      5  N   UNL     1       0.961   9.862  19.661  0.00  0.00    +0.000 N 
ATOM      6  N   UNL     1       1.023   8.348  21.400  0.00  0.00    +0.000 N 
ATOM      7  H   UNL     1       1.135   9.029  19.114  0.00  0.00    +0.000 HD
ATOM      8  H   UNL     1       0.867   8.147  22.382  0.00  0.00    +0.000 HD
BRANCH   5   9
ATOM      9  C   UNL     1       0.566  11.091  19.019  0.00  0.00    +0.000 C 
BRANCH   9  10
ATOM     10  C   UNL     1      -0.892  11.093  18.623  0.00  0.00    +0.000 A 
ATOM     11  C   UNL     1      -1.386  10.164  17.694  0.00  0.00    +0.000 A 
ATOM     12  C   UNL     1      -2.747  10.137  17.370  0.00  0.00    +0.000 A 
ATOM     13  C   UNL     1      -3.622  11.037  17.975  0.00  0.00    +0.000 A 
ATOM     14 CL   UNL     1      -5.296  11.001  17.578  0.00  0.00    +0.000 Cl
ATOM     15  C   UNL     1      -3.150  11.960  18.905  0.00  0.00    +0.000 A 
ATOM     16  C   UNL     1      -1.789  11.986  19.228  0.00  0.00    +0.000 A 
ENDBRANCH   9  10
ENDBRANCH   5   9
ENDBRANCH   1   6
BRANCH   2  17
ATOM     17  C   UNL     1       2.203   5.183  20.172  0.00  0.00    +0.000 A 
ATOM     18  C   UNL     1       2.087   3.809  20.231  0.00  0.00    +0.000 A 
ATOM     19  C   UNL     1       2.878   3.289  19.188  0.00  0.00    +0.000 A 
ATOM     20  C   UNL     1       3.436   4.368  18.529  0.00  0.00    +0.000 A 
ATOM     21  O   UNL     1       3.025   5.531  19.134  0.00  0.00    +0.000 OA
BRANCH  20  22
ATOM     22  C   UNL     1       4.311   4.483  17.358  0.00  0.00    +0.000 A 
ATOM     23  C   UNL     1       4.763   5.749  16.939  0.00  0.00    +0.000 A 
ATOM     24  C   UNL     1       5.637   5.891  15.856  0.00  0.00    +0.000 A 
ATOM     25  C   UNL     1       6.071   4.752  15.172  0.00  0.00    +0.000 A 
ATOM     26  C   UNL     1       5.621   3.483  15.557  0.00  0.00    +0.000 A 
ATOM     27  C   UNL     1       4.744   3.357  16.644  0.00  0.00    +0.000 A 
BRANCH  25  28
ATOM     28  N   UNL     1       7.012   4.888  14.052  0.00  0.00    +0.000 N 
ATOM     29  O   UNL     1       7.988   5.636  14.208  0.00  0.00    +0.000 OA
ATOM     30  O   UNL     1       6.778   4.244  13.021  0.00  0.00    +0.000 OA
ENDBRANCH  25  28
ENDBRANCH  20  22
ENDBRANCH   2  17
TORSDOF 6
ENDMDL
MODEL 6
REMARK VINA RESULT:      -8.1      2.804      3.416
REMARK  Name = 
REMARK  6 active torsions:
REMARK  status: ('A' for Active; 'I' for Inactive)
REMARK    1  A    between atoms: N_3  and  C_4
REMARK    2  A    between atoms: C_4  and  C_5
REMARK    3  A    between atoms: N_12  and  N_13
REMARK    4  A    between atoms: C_14  and  C_15
REMARK    5  A    between atoms: C_18  and  C_19
REMARK    6  A    between atoms: C_22  and  N_23
REMARK                            x       y       z     vdW  Elec       q    Type
REMARK                         _______ _______ _______ _____ _____    ______ ____
ROOT
ATOM      1  N   UNL     1       1.377   8.192  20.659  0.00  0.00    +0.000 NA
ATOM      2  C   UNL     1       1.636   7.005  21.116  0.00  0.00    +0.000 C 
ENDROOT
BRANCH   1   6
ATOM      3  O   UNL     1       0.288  11.212  22.102  0.00  0.00    +0.000 OA
ATOM      4  C   UNL     1       0.551  10.370  21.248  0.00  0.00    +0.000 C 
ATOM      5  N   UNL     1       0.387  10.556  19.904  0.00  0.00    +0.000 N 
ATOM      6  N   UNL     1       1.070   9.141  21.593  0.00  0.00    +0.000 N 
ATOM      7  H   UNL     1       0.411   9.699  19.367  0.00  0.00    +0.000 HD
ATOM      8  H   UNL     1       1.246   8.990  22.581  0.00  0.00    +0.000 HD
BRANCH   5   9
ATOM      9  C   UNL     1      -0.246  11.737  19.371  0.00  0.00    +0.000 C 
BRANCH   9  10
ATOM     10  C   UNL     1       0.753  12.791  18.957  0.00  0.00    +0.000 A 
ATOM     11  C   UNL     1       0.446  14.156  19.063  0.00  0.00    +0.000 A 
ATOM     12  C   UNL     1       1.395  15.128  18.726  0.00  0.00    +0.000 A 
ATOM     13  C   UNL     1       2.658  14.740  18.283  0.00  0.00    +0.000 A 
ATOM     14 CL   UNL     1       3.824  15.935  17.871  0.00  0.00    +0.000 Cl
ATOM     15  C   UNL     1       2.982  13.389  18.179  0.00  0.00    +0.000 A 
ATOM     16  C   UNL     1       2.033  12.419  18.516  0.00  0.00    +0.000 A 
ENDBRANCH   9  10
ENDBRANCH   5   9
ENDBRANCH   1   6
BRANCH   2  17
ATOM     17  C   UNL     1       1.984   5.961  20.192  0.00  0.00    +0.000 A 
ATOM     18  C   UNL     1       1.454   4.696  20.034  0.00  0.00    +0.000 A 
ATOM     19  C   UNL     1       2.160   4.088  18.978  0.00  0.00    +0.000 A 
ATOM     20  C   UNL     1       3.086   5.011  18.528  0.00  0.00    +0.000 A 
ATOM     21  O   UNL     1       2.981   6.160  19.275  0.00  0.00    +0.000 OA
BRANCH  20  22
ATOM     22  C   UNL     1       4.077   4.991  17.448  0.00  0.00    +0.000 A 
ATOM     23  C   UNL     1       4.592   3.764  16.989  0.00  0.00    +0.000 A 
ATOM     24  C   UNL     1       5.503   3.706  15.927  0.00  0.00    +0.000 A 
ATOM     25  C   UNL     1       5.912   4.891  15.310  0.00  0.00    +0.000 A 
ATOM     26  C   UNL     1       5.429   6.125  15.760  0.00  0.00    +0.000 A 
ATOM     27  C   UNL     1       4.517   6.168  16.826  0.00  0.00    +0.000 A 
BRANCH  25  28
ATOM     28  N   UNL     1       6.844   4.838  14.175  0.00  0.00    +0.000 N 
ATOM     29  O   UNL     1       6.571   4.070  13.242  0.00  0.00    +0.000 OA
ATOM     30  O   UNL     1       7.843   5.568  14.217  0.00  0.00    +0.000 OA
ENDBRANCH  25  28
ENDBRANCH  20  22
ENDBRANCH   2  17
TORSDOF 6
ENDMDL
MODEL 7
REMARK VINA RESULT:      -8.0      2.973      3.521
REMARK  Name = 
REMARK  6 active torsions:
REMARK  status: ('A' for Active; 'I' for Inactive)
REMARK    1  A    between atoms: N_3  and  C_4
REMARK    2  A    between atoms: C_4  and  C_5
REMARK    3  A    between atoms: N_12  and  N_13
REMARK    4  A    between atoms: C_14  and  C_15
REMARK    5  A    between atoms: C_18  and  C_19
REMARK    6  A    between atoms: C_22  and  N_23
REMARK                            x       y       z     vdW  Elec       q    Type
REMARK                         _______ _______ _______ _____ _____    ______ ____
ROOT
ATOM      1  N   UNL     1       1.634   8.497  20.856  0.00  0.00    +0.000 NA
ATOM      2  C   UNL     1       1.250   7.305  21.199  0.00  0.00    +0.000 C 
ENDROOT
BRANCH   1   6
ATOM      3  O   UNL     1       0.252  11.589  21.812  0.00  0.00    +0.000 OA
ATOM      4  C   UNL     1       0.650  10.676  21.095  0.00  0.00    +0.000 C 
ATOM      5  N   UNL     1       0.639  10.705  19.729  0.00  0.00    +0.000 N 
ATOM      6  N   UNL     1       1.178   9.523  21.635  0.00  0.00    +0.000 N 
ATOM      7  H   UNL     1       0.763   9.798  19.299  0.00  0.00    +0.000 HD
ATOM      8  H   UNL     1       1.243   9.490  22.646  0.00  0.00    +0.000 HD
BRANCH   5   9
ATOM      9  C   UNL     1       0.021  11.785  18.997  0.00  0.00    +0.000 C 
BRANCH   9  10
ATOM     10  C   UNL     1       0.951  12.961  18.810  0.00  0.00    +0.000 A 
ATOM     11  C   UNL     1       2.263  12.776  18.350  0.00  0.00    +0.000 A 
ATOM     12  C   UNL     1       3.102  13.873  18.130  0.00  0.00    +0.000 A 
ATOM     13  C   UNL     1       2.633  15.164  18.367  0.00  0.00    +0.000 A 
ATOM     14 CL   UNL     1       3.665  16.513  18.094  0.00  0.00    +0.000 Cl
ATOM     15  C   UNL     1       1.331  15.367  18.818  0.00  0.00    +0.000 A 
ATOM     16  C   UNL     1       0.492  14.268  19.037  0.00  0.00    +0.000 A 
ENDBRANCH   9  10
ENDBRANCH   5   9
ENDBRANCH   1   6
BRANCH   2  17
ATOM     17  C   UNL     1       1.706   6.177  20.436  0.00  0.00    +0.000 A 
ATOM     18  C   UNL     1       1.353   4.844  20.516  0.00  0.00    +0.000 A 
ATOM     19  C   UNL     1       2.096   4.167  19.530  0.00  0.00    +0.000 A 
ATOM     20  C   UNL     1       2.864   5.115  18.882  0.00  0.00    +0.000 A 
ATOM     21  O   UNL     1       2.628   6.349  19.439  0.00  0.00    +0.000 OA
BRANCH  20  22
ATOM     22  C   UNL     1       3.805   5.046  17.760  0.00  0.00    +0.000 A 
ATOM     23  C   UNL     1       4.359   6.228  17.231  0.00  0.00    +0.000 A 
ATOM     24  C   UNL     1       5.297   6.194  16.193  0.00  0.00    +0.000 A 
ATOM     25  C   UNL     1       5.693   4.961  15.666  0.00  0.00    +0.000 A 
ATOM     26  C   UNL     1       5.143   3.773  16.162  0.00  0.00    +0.000 A 
ATOM     27  C   UNL     1       4.204   3.822  17.202  0.00  0.00    +0.000 A 
BRANCH  25  28
ATOM     28  N   UNL     1       6.699   4.914  14.597  0.00  0.00    +0.000 N 
ATOM     29  O   UNL     1       7.694   5.645  14.710  0.00  0.00    +0.000 OA
ATOM     30  O   UNL     1       6.496   4.144  13.649  0.00  0.00    +0.000 OA
ENDBRANCH  25  28
ENDBRANCH  20  22
ENDBRANCH   2  17
TORSDOF 6
ENDMDL
MODEL 8
REMARK VINA RESULT:      -8.0      1.507      2.266
REMARK  Name = 
REMARK  6 active torsions:
REMARK  status: ('A' for Active; 'I' for Inactive)
REMARK    1  A    between atoms: N_3  and  C_4
REMARK    2  A    between atoms: C_4  and  C_5
REMARK    3  A    between atoms: N_12  and  N_13
REMARK    4  A    between atoms: C_14  and  C_15
REMARK    5  A    between atoms: C_18  and  C_19
REMARK    6  A    between atoms: C_22  and  N_23
REMARK                            x       y       z     vdW  Elec       q    Type
REMARK                         _______ _______ _______ _____ _____    ______ ____
ROOT
ATOM      1  N   UNL     1       1.771   6.176  20.162  0.00  0.00    +0.000 NA
ATOM      2  C   UNL     1       2.742   5.364  20.453  0.00  0.00    +0.000 C 
ENDROOT
BRANCH   1   6
ATOM      3  O   UNL     1       0.746   9.032  21.945  0.00  0.00    +0.000 OA
ATOM      4  C   UNL     1       1.135   8.330  21.017  0.00  0.00    +0.000 C 
ATOM      5  N   UNL     1       1.431   8.796  19.766  0.00  0.00    +0.000 N 
ATOM      6  N   UNL     1       1.332   6.976  21.180  0.00  0.00    +0.000 N 
ATOM      7  H   UNL     1       1.494   8.071  19.064  0.00  0.00    +0.000 HD
ATOM      8  H   UNL     1       1.166   6.608  22.110  0.00  0.00    +0.000 HD
BRANCH   5   9
ATOM      9  C   UNL     1       1.178  10.165  19.386  0.00  0.00    +0.000 C 
BRANCH   9  10
ATOM     10  C   UNL     1      -0.219  10.366  18.849  0.00  0.00    +0.000 A 
ATOM     11  C   UNL     1      -1.098  11.279  19.452  0.00  0.00    +0.000 A 
ATOM     12  C   UNL     1      -2.372  11.500  18.919  0.00  0.00    +0.000 A 
ATOM     13  C   UNL     1      -2.775  10.809  17.777  0.00  0.00    +0.000 A 
ATOM     14 CL   UNL     1      -4.342  11.082  17.121  0.00  0.00    +0.000 Cl
ATOM     15  C   UNL     1      -1.914   9.905  17.162  0.00  0.00    +0.000 A 
ATOM     16  C   UNL     1      -0.639   9.686  17.695  0.00  0.00    +0.000 A 
ENDBRANCH   9  10
ENDBRANCH   5   9
ENDBRANCH   1   6
BRANCH   2  17
ATOM     17  C   UNL     1       3.267   4.506  19.427  0.00  0.00    +0.000 A 
ATOM     18  C   UNL     1       3.108   3.149  19.232  0.00  0.00    +0.000 A 
ATOM     19  C   UNL     1       3.833   2.817  18.071  0.00  0.00    +0.000 A 
ATOM     20  C   UNL     1       4.396   3.988  17.599  0.00  0.00    +0.000 A 
ATOM     21  O   UNL     1       4.051   5.025  18.433  0.00  0.00    +0.000 OA
BRANCH  20  22
ATOM     22  C   UNL     1       5.219   4.303  16.428  0.00  0.00    +0.000 A 
ATOM     23  C   UNL     1       6.494   4.877  16.598  0.00  0.00    +0.000 A 
ATOM     24  C   UNL     1       7.326   5.144  15.505  0.00  0.00    +0.000 A 
ATOM     25  C   UNL     1       6.882   4.839  14.215  0.00  0.00    +0.000 A 
ATOM     26  C   UNL     1       5.612   4.286  14.018  0.00  0.00    +0.000 A 
ATOM     27  C   UNL     1       4.788   4.024  15.123  0.00  0.00    +0.000 A 
BRANCH  25  28
ATOM     28  N   UNL     1       7.760   5.089  13.064  0.00  0.00    +0.000 N 
ATOM     29  O   UNL     1       7.495   4.509  12.001  0.00  0.00    +0.000 OA
ATOM     30  O   UNL     1       8.709   5.869  13.222  0.00  0.00    +0.000 OA
ENDBRANCH  25  28
ENDBRANCH  20  22
ENDBRANCH   2  17
TORSDOF 6
ENDMDL
MODEL 9
REMARK VINA RESULT:      -7.9      1.080      1.466
REMARK  Name = 
REMARK  6 active torsions:
REMARK  status: ('A' for Active; 'I' for Inactive)
REMARK    1  A    between atoms: N_3  and  C_4
REMARK    2  A    between atoms: C_4  and  C_5
REMARK    3  A    between atoms: N_12  and  N_13
REMARK    4  A    between atoms: C_14  and  C_15
REMARK    5  A    between atoms: C_18  and  C_19
REMARK    6  A    between atoms: C_22  and  N_23
REMARK                            x       y       z     vdW  Elec       q    Type
REMARK                         _______ _______ _______ _____ _____    ______ ____
ROOT
ATOM      1  N   UNL     1       0.537   7.679  20.911  0.00  0.00    +0.000 NA
ATOM      2  C   UNL     1       1.793   7.350  20.915  0.00  0.00    +0.000 C 
ENDROOT
BRANCH   1   6
ATOM      3  O   UNL     1      -0.431  10.951  21.771  0.00  0.00    +0.000 OA
ATOM      4  C   UNL     1      -0.137   9.978  21.083  0.00  0.00    +0.000 C 
ATOM      5  N   UNL     1      -0.088   9.985  19.717  0.00  0.00    +0.000 N 
ATOM      6  N   UNL     1       0.199   8.772  21.658  0.00  0.00    +0.000 N 
ATOM      7  H   UNL     1      -0.076   9.062  19.304  0.00  0.00    +0.000 HD
ATOM      8  H   UNL     1       0.217   8.748  22.671  0.00  0.00    +0.000 HD
BRANCH   5   9
ATOM      9  C   UNL     1      -0.515  11.128  18.947  0.00  0.00    +0.000 C 
BRANCH   9  10
ATOM     10  C   UNL     1      -2.011  11.156  18.736  0.00  0.00    +0.000 A 
ATOM     11  C   UNL     1      -2.804  12.148  19.333  0.00  0.00    +0.000 A 
ATOM     12  C   UNL     1      -4.181  12.199  19.093  0.00  0.00    +0.000 A 
ATOM     13  C   UNL     1      -4.774  11.259  18.253  0.00  0.00    +0.000 A 
ATOM     14 CL   UNL     1      -6.467  11.324  17.957  0.00  0.00    +0.000 Cl
ATOM     15  C   UNL     1      -4.001  10.271  17.646  0.00  0.00    +0.000 A 
ATOM     16  C   UNL     1      -2.624  10.221  17.886  0.00  0.00    +0.000 A 
ENDBRANCH   9  10
ENDBRANCH   5   9
ENDBRANCH   1   6
BRANCH   2  17
ATOM     17  C   UNL     1       2.223   6.221  20.138  0.00  0.00    +0.000 A 
ATOM     18  C   UNL     1       1.852   4.893  20.212  0.00  0.00    +0.000 A 
ATOM     19  C   UNL     1       2.574   4.213  19.212  0.00  0.00    +0.000 A 
ATOM     20  C   UNL     1       3.349   5.156  18.562  0.00  0.00    +0.000 A 
ATOM     21  O   UNL     1       3.136   6.388  19.132  0.00  0.00    +0.000 OA
BRANCH  20  22
ATOM     22  C   UNL     1       4.276   5.082  17.429  0.00  0.00    +0.000 A 
ATOM     23  C   UNL     1       4.852   3.848  17.071  0.00  0.00    +0.000 A 
ATOM     24  C   UNL     1       5.703   3.734  15.965  0.00  0.00    +0.000 A 
ATOM     25  C   UNL     1       5.989   4.867  15.200  0.00  0.00    +0.000 A 
ATOM     26  C   UNL     1       5.444   6.109  15.546  0.00  0.00    +0.000 A 
ATOM     27  C   UNL     1       4.594   6.210  16.657  0.00  0.00    +0.000 A 
BRANCH  25  28
ATOM     28  N   UNL     1       6.857   4.751  14.020  0.00  0.00    +0.000 N 
ATOM     29  O   UNL     1       7.754   5.594  13.880  0.00  0.00    +0.000 OA
ATOM     30  O   UNL     1       6.644   3.814  13.239  0.00  0.00    +0.000 OA
ENDBRANCH  25  28
ENDBRANCH  20  22
ENDBRANCH   2  17
TORSDOF 6
ENDMDL
