MODEL 1
REMARK VINA RESULT:      -7.7      0.000      0.000
REMARK  Name = 
REMARK  14 active torsions:
REMARK  status: ('A' for Active; 'I' for Inactive)
REMARK    1  A    between atoms: C_1  and  S_2
REMARK    2  A    between atoms: S_2  and  C_3
REMARK    3  A    between atoms: C_5  and  C_6
REMARK    4  A    between atoms: C_7  and  C_8
REMARK    5  A    between atoms: C_8  and  O_9
REMARK    6  A    between atoms: O_9  and  C_10
REMARK    7  A    between atoms: C_13  and  C_14
REMARK    8  A    between atoms: C_14  and  C_15
REMARK    9  A    between atoms: C_14  and  C_16
REMARK   10  A    between atoms: C_14  and  C_17
REMARK   11  A    between atoms: C_21  and  O_22
REMARK   12  A    between atoms: O_22  and  C_23
REMARK   13  A    between atoms: C_23  and  C_24
REMARK   14  A    between atoms: C_26  and  C_27
REMARK                            x       y       z     vdW  Elec       q    Type
REMARK                         _______ _______ _______ _____ _____    ______ ____
ROOT
ATOM      1  C   UNL     1       2.653   7.065  18.575  0.00  0.00    +0.000 A 
ATOM      2  C   UNL     1       2.625   8.059  17.606  0.00  0.00    +0.000 A 
ATOM      3  C   UNL     1       2.052   9.296  17.880  0.00  0.00    +0.000 A 
ATOM      4  C   UNL     1       1.445   9.570  19.120  0.00  0.00    +0.000 A 
ATOM      5  C   UNL     1       1.479   8.547  20.087  0.00  0.00    +0.000 A 
ATOM      6  C   UNL     1       2.061   7.300  19.813  0.00  0.00    +0.000 A 
ENDROOT
BRANCH   4   7
ATOM      7  C   UNL     1       0.762  10.940  19.378  0.00  0.00    +0.000 C 
ATOM      8  C   UNL     1       0.730  11.271  20.897  0.00  0.00    +0.000 C 
ATOM      9  C   UNL     1       1.646  12.052  18.738  0.00  0.00    +0.000 C 
BRANCH   7  10
ATOM     10  C   UNL     1      -0.701  11.007  18.869  0.00  0.00    +0.000 A 
ATOM     11  C   UNL     1      -1.153  10.269  17.765  0.00  0.00    +0.000 A 
ATOM     12  C   UNL     1      -2.498  10.318  17.356  0.00  0.00    +0.000 A 
ATOM     13 CL   UNL     1      -2.938   9.391  15.957  0.00  0.00    +0.000 Cl
ATOM     14  C   UNL     1      -3.455  11.092  18.039  0.00  0.00    +0.000 A 
ATOM     15  C   UNL     1      -3.030  11.795  19.175  0.00  0.00    +0.000 A 
ATOM     16  C   UNL     1      -1.675  11.748  19.561  0.00  0.00    +0.000 A 
BRANCH  15  17
ATOM     17  C   UNL     1      -3.898  12.554  20.022  0.00  0.00    +0.000 C 
ATOM     18  N   UNL     1      -4.632  13.137  20.715  0.00  0.00    +0.000 NA
ENDBRANCH  15  17
BRANCH  14  19
ATOM     19  O   UNL     1      -4.735  11.019  17.552  0.00  0.00    +0.000 OA
BRANCH  19  20
ATOM     20  C   UNL     1      -5.285  12.160  16.886  0.00  0.00    +0.000 C 
BRANCH  20  21
ATOM     21  C   UNL     1      -6.693  12.404  17.412  0.00  0.00    +0.000 C 
ATOM     22 CL   UNL     1      -7.057  11.308  18.764  0.00  0.00    +0.000 Cl
ENDBRANCH  20  21
ENDBRANCH  19  20
ENDBRANCH  14  19
ENDBRANCH   7  10
ENDBRANCH   4   7
BRANCH   1  23
ATOM     23  O   UNL     1       3.240   5.842  18.402  0.00  0.00    +0.000 OA
BRANCH  23  24
ATOM     24  C   UNL     1       4.472   5.691  19.116  0.00  0.00    +0.000 C 
BRANCH  24  29
ATOM     25  C   UNL     1       6.196   4.556  16.236  0.00  0.00    +0.000 A 
ATOM     26  N   UNL     1       7.303   4.839  16.894  0.00  0.00    +0.000 NA
ATOM     27  C   UNL     1       6.870   5.333  18.103  0.00  0.00    +0.000 A 
ATOM     28  C   UNL     1       7.808   5.795  19.142  0.00  0.00    +0.000 C 
ATOM     29  C   UNL     1       5.493   5.311  18.130  0.00  0.00    +0.000 A 
ATOM     30  O   UNL     1       5.054   4.808  16.942  0.00  0.00    +0.000 OA
BRANCH  25  32
ATOM     31  C   UNL     1       7.347   5.020  13.830  0.00  0.00    +0.000 C 
ATOM     32  S   UNL     1       6.147   3.930  14.616  0.00  0.00    +0.000 S 
ENDBRANCH  25  32
ENDBRANCH  24  29
ENDBRANCH  23  24
ENDBRANCH   1  23
TORSDOF 10
ENDMDL
MODEL 2
REMARK VINA RESULT:      -7.5      2.119      2.683
REMARK  Name = 
REMARK  14 active torsions:
REMARK  status: ('A' for Active; 'I' for Inactive)
REMARK    1  A    between atoms: C_1  and  S_2
REMARK    2  A    between atoms: S_2  and  C_3
REMARK    3  A    between atoms: C_5  and  C_6
REMARK    4  A    between atoms: C_7  and  C_8
REMARK    5  A    between atoms: C_8  and  O_9
REMARK    6  A    between atoms: O_9  and  C_10
REMARK    7  A    between atoms: C_13  and  C_14
REMARK    8  A    between atoms: C_14  and  C_15
REMARK    9  A    between atoms: C_14  and  C_16
REMARK   10  A    between atoms: C_14  and  C_17
REMARK   11  A    between atoms: C_21  and  O_22
REMARK   12  A    between atoms: O_22  and  C_23
REMARK   13  A    between atoms: C_23  and  C_24
REMARK   14  A    between atoms: C_26  and  C_27
REMARK                            x       y       z     vdW  Elec       q    Type
REMARK                         _______ _______ _______ _____ _____    ______ ____
ROOT
ATOM      1  C   UNL     1       1.979   7.154  19.902  0.00  0.00    +0.000 A 
ATOM      2  C   UNL     1       2.142   7.858  18.716  0.00  0.00    +0.000 A 
ATOM      3  C   UNL     1       1.730   9.182  18.619  0.00  0.00    +0.000 A 
ATOM      4  C   UNL     1       1.099   9.841  19.691  0.00  0.00    +0.000 A 
ATOM      5  C   UNL     1       0.938   9.108  20.883  0.00  0.00    +0.000 A 
ATOM      6  C   UNL     1       1.357   7.772  20.983  0.00  0.00    +0.000 A 
ENDROOT
BRANCH   4   7
ATOM      7  C   UNL     1       0.598  11.301  19.536  0.00  0.00    +0.000 C 
ATOM      8  C   UNL     1       0.713  12.077  20.879  0.00  0.00    +0.000 C 
ATOM      9  C   UNL     1       1.555  12.042  18.554  0.00  0.00    +0.000 C 
BRANCH   7  10
ATOM     10  C   UNL     1      -0.881  11.402  19.080  0.00  0.00    +0.000 A 
ATOM     11  C   UNL     1      -1.866  12.045  19.844  0.00  0.00    +0.000 A 
ATOM     12  C   UNL     1      -3.189  12.158  19.381  0.00  0.00    +0.000 A 
ATOM     13 CL   UNL     1      -4.332  12.942  20.424  0.00  0.00    +0.000 Cl
ATOM     14  C   UNL     1      -3.585  11.651  18.129  0.00  0.00    +0.000 A 
ATOM     15  C   UNL     1      -2.600  11.051  17.331  0.00  0.00    +0.000 A 
ATOM     16  C   UNL     1      -1.283  10.930  17.818  0.00  0.00    +0.000 A 
BRANCH  15  17
ATOM     17  C   UNL     1      -2.826  10.566  16.004  0.00  0.00    +0.000 C 
ATOM     18  N   UNL     1      -2.966  10.172  14.916  0.00  0.00    +0.000 NA
ENDBRANCH  15  17
BRANCH  14  19
ATOM     19  O   UNL     1      -4.898  11.861  17.790  0.00  0.00    +0.000 OA
BRANCH  19  20
ATOM     20  C   UNL     1      -5.857  10.842  18.083  0.00  0.00    +0.000 C 
BRANCH  20  21
ATOM     21  C   UNL     1      -7.103  11.493  18.669  0.00  0.00    +0.000 C 
ATOM     22 CL   UNL     1      -7.452  10.839  20.285  0.00  0.00    +0.000 Cl
ENDBRANCH  20  21
ENDBRANCH  19  20
ENDBRANCH  14  19
ENDBRANCH   7  10
ENDBRANCH   4   7
BRANCH   1  23
ATOM     23  O   UNL     1       2.401   5.868  20.094  0.00  0.00    +0.000 OA
BRANCH  23  24
ATOM     24  C   UNL     1       2.464   5.100  18.888  0.00  0.00    +0.000 C 
BRANCH  24  29
ATOM     25  C   UNL     1       5.851   5.149  17.847  0.00  0.00    +0.000 A 
ATOM     26  N   UNL     1       5.975   4.008  18.494  0.00  0.00    +0.000 NA
ATOM     27  C   UNL     1       4.727   3.771  19.023  0.00  0.00    +0.000 A 
ATOM     28  C   UNL     1       4.439   2.587  19.851  0.00  0.00    +0.000 C 
ATOM     29  C   UNL     1       3.881   4.793  18.651  0.00  0.00    +0.000 A 
ATOM     30  O   UNL     1       4.590   5.675  17.891  0.00  0.00    +0.000 OA
BRANCH  25  32
ATOM     31  C   UNL     1       7.901   6.832  18.388  0.00  0.00    +0.000 C 
ATOM     32  S   UNL     1       7.143   5.952  17.009  0.00  0.00    +0.000 S 
ENDBRANCH  25  32
ENDBRANCH  24  29
ENDBRANCH  23  24
ENDBRANCH   1  23
TORSDOF 10
ENDMDL
MODEL 3
REMARK VINA RESULT:      -7.5      0.662      1.075
REMARK  Name = 
REMARK  14 active torsions:
REMARK  status: ('A' for Active; 'I' for Inactive)
REMARK    1  A    between atoms: C_1  and  S_2
REMARK    2  A    between atoms: S_2  and  C_3
REMARK    3  A    between atoms: C_5  and  C_6
REMARK    4  A    between atoms: C_7  and  C_8
REMARK    5  A    between atoms: C_8  and  O_9
REMARK    6  A    between atoms: O_9  and  C_10
REMARK    7  A    between atoms: C_13  and  C_14
REMARK    8  A    between atoms: C_14  and  C_15
REMARK    9  A    between atoms: C_14  and  C_16
REMARK   10  A    between atoms: C_14  and  C_17
REMARK   11  A    between atoms: C_21  and  O_22
REMARK   12  A    between atoms: O_22  and  C_23
REMARK   13  A    between atoms: C_23  and  C_24
REMARK   14  A    between atoms: C_26  and  C_27
REMARK                            x       y       z     vdW  Elec       q    Type
REMARK                         _______ _______ _______ _____ _____    ______ ____
ROOT
ATOM      1  C   UNL     1       2.610   7.114  18.559  0.00  0.00    +0.000 A 
ATOM      2  C   UNL     1       2.059   7.235  19.828  0.00  0.00    +0.000 A 
ATOM      3  C   UNL     1       1.402   8.401  20.204  0.00  0.00    +0.000 A 
ATOM      4  C   UNL     1       1.309   9.508  19.339  0.00  0.00    +0.000 A 
ATOM      5  C   UNL     1       1.878   9.367  18.059  0.00  0.00    +0.000 A 
ATOM      6  C   UNL     1       2.539   8.189  17.678  0.00  0.00    +0.000 A 
ENDROOT
BRANCH   4   7
ATOM      7  C   UNL     1       0.619  10.817  19.806  0.00  0.00    +0.000 C 
ATOM      8  C   UNL     1       0.438  10.834  21.350  0.00  0.00    +0.000 C 
ATOM      9  C   UNL     1       1.573  12.009  19.494  0.00  0.00    +0.000 C 
BRANCH   7  10
ATOM     10  C   UNL     1      -0.786  11.031  19.184  0.00  0.00    +0.000 A 
ATOM     11  C   UNL     1      -1.226  10.333  18.050  0.00  0.00    +0.000 A 
ATOM     12  C   UNL     1      -2.523  10.517  17.537  0.00  0.00    +0.000 A 
ATOM     13 CL   UNL     1      -2.947   9.627  16.110  0.00  0.00    +0.000 Cl
ATOM     14  C   UNL     1      -3.444  11.393  18.142  0.00  0.00    +0.000 A 
ATOM     15  C   UNL     1      -3.036  12.059  19.306  0.00  0.00    +0.000 A 
ATOM     16  C   UNL     1      -1.728  11.876  19.797  0.00  0.00    +0.000 A 
BRANCH  15  17
ATOM     17  C   UNL     1      -3.883  12.913  20.082  0.00  0.00    +0.000 C 
ATOM     18  N   UNL     1      -4.604  13.576  20.715  0.00  0.00    +0.000 NA
ENDBRANCH  15  17
BRANCH  14  19
ATOM     19  O   UNL     1      -4.683  11.449  17.557  0.00  0.00    +0.000 OA
BRANCH  19  20
ATOM     20  C   UNL     1      -5.801  10.895  18.257  0.00  0.00    +0.000 C 
BRANCH  20  21
ATOM     21  C   UNL     1      -7.016  11.784  18.022  0.00  0.00    +0.000 C 
ATOM     22 CL   UNL     1      -6.513  13.427  17.568  0.00  0.00    +0.000 Cl
ENDBRANCH  20  21
ENDBRANCH  19  20
ENDBRANCH  14  19
ENDBRANCH   7  10
ENDBRANCH   4   7
BRANCH   1  23
ATOM     23  O   UNL     1       3.228   5.985  18.096  0.00  0.00    +0.000 OA
BRANCH  23  24
ATOM     24  C   UNL     1       4.380   5.610  18.858  0.00  0.00    +0.000 C 
BRANCH  24  29
ATOM     25  C   UNL     1       6.207   4.545  16.014  0.00  0.00    +0.000 A 
ATOM     26  N   UNL     1       7.288   4.863  16.698  0.00  0.00    +0.000 NA
ATOM     27  C   UNL     1       6.812   5.337  17.898  0.00  0.00    +0.000 A 
ATOM     28  C   UNL     1       7.710   5.826  18.959  0.00  0.00    +0.000 C 
ATOM     29  C   UNL     1       5.436   5.268  17.893  0.00  0.00    +0.000 A 
ATOM     30  O   UNL     1       5.041   4.755  16.695  0.00  0.00    +0.000 OA
BRANCH  25  32
ATOM     31  C   UNL     1       7.453   5.006  13.655  0.00  0.00    +0.000 C 
ATOM     32  S   UNL     1       6.215   3.923  14.392  0.00  0.00    +0.000 S 
ENDBRANCH  25  32
ENDBRANCH  24  29
ENDBRANCH  23  24
ENDBRANCH   1  23
TORSDOF 10
ENDMDL
MODEL 4
REMARK VINA RESULT:      -7.5      1.776      2.289
REMARK  Name = 
REMARK  14 active torsions:
REMARK  status: ('A' for Active; 'I' for Inactive)
REMARK    1  A    between atoms: C_1  and  S_2
REMARK    2  A    between atoms: S_2  and  C_3
REMARK    3  A    between atoms: C_5  and  C_6
REMARK    4  A    between atoms: C_7  and  C_8
REMARK    5  A    between atoms: C_8  and  O_9
REMARK    6  A    between atoms: O_9  and  C_10
REMARK    7  A    between atoms: C_13  and  C_14
REMARK    8  A    between atoms: C_14  and  C_15
REMARK    9  A    between atoms: C_14  and  C_16
REMARK   10  A    between atoms: C_14  and  C_17
REMARK   11  A    between atoms: C_21  and  O_22
REMARK   12  A    between atoms: O_22  and  C_23
REMARK   13  A    between atoms: C_23  and  C_24
REMARK   14  A    between atoms: C_26  and  C_27
REMARK                            x       y       z     vdW  Elec       q    Type
REMARK                         _______ _______ _______ _____ _____    ______ ____
ROOT
ATOM      1  C   UNL     1       2.642   7.008  18.474  0.00  0.00    +0.000 A 
ATOM      2  C   UNL     1       2.067   7.237  19.718  0.00  0.00    +0.000 A 
ATOM      3  C   UNL     1       1.488   8.466  20.013  0.00  0.00    +0.000 A 
ATOM      4  C   UNL     1       1.500   9.529  19.091  0.00  0.00    +0.000 A 
ATOM      5  C   UNL     1       2.092   9.279  17.838  0.00  0.00    +0.000 A 
ATOM      6  C   UNL     1       2.674   8.037  17.538  0.00  0.00    +0.000 A 
ENDROOT
BRANCH   4   7
ATOM      7  C   UNL     1       0.896  10.907  19.468  0.00  0.00    +0.000 C 
ATOM      8  C   UNL     1       0.954  11.141  21.005  0.00  0.00    +0.000 C 
ATOM      9  C   UNL     1       1.798  12.019  18.853  0.00  0.00    +0.000 C 
BRANCH   7  10
ATOM     10  C   UNL     1      -0.586  11.071  19.041  0.00  0.00    +0.000 A 
ATOM     11  C   UNL     1      -1.509  11.824  19.782  0.00  0.00    +0.000 A 
ATOM     12  C   UNL     1      -2.835  11.988  19.344  0.00  0.00    +0.000 A 
ATOM     13 CL   UNL     1      -3.898  12.910  20.358  0.00  0.00    +0.000 Cl
ATOM     14  C   UNL     1      -3.295  11.425  18.140  0.00  0.00    +0.000 A 
ATOM     15  C   UNL     1      -2.371  10.713  17.362  0.00  0.00    +0.000 A 
ATOM     16  C   UNL     1      -1.051  10.542  17.824  0.00  0.00    +0.000 A 
BRANCH  15  17
ATOM     17  C   UNL     1      -2.663  10.155  16.076  0.00  0.00    +0.000 C 
ATOM     18  N   UNL     1      -2.881   9.663  15.042  0.00  0.00    +0.000 NA
ENDBRANCH  15  17
BRANCH  14  19
ATOM     19  O   UNL     1      -4.601  11.695  17.818  0.00  0.00    +0.000 OA
BRANCH  19  20
ATOM     20  C   UNL     1      -5.619  10.785  18.247  0.00  0.00    +0.000 C 
BRANCH  20  21
ATOM     21  C   UNL     1      -6.967  11.490  18.181  0.00  0.00    +0.000 C 
ATOM     22 CL   UNL     1      -6.757  13.254  18.246  0.00  0.00    +0.000 Cl
ENDBRANCH  20  21
ENDBRANCH  19  20
ENDBRANCH  14  19
ENDBRANCH   7  10
ENDBRANCH   4   7
BRANCH   1  23
ATOM     23  O   UNL     1       3.187   5.815  18.089  0.00  0.00    +0.000 OA
BRANCH  23  24
ATOM     24  C   UNL     1       4.265   5.382  18.925  0.00  0.00    +0.000 C 
BRANCH  24  29
ATOM     25  C   UNL     1       6.544   5.160  16.220  0.00  0.00    +0.000 A 
ATOM     26  N   UNL     1       7.494   5.317  17.122  0.00  0.00    +0.000 NA
ATOM     27  C   UNL     1       6.821   5.443  18.316  0.00  0.00    +0.000 A 
ATOM     28  C   UNL     1       7.524   5.660  19.592  0.00  0.00    +0.000 C 
ATOM     29  C   UNL     1       5.467   5.338  18.080  0.00  0.00    +0.000 A 
ATOM     30  O   UNL     1       5.282   5.149  16.744  0.00  0.00    +0.000 OA
BRANCH  25  32
ATOM     31  C   UNL     1       5.444   3.914  14.084  0.00  0.00    +0.000 C 
ATOM     32  S   UNL     1       6.825   4.990  14.515  0.00  0.00    +0.000 S 
ENDBRANCH  25  32
ENDBRANCH  24  29
ENDBRANCH  23  24
ENDBRANCH   1  23
TORSDOF 10
ENDMDL
MODEL 5
REMARK VINA RESULT:      -7.2      2.066      2.665
REMARK  Name = 
REMARK  14 active torsions:
REMARK  status: ('A' for Active; 'I' for Inactive)
REMARK    1  A    between atoms: C_1  and  S_2
REMARK    2  A    between atoms: S_2  and  C_3
REMARK    3  A    between atoms: C_5  and  C_6
REMARK    4  A    between atoms: C_7  and  C_8
REMARK    5  A    between atoms: C_8  and  O_9
REMARK    6  A    between atoms: O_9  and  C_10
REMARK    7  A    between atoms: C_13  and  C_14
REMARK    8  A    between atoms: C_14  and  C_15
REMARK    9  A    between atoms: C_14  and  C_16
REMARK   10  A    between atoms: C_14  and  C_17
REMARK   11  A    between atoms: C_21  and  O_22
REMARK   12  A    between atoms: O_22  and  C_23
REMARK   13  A    between atoms: C_23  and  C_24
REMARK   14  A    between atoms: C_26  and  C_27
REMARK                            x       y       z     vdW  Elec       q    Type
REMARK                         _______ _______ _______ _____ _____    ______ ____
ROOT
ATOM      1  C   UNL     1       2.018   7.559  19.683  0.00  0.00    +0.000 A 
ATOM      2  C   UNL     1       1.443   8.132  20.810  0.00  0.00    +0.000 A 
ATOM      3  C   UNL     1       0.808   9.365  20.728  0.00  0.00    +0.000 A 
ATOM      4  C   UNL     1       0.760  10.094  19.525  0.00  0.00    +0.000 A 
ATOM      5  C   UNL     1       1.353   9.498  18.395  0.00  0.00    +0.000 A 
ATOM      6  C   UNL     1       1.992   8.251  18.476  0.00  0.00    +0.000 A 
ENDROOT
BRANCH   4   7
ATOM      7  C   UNL     1       0.093  11.494  19.477  0.00  0.00    +0.000 C 
ATOM      8  C   UNL     1       0.077  12.155  20.885  0.00  0.00    +0.000 C 
ATOM      9  C   UNL     1       0.980  12.427  18.599  0.00  0.00    +0.000 C 
BRANCH   7  10
ATOM     10  C   UNL     1      -1.375  11.462  18.976  0.00  0.00    +0.000 A 
ATOM     11  C   UNL     1      -2.447  11.942  19.744  0.00  0.00    +0.000 A 
ATOM     12  C   UNL     1      -3.761  11.939  19.243  0.00  0.00    +0.000 A 
ATOM     13 CL   UNL     1      -5.013  12.524  20.292  0.00  0.00    +0.000 Cl
ATOM     14  C   UNL     1      -4.063  11.474  17.949  0.00  0.00    +0.000 A 
ATOM     15  C   UNL     1      -2.995  11.039  17.151  0.00  0.00    +0.000 A 
ATOM     16  C   UNL     1      -1.687  11.032  17.675  0.00  0.00    +0.000 A 
BRANCH  15  17
ATOM     17  C   UNL     1      -3.128  10.620  15.789  0.00  0.00    +0.000 C 
ATOM     18  N   UNL     1      -3.192  10.276  14.677  0.00  0.00    +0.000 NA
ENDBRANCH  15  17
BRANCH  14  19
ATOM     19  O   UNL     1      -5.380  11.562  17.578  0.00  0.00    +0.000 OA
BRANCH  19  20
ATOM     20  C   UNL     1      -5.816  12.712  16.848  0.00  0.00    +0.000 C 
BRANCH  20  21
ATOM     21  C   UNL     1      -7.119  13.216  17.456  0.00  0.00    +0.000 C 
ATOM     22 CL   UNL     1      -6.904  14.842  18.141  0.00  0.00    +0.000 Cl
ENDBRANCH  20  21
ENDBRANCH  19  20
ENDBRANCH  14  19
ENDBRANCH   7  10
ENDBRANCH   4   7
BRANCH   1  23
ATOM     23  O   UNL     1       2.617   6.330  19.669  0.00  0.00    +0.000 OA
BRANCH  23  24
ATOM     24  C   UNL     1       2.388   5.594  18.462  0.00  0.00    +0.000 C 
BRANCH  24  29
ATOM     25  C   UNL     1       5.458   4.836  16.862  0.00  0.00    +0.000 A 
ATOM     26  N   UNL     1       5.586   3.876  17.756  0.00  0.00    +0.000 NA
ATOM     27  C   UNL     1       4.461   3.981  18.541  0.00  0.00    +0.000 A 
ATOM     28  C   UNL     1       4.223   3.091  19.691  0.00  0.00    +0.000 C 
ATOM     29  C   UNL     1       3.678   5.011  18.068  0.00  0.00    +0.000 A 
ATOM     30  O   UNL     1       4.304   5.558  16.989  0.00  0.00    +0.000 OA
BRANCH  25  32
ATOM     31  C   UNL     1       6.043   4.088  14.327  0.00  0.00    +0.000 C 
ATOM     32  S   UNL     1       6.625   5.194  15.626  0.00  0.00    +0.000 S 
ENDBRANCH  25  32
ENDBRANCH  24  29
ENDBRANCH  23  24
ENDBRANCH   1  23
TORSDOF 10
ENDMDL
MODEL 6
REMARK VINA RESULT:      -7.2      1.529      2.180
REMARK  Name = 
REMARK  14 active torsions:
REMARK  status: ('A' for Active; 'I' for Inactive)
REMARK    1  A    between atoms: C_1  and  S_2
REMARK    2  A    between atoms: S_2  and  C_3
REMARK    3  A    between atoms: C_5  and  C_6
REMARK    4  A    between atoms: C_7  and  C_8
REMARK    5  A    between atoms: C_8  and  O_9
REMARK    6  A    between atoms: O_9  and  C_10
REMARK    7  A    between atoms: C_13  and  C_14
REMARK    8  A    between atoms: C_14  and  C_15
REMARK    9  A    between atoms: C_14  and  C_16
REMARK   10  A    between atoms: C_14  and  C_17
REMARK   11  A    between atoms: C_21  and  O_22
REMARK   12  A    between atoms: O_22  and  C_23
REMARK   13  A    between atoms: C_23  and  C_24
REMARK   14  A    between atoms: C_26  and  C_27
REMARK                            x       y       z     vdW  Elec       q    Type
REMARK                         _______ _______ _______ _____ _____    ______ ____
ROOT
ATOM      1  C   UNL     1       2.029   7.853  19.298  0.00  0.00    +0.000 A 
ATOM      2  C   UNL     1       1.396   8.296  20.451  0.00  0.00    +0.000 A 
ATOM      3  C   UNL     1       0.751   9.528  20.474  0.00  0.00    +0.000 A 
ATOM      4  C   UNL     1       0.752  10.383  19.356  0.00  0.00    +0.000 A 
ATOM      5  C   UNL     1       1.404   9.918  18.198  0.00  0.00    +0.000 A 
ATOM      6  C   UNL     1       2.052   8.673  18.173  0.00  0.00    +0.000 A 
ENDROOT
BRANCH   4   7
ATOM      7  C   UNL     1       0.072  11.776  19.428  0.00  0.00    +0.000 C 
ATOM      8  C   UNL     1       0.085  12.330  20.881  0.00  0.00    +0.000 C 
ATOM      9  C   UNL     1       0.931  12.780  18.602  0.00  0.00    +0.000 C 
BRANCH   7  10
ATOM     10  C   UNL     1      -1.407  11.767  18.961  0.00  0.00    +0.000 A 
ATOM     11  C   UNL     1      -1.806  11.243  17.722  0.00  0.00    +0.000 A 
ATOM     12  C   UNL     1      -3.161  11.210  17.348  0.00  0.00    +0.000 A 
ATOM     13 CL   UNL     1      -3.536  10.572  15.779  0.00  0.00    +0.000 Cl
ATOM     14  C   UNL     1      -4.179  11.682  18.197  0.00  0.00    +0.000 A 
ATOM     15  C   UNL     1      -3.801  12.161  19.459  0.00  0.00    +0.000 A 
ATOM     16  C   UNL     1      -2.437  12.203  19.812  0.00  0.00    +0.000 A 
BRANCH  15  17
ATOM     17  C   UNL     1      -4.723  12.594  20.464  0.00  0.00    +0.000 C 
ATOM     18  N   UNL     1      -5.450  12.924  21.314  0.00  0.00    +0.000 NA
ENDBRANCH  15  17
BRANCH  14  19
ATOM     19  O   UNL     1      -5.459  11.557  17.718  0.00  0.00    +0.000 OA
BRANCH  19  20
ATOM     20  C   UNL     1      -6.089  12.698  17.130  0.00  0.00    +0.000 C 
BRANCH  20  21
ATOM     21  C   UNL     1      -7.422  12.937  17.827  0.00  0.00    +0.000 C 
ATOM     22 CL   UNL     1      -7.395  14.474  18.721  0.00  0.00    +0.000 Cl
ENDBRANCH  20  21
ENDBRANCH  19  20
ENDBRANCH  14  19
ENDBRANCH   7  10
ENDBRANCH   4   7
BRANCH   1  23
ATOM     23  O   UNL     1       2.642   6.636  19.179  0.00  0.00    +0.000 OA
BRANCH  23  24
ATOM     24  C   UNL     1       2.154   5.853  18.085  0.00  0.00    +0.000 C 
BRANCH  24  29
ATOM     25  C   UNL     1       5.265   4.847  16.717  0.00  0.00    +0.000 A 
ATOM     26  N   UNL     1       4.822   3.612  16.845  0.00  0.00    +0.000 NA
ATOM     27  C   UNL     1       3.568   3.748  17.396  0.00  0.00    +0.000 A 
ATOM     28  C   UNL     1       2.726   2.584  17.725  0.00  0.00    +0.000 C 
ATOM     29  C   UNL     1       3.296   5.088  17.565  0.00  0.00    +0.000 A 
ATOM     30  O   UNL     1       4.373   5.798  17.126  0.00  0.00    +0.000 OA
BRANCH  25  32
ATOM     31  C   UNL     1       7.296   6.540  17.295  0.00  0.00    +0.000 C 
ATOM     32  S   UNL     1       6.832   5.272  16.101  0.00  0.00    +0.000 S 
ENDBRANCH  25  32
ENDBRANCH  24  29
ENDBRANCH  23  24
ENDBRANCH   1  23
TORSDOF 10
ENDMDL
MODEL 7
REMARK VINA RESULT:      -7.2      2.392      3.000
REMARK  Name = 
REMARK  14 active torsions:
REMARK  status: ('A' for Active; 'I' for Inactive)
REMARK    1  A    between atoms: C_1  and  S_2
REMARK    2  A    between atoms: S_2  and  C_3
REMARK    3  A    between atoms: C_5  and  C_6
REMARK    4  A    between atoms: C_7  and  C_8
REMARK    5  A    between atoms: C_8  and  O_9
REMARK    6  A    between atoms: O_9  and  C_10
REMARK    7  A    between atoms: C_13  and  C_14
REMARK    8  A    between atoms: C_14  and  C_15
REMARK    9  A    between atoms: C_14  and  C_16
REMARK   10  A    between atoms: C_14  and  C_17
REMARK   11  A    between atoms: C_21  and  O_22
REMARK   12  A    between atoms: O_22  and  C_23
REMARK   13  A    between atoms: C_23  and  C_24
REMARK   14  A    between atoms: C_26  and  C_27
REMARK                            x       y       z     vdW  Elec       q    Type
REMARK                         _______ _______ _______ _____ _____    ______ ____
ROOT
ATOM      1  C   UNL     1       2.159   7.991  18.454  0.00  0.00    +0.000 A 
ATOM      2  C   UNL     1       1.569   8.096  19.706  0.00  0.00    +0.000 A 
ATOM      3  C   UNL     1       0.938   9.273  20.093  0.00  0.00    +0.000 A 
ATOM      4  C   UNL     1       0.911  10.406  19.258  0.00  0.00    +0.000 A 
ATOM      5  C   UNL     1       1.519  10.281  17.994  0.00  0.00    +0.000 A 
ATOM      6  C   UNL     1       2.154   9.092  17.602  0.00  0.00    +0.000 A 
ENDROOT
BRANCH   4   7
ATOM      7  C   UNL     1       0.248  11.724  19.738  0.00  0.00    +0.000 C 
ATOM      8  C   UNL     1       0.425  11.912  21.272  0.00  0.00    +0.000 C 
ATOM      9  C   UNL     1       1.012  12.918  19.090  0.00  0.00    +0.000 C 
BRANCH   7  10
ATOM     10  C   UNL     1      -1.274  11.793  19.447  0.00  0.00    +0.000 A 
ATOM     11  C   UNL     1      -2.186  12.397  20.325  0.00  0.00    +0.000 A 
ATOM     12  C   UNL     1      -3.554  12.482  20.011  0.00  0.00    +0.000 A 
ATOM     13 CL   UNL     1      -4.595  13.220  21.185  0.00  0.00    +0.000 Cl
ATOM     14  C   UNL     1      -4.071  11.983  18.801  0.00  0.00    +0.000 A 
ATOM     15  C   UNL     1      -3.164  11.421  17.890  0.00  0.00    +0.000 A 
ATOM     16  C   UNL     1      -1.799  11.329  18.228  0.00  0.00    +0.000 A 
BRANCH  15  17
ATOM     17  C   UNL     1      -3.521  10.950  16.587  0.00  0.00    +0.000 C 
ATOM     18  N   UNL     1      -3.769  10.559  15.517  0.00  0.00    +0.000 NA
ENDBRANCH  15  17
BRANCH  14  19
ATOM     19  O   UNL     1      -5.417  12.163  18.610  0.00  0.00    +0.000 OA
BRANCH  19  20
ATOM     20  C   UNL     1      -6.298  11.057  18.824  0.00  0.00    +0.000 C 
BRANCH  20  21
ATOM     21  C   UNL     1      -7.471  11.521  19.678  0.00  0.00    +0.000 C 
ATOM     22 CL   UNL     1      -7.756  13.262  19.459  0.00  0.00    +0.000 Cl
ENDBRANCH  20  21
ENDBRANCH  19  20
ENDBRANCH  14  19
ENDBRANCH   7  10
ENDBRANCH   4   7
BRANCH   1  23
ATOM     23  O   UNL     1       2.756   6.855  17.980  0.00  0.00    +0.000 OA
BRANCH  23  24
ATOM     24  C   UNL     1       4.160   7.001  17.746  0.00  0.00    +0.000 C 
BRANCH  24  29
ATOM     25  C   UNL     1       4.857   3.842  19.194  0.00  0.00    +0.000 A 
ATOM     26  N   UNL     1       6.130   4.152  19.042  0.00  0.00    +0.000 NA
ATOM     27  C   UNL     1       6.116   5.397  18.457  0.00  0.00    +0.000 A 
ATOM     28  C   UNL     1       7.357   6.105  18.094  0.00  0.00    +0.000 C 
ATOM     29  C   UNL     1       4.810   5.801  18.291  0.00  0.00    +0.000 A 
ATOM     30  O   UNL     1       3.998   4.816  18.767  0.00  0.00    +0.000 OA
BRANCH  25  32
ATOM     31  C   UNL     1       3.540   1.621  18.383  0.00  0.00    +0.000 C 
ATOM     32  S   UNL     1       4.280   2.345  19.859  0.00  0.00    +0.000 S 
ENDBRANCH  25  32
ENDBRANCH  24  29
ENDBRANCH  23  24
ENDBRANCH   1  23
TORSDOF 10
ENDMDL
MODEL 8
REMARK VINA RESULT:      -7.2      2.221      2.783
REMARK  Name = 
REMARK  14 active torsions:
REMARK  status: ('A' for Active; 'I' for Inactive)
REMARK    1  A    between atoms: C_1  and  S_2
REMARK    2  A    between atoms: S_2  and  C_3
REMARK    3  A    between atoms: C_5  and  C_6
REMARK    4  A    between atoms: C_7  and  C_8
REMARK    5  A    between atoms: C_8  and  O_9
REMARK    6  A    between atoms: O_9  and  C_10
REMARK    7  A    between atoms: C_13  and  C_14
REMARK    8  A    between atoms: C_14  and  C_15
REMARK    9  A    between atoms: C_14  and  C_16
REMARK   10  A    between atoms: C_14  and  C_17
REMARK   11  A    between atoms: C_21  and  O_22
REMARK   12  A    between atoms: O_22  and  C_23
REMARK   13  A    between atoms: C_23  and  C_24
REMARK   14  A    between atoms: C_26  and  C_27
REMARK                            x       y       z     vdW  Elec       q    Type
REMARK                         _______ _______ _______ _____ _____    ______ ____
ROOT
ATOM      1  C   UNL     1       1.935   7.481  19.429  0.00  0.00    +0.000 A 
ATOM      2  C   UNL     1       2.030   8.311  18.319  0.00  0.00    +0.000 A 
ATOM      3  C   UNL     1       1.643   9.644  18.400  0.00  0.00    +0.000 A 
ATOM      4  C   UNL     1       1.104  10.187  19.582  0.00  0.00    +0.000 A 
ATOM      5  C   UNL     1       1.011   9.327  20.693  0.00  0.00    +0.000 A 
ATOM      6  C   UNL     1       1.405   7.983  20.614  0.00  0.00    +0.000 A 
ENDROOT
BRANCH   4   7
ATOM      7  C   UNL     1       0.628  11.663  19.626  0.00  0.00    +0.000 C 
ATOM      8  C   UNL     1       1.024  12.338  20.970  0.00  0.00    +0.000 C 
ATOM      9  C   UNL     1       1.398  12.457  18.528  0.00  0.00    +0.000 C 
BRANCH   7  10
ATOM     10  C   UNL     1      -0.908  11.821  19.476  0.00  0.00    +0.000 A 
ATOM     11  C   UNL     1      -1.703  12.442  20.451  0.00  0.00    +0.000 A 
ATOM     12  C   UNL     1      -3.087  12.610  20.265  0.00  0.00    +0.000 A 
ATOM     13 CL   UNL     1      -3.977  13.360  21.550  0.00  0.00    +0.000 Cl
ATOM     14  C   UNL     1      -3.737  12.181  19.092  0.00  0.00    +0.000 A 
ATOM     15  C   UNL     1      -2.947  11.605  18.087  0.00  0.00    +0.000 A 
ATOM     16  C   UNL     1      -1.565  11.429  18.297  0.00  0.00    +0.000 A 
BRANCH  15  17
ATOM     17  C   UNL     1      -3.444  11.198  16.808  0.00  0.00    +0.000 C 
ATOM     18  N   UNL     1      -3.887  10.854  15.786  0.00  0.00    +0.000 NA
ENDBRANCH  15  17
BRANCH  14  19
ATOM     19  O   UNL     1      -5.083  12.439  19.030  0.00  0.00    +0.000 OA
BRANCH  19  20
ATOM     20  C   UNL     1      -6.000  11.409  19.409  0.00  0.00    +0.000 C 
BRANCH  20  21
ATOM     21  C   UNL     1      -7.042  11.250  18.309  0.00  0.00    +0.000 C 
ATOM     22 CL   UNL     1      -7.073  12.686  17.263  0.00  0.00    +0.000 Cl
ENDBRANCH  20  21
ENDBRANCH  19  20
ENDBRANCH  14  19
ENDBRANCH   7  10
ENDBRANCH   4   7
BRANCH   1  23
ATOM     23  O   UNL     1       2.340   6.175  19.445  0.00  0.00    +0.000 OA
BRANCH  23  24
ATOM     24  C   UNL     1       2.914   5.738  18.209  0.00  0.00    +0.000 C 
BRANCH  24  29
ATOM     25  C   UNL     1       6.420   5.514  18.675  0.00  0.00    +0.000 A 
ATOM     26  N   UNL     1       6.202   4.270  19.053  0.00  0.00    +0.000 NA
ATOM     27  C   UNL     1       4.838   4.114  18.963  0.00  0.00    +0.000 A 
ATOM     28  C   UNL     1       4.169   2.852  19.324  0.00  0.00    +0.000 C 
ATOM     29  C   UNL     1       4.281   5.290  18.510  0.00  0.00    +0.000 A 
ATOM     30  O   UNL     1       5.287   6.188  18.315  0.00  0.00    +0.000 OA
BRANCH  25  32
ATOM     31  C   UNL     1       7.616   7.668  17.551  0.00  0.00    +0.000 C 
ATOM     32  S   UNL     1       7.983   6.272  18.631  0.00  0.00    +0.000 S 
ENDBRANCH  25  32
ENDBRANCH  24  29
ENDBRANCH  23  24
ENDBRANCH   1  23
TORSDOF 10
ENDMDL
MODEL 9
REMARK VINA RESULT:      -7.1      1.518      2.030
REMARK  Name = 
REMARK  14 active torsions:
REMARK  status: ('A' for Active; 'I' for Inactive)
REMARK    1  A    between atoms: C_1  and  S_2
REMARK    2  A    between atoms: S_2  and  C_3
REMARK    3  A    between atoms: C_5  and  C_6
REMARK    4  A    between atoms: C_7  and  C_8
REMARK    5  A    between atoms: C_8  and  O_9
REMARK    6  A    between atoms: O_9  and  C_10
REMARK    7  A    between atoms: C_13  and  C_14
REMARK    8  A    between atoms: C_14  and  C_15
REMARK    9  A    between atoms: C_14  and  C_16
REMARK   10  A    between atoms: C_14  and  C_17
REMARK   11  A    between atoms: C_21  and  O_22
REMARK   12  A    between atoms: O_22  and  C_23
REMARK   13  A    between atoms: C_23  and  C_24
REMARK   14  A    between atoms: C_26  and  C_27
REMARK                            x       y       z     vdW  Elec       q    Type
REMARK                         _______ _______ _______ _____ _____    ______ ____
ROOT
ATOM      1  C   UNL     1       2.037   7.579  19.560  0.00  0.00    +0.000 A 
ATOM      2  C   UNL     1       2.080   8.374  18.422  0.00  0.00    +0.000 A 
ATOM      3  C   UNL     1       1.556   9.662  18.441  0.00  0.00    +0.000 A 
ATOM      4  C   UNL     1       0.931  10.189  19.586  0.00  0.00    +0.000 A 
ATOM      5  C   UNL     1       0.893   9.365  20.728  0.00  0.00    +0.000 A 
ATOM      6  C   UNL     1       1.425   8.066  20.711  0.00  0.00    +0.000 A 
ENDROOT
BRANCH   4   7
ATOM      7  C   UNL     1       0.305  11.609  19.561  0.00  0.00    +0.000 C 
ATOM      8  C   UNL     1       0.354  12.266  20.969  0.00  0.00    +0.000 C 
ATOM      9  C   UNL     1       1.193  12.516  18.657  0.00  0.00    +0.000 C 
BRANCH   7  10
ATOM     10  C   UNL     1      -1.177  11.623  19.106  0.00  0.00    +0.000 A 
ATOM     11  C   UNL     1      -1.628  10.931  17.972  0.00  0.00    +0.000 A 
ATOM     12  C   UNL     1      -2.987  10.928  17.612  0.00  0.00    +0.000 A 
ATOM     13 CL   UNL     1      -3.426  10.067  16.171  0.00  0.00    +0.000 Cl
ATOM     14  C   UNL     1      -3.960  11.601  18.374  0.00  0.00    +0.000 A 
ATOM     15  C   UNL     1      -3.533  12.254  19.539  0.00  0.00    +0.000 A 
ATOM     16  C   UNL     1      -2.165  12.262  19.876  0.00  0.00    +0.000 A 
BRANCH  15  17
ATOM     17  C   UNL     1      -4.411  12.907  20.462  0.00  0.00    +0.000 C 
ATOM     18  N   UNL     1      -5.102  13.477  21.208  0.00  0.00    +0.000 NA
ENDBRANCH  15  17
BRANCH  14  19
ATOM     19  O   UNL     1      -5.251  11.485  17.926  0.00  0.00    +0.000 OA
BRANCH  19  20
ATOM     20  C   UNL     1      -5.731  12.421  16.956  0.00  0.00    +0.000 C 
BRANCH  20  21
ATOM     21  C   UNL     1      -6.641  13.426  17.651  0.00  0.00    +0.000 C 
ATOM     22 CL   UNL     1      -7.083  14.743  16.542  0.00  0.00    +0.000 Cl
ENDBRANCH  20  21
ENDBRANCH  19  20
ENDBRANCH  14  19
ENDBRANCH   7  10
ENDBRANCH   4   7
BRANCH   1  23
ATOM     23  O   UNL     1       2.572   6.323  19.638  0.00  0.00    +0.000 OA
BRANCH  23  24
ATOM     24  C   UNL     1       2.274   5.502  18.504  0.00  0.00    +0.000 C 
BRANCH  24  29
ATOM     25  C   UNL     1       5.591   5.207  17.293  0.00  0.00    +0.000 A 
ATOM     26  N   UNL     1       5.348   3.915  17.197  0.00  0.00    +0.000 NA
ATOM     27  C   UNL     1       4.055   3.771  17.645  0.00  0.00    +0.000 A 
ATOM     28  C   UNL     1       3.393   2.457  17.721  0.00  0.00    +0.000 C 
ATOM     29  C   UNL     1       3.558   5.011  17.984  0.00  0.00    +0.000 A 
ATOM     30  O   UNL     1       4.531   5.936  17.755  0.00  0.00    +0.000 OA
BRANCH  25  32
ATOM     31  C   UNL     1       7.731   6.289  18.549  0.00  0.00    +0.000 C 
ATOM     32  S   UNL     1       7.106   5.957  16.891  0.00  0.00    +0.000 S 
ENDBRANCH  25  32
ENDBRANCH  24  29
ENDBRANCH  23  24
ENDBRANCH   1  23
TORSDOF 10
ENDMDL
