MODEL 1
REMARK VINA RESULT:      -7.4      0.000      0.000
REMARK  Name = 
REMARK  5 active torsions:
REMARK  status: ('A' for Active; 'I' for Inactive)
REMARK    1  A    between atoms: C_1  and  C_2
REMARK    2  A    between atoms: C_8  and  C_10
REMARK    3  A    between atoms: C_16  and  N_17
REMARK    4  A    between atoms: N_17  and  S_18
REMARK    5  A    between atoms: S_18  and  C_21
REMARK                            x       y       z     vdW  Elec       q    Type
REMARK                         _______ _______ _______ _____ _____    ______ ____
ROOT
ATOM      1  C   UNL     1       4.441   4.499  19.608  0.00  0.00    +0.000 A 
ATOM      2  C   UNL     1       4.359   3.099  19.678  0.00  0.00    +0.000 A 
ATOM      3  C   UNL     1       3.356   2.453  20.398  0.00  0.00    +0.000 A 
ATOM      4  C   UNL     1       2.340   3.201  20.970  0.00  0.00    +0.000 A 
ATOM      5 CL   UNL     1       1.076   2.399  21.819  0.00  0.00    +0.000 Cl
ATOM      6  C   UNL     1       2.312   4.581  20.802  0.00  0.00    +0.000 A 
ATOM      7  C   UNL     1       3.344   5.238  20.109  0.00  0.00    +0.000 A 
ENDROOT
BRANCH   1  15
ATOM      8  C   UNL     1       7.820   6.472  17.252  0.00  0.00    +0.000 C 
ATOM      9  C   UNL     1       6.541   5.880  16.652  0.00  0.00    +0.000 C 
ATOM     10  C   UNL     1       6.933   5.314  15.257  0.00  0.00    +0.000 C 
ATOM     11  O   UNL     1       5.844   4.677  14.586  0.00  0.00    +0.000 OA
ATOM     12  C   UNL     1       5.403   3.562  15.359  0.00  0.00    +0.000 C 
ATOM     13  C   UNL     1       4.864   4.050  16.696  0.00  0.00    +0.000 C 
ATOM     14  N   UNL     1       5.801   4.876  17.482  0.00  0.00    +0.000 N 
ATOM     15  C   UNL     1       5.619   5.100  18.880  0.00  0.00    +0.000 C 
ATOM     16  O   UNL     1       6.363   5.821  19.537  0.00  0.00    +0.000 OA
ENDBRANCH   1  15
BRANCH   7  17
ATOM     17  N   UNL     1       3.141   6.629  19.881  0.00  0.00    +0.000 N 
ATOM     18  H   UNL     1       3.843   7.277  20.238  0.00  0.00    +0.000 HD
BRANCH  17  19
ATOM     19  S   UNL     1       2.536   7.182  18.413  0.00  0.00    +0.000 S 
ATOM     20  O   UNL     1       3.647   7.350  17.505  0.00  0.00    +0.000 OA
ATOM     21  O   UNL     1       1.406   6.343  18.048  0.00  0.00    +0.000 OA
BRANCH  19  22
ATOM     22  C   UNL     1       1.915   8.774  18.832  0.00  0.00    +0.000 A 
ATOM     23  C   UNL     1       2.094   9.818  17.910  0.00  0.00    +0.000 A 
ATOM     24  C   UNL     1       1.490  11.040  18.161  0.00  0.00    +0.000 A 
ATOM     25  C   UNL     1       0.723  11.196  19.311  0.00  0.00    +0.000 A 
ATOM     26  C   UNL     1       0.556  10.168  20.234  0.00  0.00    +0.000 A 
ATOM     27  N   UNL     1      -0.219  10.402  21.306  0.00  0.00    +0.000 NA
ATOM     28  C   UNL     1      -0.383   9.377  22.168  0.00  0.00    +0.000 A 
ATOM     29  C   UNL     1       0.251   8.168  21.997  0.00  0.00    +0.000 A 
ATOM     30  N   UNL     1       1.051   7.926  20.939  0.00  0.00    +0.000 NA
ATOM     31  C   UNL     1       1.191   8.916  20.017  0.00  0.00    +0.000 A 
ENDBRANCH  19  22
ENDBRANCH  17  19
ENDBRANCH   7  17
TORSDOF 4
ENDMDL
MODEL 2
REMARK VINA RESULT:      -7.3      1.520      2.661
REMARK  Name = 
REMARK  5 active torsions:
REMARK  status: ('A' for Active; 'I' for Inactive)
REMARK    1  A    between atoms: C_1  and  C_2
REMARK    2  A    between atoms: C_8  and  C_10
REMARK    3  A    between atoms: C_16  and  N_17
REMARK    4  A    between atoms: N_17  and  S_18
REMARK    5  A    between atoms: S_18  and  C_21
REMARK                            x       y       z     vdW  Elec       q    Type
REMARK                         _______ _______ _______ _____ _____    ______ ____
ROOT
ATOM      1  C   UNL     1       3.145   3.718  18.569  0.00  0.00    +0.000 A 
ATOM      2  C   UNL     1       2.497   2.478  18.681  0.00  0.00    +0.000 A 
ATOM      3  C   UNL     1       1.898   2.061  19.868  0.00  0.00    +0.000 A 
ATOM      4  C   UNL     1       1.834   2.936  20.941  0.00  0.00    +0.000 A 
ATOM      5 CL   UNL     1       1.053   2.437  22.391  0.00  0.00    +0.000 Cl
ATOM      6  C   UNL     1       2.342   4.224  20.821  0.00  0.00    +0.000 A 
ATOM      7  C   UNL     1       2.981   4.632  19.637  0.00  0.00    +0.000 A 
ENDROOT
BRANCH   1  15
ATOM      8  C   UNL     1       5.409   4.432  14.668  0.00  0.00    +0.000 C 
ATOM      9  C   UNL     1       6.039   4.031  16.005  0.00  0.00    +0.000 C 
ATOM     10  C   UNL     1       7.442   4.701  16.046  0.00  0.00    +0.000 C 
ATOM     11  O   UNL     1       8.142   4.458  17.267  0.00  0.00    +0.000 OA
ATOM     12  C   UNL     1       7.403   5.015  18.352  0.00  0.00    +0.000 C 
ATOM     13  C   UNL     1       6.061   4.306  18.472  0.00  0.00    +0.000 C 
ATOM     14  N   UNL     1       5.244   4.308  17.243  0.00  0.00    +0.000 N 
ATOM     15  C   UNL     1       3.843   4.034  17.270  0.00  0.00    +0.000 C 
ATOM     16  O   UNL     1       3.159   3.987  16.252  0.00  0.00    +0.000 OA
ENDBRANCH   1  15
BRANCH   7  17
ATOM     17  N   UNL     1       3.338   6.010  19.575  0.00  0.00    +0.000 N 
ATOM     18  H   UNL     1       4.328   6.248  19.616  0.00  0.00    +0.000 HD
BRANCH  17  19
ATOM     19  S   UNL     1       2.531   7.063  18.543  0.00  0.00    +0.000 S 
ATOM     20  O   UNL     1       3.521   7.806  17.797  0.00  0.00    +0.000 OA
ATOM     21  O   UNL     1       1.498   6.311  17.850  0.00  0.00    +0.000 OA
BRANCH  19  22
ATOM     22  C   UNL     1       1.739   8.164  19.664  0.00  0.00    +0.000 A 
ATOM     23  C   UNL     1       1.359   7.668  20.922  0.00  0.00    +0.000 A 
ATOM     24  C   UNL     1       0.864   8.553  21.867  0.00  0.00    +0.000 A 
ATOM     25  C   UNL     1       0.762   9.903  21.545  0.00  0.00    +0.000 A 
ATOM     26  C   UNL     1       1.124  10.395  20.295  0.00  0.00    +0.000 A 
ATOM     27  N   UNL     1       1.011  11.717  20.080  0.00  0.00    +0.000 NA
ATOM     28  C   UNL     1       1.394  12.166  18.867  0.00  0.00    +0.000 A 
ATOM     29  C   UNL     1       1.828  11.317  17.875  0.00  0.00    +0.000 A 
ATOM     30  N   UNL     1       1.924   9.986  18.068  0.00  0.00    +0.000 NA
ATOM     31  C   UNL     1       1.603   9.504  19.298  0.00  0.00    +0.000 A 
ENDBRANCH  19  22
ENDBRANCH  17  19
ENDBRANCH   7  17
TORSDOF 4
ENDMDL
MODEL 3
REMARK VINA RESULT:      -7.3      1.372      2.040
REMARK  Name = 
REMARK  5 active torsions:
REMARK  status: ('A' for Active; 'I' for Inactive)
REMARK    1  A    between atoms: C_1  and  C_2
REMARK    2  A    between atoms: C_8  and  C_10
REMARK    3  A    between atoms: C_16  and  N_17
REMARK    4  A    between atoms: N_17  and  S_18
REMARK    5  A    between atoms: S_18  and  C_21
REMARK                            x       y       z     vdW  Elec       q    Type
REMARK                         _______ _______ _______ _____ _____    ______ ____
ROOT
ATOM      1  C   UNL     1       3.039   3.560  18.239  0.00  0.00    +0.000 A 
ATOM      2  C   UNL     1       3.014   2.245  18.733  0.00  0.00    +0.000 A 
ATOM      3  C   UNL     1       2.433   1.927  19.959  0.00  0.00    +0.000 A 
ATOM      4  C   UNL     1       1.758   2.909  20.667  0.00  0.00    +0.000 A 
ATOM      5 CL   UNL     1       1.001   2.505  22.158  0.00  0.00    +0.000 Cl
ATOM      6  C   UNL     1       1.642   4.191  20.141  0.00  0.00    +0.000 A 
ATOM      7  C   UNL     1       2.260   4.523  18.923  0.00  0.00    +0.000 A 
ENDROOT
BRANCH   1  15
ATOM      8  C   UNL     1       5.428   4.096  14.385  0.00  0.00    +0.000 C 
ATOM      9  C   UNL     1       6.021   3.840  15.773  0.00  0.00    +0.000 C 
ATOM     10  C   UNL     1       7.381   4.593  15.815  0.00  0.00    +0.000 C 
ATOM     11  O   UNL     1       8.039   4.489  17.078  0.00  0.00    +0.000 OA
ATOM     12  C   UNL     1       7.223   5.086  18.085  0.00  0.00    +0.000 C 
ATOM     13  C   UNL     1       5.919   4.310  18.209  0.00  0.00    +0.000 C 
ATOM     14  N   UNL     1       5.157   4.166  16.953  0.00  0.00    +0.000 N 
ATOM     15  C   UNL     1       3.774   3.812  16.946  0.00  0.00    +0.000 C 
ATOM     16  O   UNL     1       3.140   3.645  15.909  0.00  0.00    +0.000 OA
ENDBRANCH   1  15
BRANCH   7  17
ATOM     17  N   UNL     1       1.961   5.819  18.415  0.00  0.00    +0.000 N 
ATOM     18  H   UNL     1       1.050   6.219  18.639  0.00  0.00    +0.000 HD
BRANCH  17  19
ATOM     19  S   UNL     1       3.132   7.025  18.386  0.00  0.00    +0.000 S 
ATOM     20  O   UNL     1       4.011   6.822  19.515  0.00  0.00    +0.000 OA
ATOM     21  O   UNL     1       3.668   7.099  17.038  0.00  0.00    +0.000 OA
BRANCH  19  22
ATOM     22  C   UNL     1       2.187   8.481  18.674  0.00  0.00    +0.000 A 
ATOM     23  C   UNL     1       2.183   9.475  17.681  0.00  0.00    +0.000 A 
ATOM     24  C   UNL     1       1.335  10.561  17.828  0.00  0.00    +0.000 A 
ATOM     25  C   UNL     1       0.513  10.635  18.948  0.00  0.00    +0.000 A 
ATOM     26  C   UNL     1       0.525   9.659  19.940  0.00  0.00    +0.000 A 
ATOM     27  N   UNL     1      -0.319   9.802  20.975  0.00  0.00    +0.000 NA
ATOM     28  C   UNL     1      -0.302   8.827  21.907  0.00  0.00    +0.000 A 
ATOM     29  C   UNL     1       0.569   7.764  21.839  0.00  0.00    +0.000 A 
ATOM     30  N   UNL     1       1.438   7.620  20.819  0.00  0.00    +0.000 NA
ATOM     31  C   UNL     1       1.408   8.552  19.830  0.00  0.00    +0.000 A 
ENDBRANCH  19  22
ENDBRANCH  17  19
ENDBRANCH   7  17
TORSDOF 4
ENDMDL
MODEL 4
REMARK VINA RESULT:      -7.3      7.402     11.786
REMARK  Name = 
REMARK  5 active torsions:
REMARK  status: ('A' for Active; 'I' for Inactive)
REMARK    1  A    between atoms: C_1  and  C_2
REMARK    2  A    between atoms: C_8  and  C_10
REMARK    3  A    between atoms: C_16  and  N_17
REMARK    4  A    between atoms: N_17  and  S_18
REMARK    5  A    between atoms: S_18  and  C_21
REMARK                            x       y       z     vdW  Elec       q    Type
REMARK                         _______ _______ _______ _____ _____    ______ ____
ROOT
ATOM      1  C   UNL     1      -5.802  14.110  22.420  0.00  0.00    +0.000 A 
ATOM      2  C   UNL     1      -6.822  14.935  22.922  0.00  0.00    +0.000 A 
ATOM      3  C   UNL     1      -6.567  15.944  23.848  0.00  0.00    +0.000 A 
ATOM      4  C   UNL     1      -5.258  16.226  24.204  0.00  0.00    +0.000 A 
ATOM      5 CL   UNL     1      -4.940  17.504  25.312  0.00  0.00    +0.000 Cl
ATOM      6  C   UNL     1      -4.210  15.522  23.620  0.00  0.00    +0.000 A 
ATOM      7  C   UNL     1      -4.468  14.478  22.715  0.00  0.00    +0.000 A 
ENDROOT
BRANCH   1  15
ATOM      8  C   UNL     1      -6.750  10.748  19.478  0.00  0.00    +0.000 C 
ATOM      9  C   UNL     1      -6.216  12.135  19.107  0.00  0.00    +0.000 C 
ATOM     10  C   UNL     1      -6.827  12.482  17.719  0.00  0.00    +0.000 C 
ATOM     11  O   UNL     1      -6.456  13.782  17.255  0.00  0.00    +0.000 OA
ATOM     12  C   UNL     1      -6.950  14.764  18.164  0.00  0.00    +0.000 C 
ATOM     13  C   UNL     1      -6.285  14.582  19.521  0.00  0.00    +0.000 C 
ATOM     14  N   UNL     1      -6.419  13.233  20.105  0.00  0.00    +0.000 N 
ATOM     15  C   UNL     1      -6.198  12.987  21.494  0.00  0.00    +0.000 C 
ATOM     16  O   UNL     1      -6.262  11.864  21.985  0.00  0.00    +0.000 OA
ENDBRANCH   1  15
BRANCH   7  17
ATOM     17  N   UNL     1      -3.323  13.921  22.077  0.00  0.00    +0.000 N 
ATOM     18  H   UNL     1      -2.738  14.544  21.520  0.00  0.00    +0.000 HD
BRANCH  17  19
ATOM     19  S   UNL     1      -2.371  12.779  22.860  0.00  0.00    +0.000 S 
ATOM     20  O   UNL     1      -1.293  13.474  23.525  0.00  0.00    +0.000 OA
ATOM     21  O   UNL     1      -3.250  11.896  23.608  0.00  0.00    +0.000 OA
BRANCH  19  22
ATOM     22  C   UNL     1      -1.696  11.861  21.519  0.00  0.00    +0.000 A 
ATOM     23  C   UNL     1      -2.046  12.241  20.213  0.00  0.00    +0.000 A 
ATOM     24  C   UNL     1      -1.415  11.622  19.146  0.00  0.00    +0.000 A 
ATOM     25  C   UNL     1      -0.453  10.648  19.397  0.00  0.00    +0.000 A 
ATOM     26  C   UNL     1      -0.114  10.259  20.689  0.00  0.00    +0.000 A 
ATOM     27  N   UNL     1       0.840   9.326  20.837  0.00  0.00    +0.000 NA
ATOM     28  C   UNL     1       1.165   8.989  22.102  0.00  0.00    +0.000 A 
ATOM     29  C   UNL     1       0.519   9.527  23.192  0.00  0.00    +0.000 A 
ATOM     30  N   UNL     1      -0.458  10.446  23.059  0.00  0.00    +0.000 NA
ATOM     31  C   UNL     1      -0.770  10.855  21.800  0.00  0.00    +0.000 A 
ENDBRANCH  19  22
ENDBRANCH  17  19
ENDBRANCH   7  17
TORSDOF 4
ENDMDL
MODEL 5
REMARK VINA RESULT:      -6.9      6.697     10.094
REMARK  Name = 
REMARK  5 active torsions:
REMARK  status: ('A' for Active; 'I' for Inactive)
REMARK    1  A    between atoms: C_1  and  C_2
REMARK    2  A    between atoms: C_8  and  C_10
REMARK    3  A    between atoms: C_16  and  N_17
REMARK    4  A    between atoms: N_17  and  S_18
REMARK    5  A    between atoms: S_18  and  C_21
REMARK                            x       y       z     vdW  Elec       q    Type
REMARK                         _______ _______ _______ _____ _____    ______ ____
ROOT
ATOM      1  C   UNL     1      -0.825  11.902  22.386  0.00  0.00    +0.000 A 
ATOM      2  C   UNL     1      -0.788  10.728  23.155  0.00  0.00    +0.000 A 
ATOM      3  C   UNL     1      -0.200   9.555  22.686  0.00  0.00    +0.000 A 
ATOM      4  C   UNL     1       0.471   9.568  21.473  0.00  0.00    +0.000 A 
ATOM      5 CL   UNL     1       1.237   8.132  20.916  0.00  0.00    +0.000 Cl
ATOM      6  C   UNL     1       0.575  10.750  20.748  0.00  0.00    +0.000 A 
ATOM      7  C   UNL     1      -0.050  11.925  21.202  0.00  0.00    +0.000 A 
ENDROOT
BRANCH   1  15
ATOM      8  C   UNL     1      -3.271  15.313  24.185  0.00  0.00    +0.000 C 
ATOM      9  C   UNL     1      -3.828  14.166  23.337  0.00  0.00    +0.000 C 
ATOM     10  C   UNL     1      -5.025  14.755  22.536  0.00  0.00    +0.000 C 
ATOM     11  O   UNL     1      -5.625  13.807  21.651  0.00  0.00    +0.000 OA
ATOM     12  C   UNL     1      -4.663  13.393  20.682  0.00  0.00    +0.000 C 
ATOM     13  C   UNL     1      -3.518  12.671  21.379  0.00  0.00    +0.000 C 
ATOM     14  N   UNL     1      -2.861  13.438  22.455  0.00  0.00    +0.000 N 
ATOM     15  C   UNL     1      -1.567  13.089  22.948  0.00  0.00    +0.000 C 
ATOM     16  O   UNL     1      -1.028  13.689  23.872  0.00  0.00    +0.000 OA
ENDBRANCH   1  15
BRANCH   7  17
ATOM     17  N   UNL     1       0.238  13.102  20.454  0.00  0.00    +0.000 N 
ATOM     18  H   UNL     1      -0.540  13.716  20.213  0.00  0.00    +0.000 HD
BRANCH  17  19
ATOM     19  S   UNL     1       1.615  14.011  20.776  0.00  0.00    +0.000 S 
ATOM     20  O   UNL     1       1.570  14.415  22.163  0.00  0.00    +0.000 OA
ATOM     21  O   UNL     1       2.763  13.289  20.256  0.00  0.00    +0.000 OA
BRANCH  19  22
ATOM     22  C   UNL     1       1.373  15.437  19.774  0.00  0.00    +0.000 A 
ATOM     23  C   UNL     1       2.399  15.807  18.889  0.00  0.00    +0.000 A 
ATOM     24  C   UNL     1       2.168  16.840  17.995  0.00  0.00    +0.000 A 
ATOM     25  C   UNL     1       0.931  17.477  17.996  0.00  0.00    +0.000 A 
ATOM     26  C   UNL     1      -0.082  17.123  18.882  0.00  0.00    +0.000 A 
ATOM     27  N   UNL     1      -1.251  17.779  18.797  0.00  0.00    +0.000 NA
ATOM     28  C   UNL     1      -2.222  17.395  19.652  0.00  0.00    +0.000 A 
ATOM     29  C   UNL     1      -2.018  16.421  20.602  0.00  0.00    +0.000 A 
ATOM     30  N   UNL     1      -0.843  15.771  20.715  0.00  0.00    +0.000 NA
ATOM     31  C   UNL     1       0.140  16.089  19.831  0.00  0.00    +0.000 A 
ENDBRANCH  19  22
ENDBRANCH  17  19
ENDBRANCH   7  17
TORSDOF 4
ENDMDL
MODEL 6
REMARK VINA RESULT:      -6.8      6.549      9.963
REMARK  Name = 
REMARK  5 active torsions:
REMARK  status: ('A' for Active; 'I' for Inactive)
REMARK    1  A    between atoms: C_1  and  C_2
REMARK    2  A    between atoms: C_8  and  C_10
REMARK    3  A    between atoms: C_16  and  N_17
REMARK    4  A    between atoms: N_17  and  S_18
REMARK    5  A    between atoms: S_18  and  C_21
REMARK                            x       y       z     vdW  Elec       q    Type
REMARK                         _______ _______ _______ _____ _____    ______ ____
ROOT
ATOM      1  C   UNL     1      -0.719  11.926  22.417  0.00  0.00    +0.000 A 
ATOM      2  C   UNL     1      -0.940  10.738  23.132  0.00  0.00    +0.000 A 
ATOM      3  C   UNL     1      -0.424   9.514  22.709  0.00  0.00    +0.000 A 
ATOM      4  C   UNL     1       0.428   9.476  21.617  0.00  0.00    +0.000 A 
ATOM      5 CL   UNL     1       1.102   7.971  21.125  0.00  0.00    +0.000 Cl
ATOM      6  C   UNL     1       0.782  10.653  20.968  0.00  0.00    +0.000 A 
ATOM      7  C   UNL     1       0.231  11.883  21.369  0.00  0.00    +0.000 A 
ENDROOT
BRANCH   1  15
ATOM      8  C   UNL     1      -2.978  15.555  24.024  0.00  0.00    +0.000 C 
ATOM      9  C   UNL     1      -3.608  14.358  23.306  0.00  0.00    +0.000 C 
ATOM     10  C   UNL     1      -4.825  14.913  22.514  0.00  0.00    +0.000 C 
ATOM     11  O   UNL     1      -5.495  13.913  21.744  0.00  0.00    +0.000 OA
ATOM     12  C   UNL     1      -4.594  13.386  20.771  0.00  0.00    +0.000 C 
ATOM     13  C   UNL     1      -3.436  12.691  21.473  0.00  0.00    +0.000 C 
ATOM     14  N   UNL     1      -2.705  13.526  22.447  0.00  0.00    +0.000 N 
ATOM     15  C   UNL     1      -1.399  13.179  22.907  0.00  0.00    +0.000 C 
ATOM     16  O   UNL     1      -0.798  13.840  23.749  0.00  0.00    +0.000 OA
ENDBRANCH   1  15
BRANCH   7  17
ATOM     17  N   UNL     1       0.768  13.035  20.726  0.00  0.00    +0.000 N 
ATOM     18  H   UNL     1       1.731  13.294  20.939  0.00  0.00    +0.000 HD
BRANCH  17  19
ATOM     19  S   UNL     1       0.424  13.359  19.113  0.00  0.00    +0.000 S 
ATOM     20  O   UNL     1       1.388  12.654  18.299  0.00  0.00    +0.000 OA
ATOM     21  O   UNL     1      -1.000  13.160  18.907  0.00  0.00    +0.000 OA
BRANCH  19  22
ATOM     22  C   UNL     1       0.752  15.084  18.992  0.00  0.00    +0.000 A 
ATOM     23  C   UNL     1      -0.305  15.936  18.635  0.00  0.00    +0.000 A 
ATOM     24  C   UNL     1      -0.100  17.306  18.673  0.00  0.00    +0.000 A 
ATOM     25  C   UNL     1       1.141  17.797  19.067  0.00  0.00    +0.000 A 
ATOM     26  C   UNL     1       2.196  16.955  19.407  0.00  0.00    +0.000 A 
ATOM     27  N   UNL     1       3.352  17.517  19.795  0.00  0.00    +0.000 NA
ATOM     28  C   UNL     1       4.346  16.675  20.143  0.00  0.00    +0.000 A 
ATOM     29  C   UNL     1       4.212  15.308  20.057  0.00  0.00    +0.000 A 
ATOM     30  N   UNL     1       3.066  14.729  19.647  0.00  0.00    +0.000 NA
ATOM     31  C   UNL     1       2.022  15.546  19.345  0.00  0.00    +0.000 A 
ENDBRANCH  19  22
ENDBRANCH  17  19
ENDBRANCH   7  17
TORSDOF 4
ENDMDL
MODEL 7
REMARK VINA RESULT:      -6.8      6.061      9.464
REMARK  Name = 
REMARK  5 active torsions:
REMARK  status: ('A' for Active; 'I' for Inactive)
REMARK    1  A    between atoms: C_1  and  C_2
REMARK    2  A    between atoms: C_8  and  C_10
REMARK    3  A    between atoms: C_16  and  N_17
REMARK    4  A    between atoms: N_17  and  S_18
REMARK    5  A    between atoms: S_18  and  C_21
REMARK                            x       y       z     vdW  Elec       q    Type
REMARK                         _______ _______ _______ _____ _____    ______ ____
ROOT
ATOM      1  C   UNL     1       0.770  13.543  20.304  0.00  0.00    +0.000 A 
ATOM      2  C   UNL     1       2.135  13.840  20.159  0.00  0.00    +0.000 A 
ATOM      3  C   UNL     1       2.585  14.861  19.324  0.00  0.00    +0.000 A 
ATOM      4  C   UNL     1       1.662  15.689  18.705  0.00  0.00    +0.000 A 
ATOM      5 CL   UNL     1       2.218  16.980  17.712  0.00  0.00    +0.000 Cl
ATOM      6  C   UNL     1       0.303  15.513  18.937  0.00  0.00    +0.000 A 
ATOM      7  C   UNL     1      -0.154  14.458  19.747  0.00  0.00    +0.000 A 
ENDROOT
BRANCH   1  15
ATOM      8  C   UNL     1      -0.087   9.892  22.909  0.00  0.00    +0.000 C 
ATOM      9  C   UNL     1       0.854   9.925  21.701  0.00  0.00    +0.000 C 
ATOM     10  C   UNL     1       0.772   8.518  21.043  0.00  0.00    +0.000 C 
ATOM     11  O   UNL     1       1.566   8.407  19.861  0.00  0.00    +0.000 OA
ATOM     12  C   UNL     1       1.089   9.331  18.885  0.00  0.00    +0.000 C 
ATOM     13  C   UNL     1       1.271  10.753  19.398  0.00  0.00    +0.000 C 
ATOM     14  N   UNL     1       0.648  11.027  20.708  0.00  0.00    +0.000 N 
ATOM     15  C   UNL     1       0.395  12.358  21.158  0.00  0.00    +0.000 C 
ATOM     16  O   UNL     1      -0.081  12.603  22.263  0.00  0.00    +0.000 OA
ENDBRANCH   1  15
BRANCH   7  17
ATOM     17  N   UNL     1      -1.551  14.458  20.025  0.00  0.00    +0.000 N 
ATOM     18  H   UNL     1      -2.031  13.559  20.048  0.00  0.00    +0.000 HD
BRANCH  17  19
ATOM     19  S   UNL     1      -2.199  15.492  21.181  0.00  0.00    +0.000 S 
ATOM     20  O   UNL     1      -1.107  16.043  21.951  0.00  0.00    +0.000 OA
ATOM     21  O   UNL     1      -3.150  16.368  20.519  0.00  0.00    +0.000 OA
BRANCH  19  22
ATOM     22  C   UNL     1      -3.105  14.390  22.212  0.00  0.00    +0.000 A 
ATOM     23  C   UNL     1      -2.859  14.424  23.595  0.00  0.00    +0.000 A 
ATOM     24  C   UNL     1      -3.661  13.667  24.433  0.00  0.00    +0.000 A 
ATOM     25  C   UNL     1      -4.686  12.901  23.886  0.00  0.00    +0.000 A 
ATOM     26  C   UNL     1      -4.922  12.854  22.515  0.00  0.00    +0.000 A 
ATOM     27  N   UNL     1      -5.947  12.104  22.077  0.00  0.00    +0.000 NA
ATOM     28  C   UNL     1      -6.167  12.100  20.746  0.00  0.00    +0.000 A 
ATOM     29  C   UNL     1      -5.356  12.782  19.868  0.00  0.00    +0.000 A 
ATOM     30  N   UNL     1      -4.310  13.520  20.290  0.00  0.00    +0.000 NA
ATOM     31  C   UNL     1      -4.094  13.595  21.630  0.00  0.00    +0.000 A 
ENDBRANCH  19  22
ENDBRANCH  17  19
ENDBRANCH   7  17
TORSDOF 4
ENDMDL
MODEL 8
REMARK VINA RESULT:      -6.8      6.134      9.540
REMARK  Name = 
REMARK  5 active torsions:
REMARK  status: ('A' for Active; 'I' for Inactive)
REMARK    1  A    between atoms: C_1  and  C_2
REMARK    2  A    between atoms: C_8  and  C_10
REMARK    3  A    between atoms: C_16  and  N_17
REMARK    4  A    between atoms: N_17  and  S_18
REMARK    5  A    between atoms: S_18  and  C_21
REMARK                            x       y       z     vdW  Elec       q    Type
REMARK                         _______ _______ _______ _____ _____    ______ ____
ROOT
ATOM      1  C   UNL     1      -0.504  11.652  22.246  0.00  0.00    +0.000 A 
ATOM      2  C   UNL     1      -0.860  10.500  22.964  0.00  0.00    +0.000 A 
ATOM      3  C   UNL     1      -0.432   9.229  22.583  0.00  0.00    +0.000 A 
ATOM      4  C   UNL     1       0.465   9.100  21.535  0.00  0.00    +0.000 A 
ATOM      5 CL   UNL     1       1.030   7.535  21.096  0.00  0.00    +0.000 Cl
ATOM      6  C   UNL     1       0.950  10.232  20.890  0.00  0.00    +0.000 A 
ATOM      7  C   UNL     1       0.489  11.511  21.247  0.00  0.00    +0.000 A 
ENDROOT
BRANCH   1  15
ATOM      8  C   UNL     1      -2.510  15.487  23.703  0.00  0.00    +0.000 C 
ATOM      9  C   UNL     1      -3.217  14.316  23.014  0.00  0.00    +0.000 C 
ATOM     10  C   UNL     1      -4.381  14.933  22.187  0.00  0.00    +0.000 C 
ATOM     11  O   UNL     1      -5.112  13.959  21.439  0.00  0.00    +0.000 OA
ATOM     12  C   UNL     1      -4.240  13.337  20.497  0.00  0.00    +0.000 C 
ATOM     13  C   UNL     1      -3.145  12.582  21.238  0.00  0.00    +0.000 C 
ATOM     14  N   UNL     1      -2.367  13.393  22.195  0.00  0.00    +0.000 N 
ATOM     15  C   UNL     1      -1.096  12.967  22.686  0.00  0.00    +0.000 C 
ATOM     16  O   UNL     1      -0.459  13.609  23.516  0.00  0.00    +0.000 OA
ENDBRANCH   1  15
BRANCH   7  17
ATOM     17  N   UNL     1       1.153  12.602  20.617  0.00  0.00    +0.000 N 
ATOM     18  H   UNL     1       2.041  12.910  21.011  0.00  0.00    +0.000 HD
BRANCH  17  19
ATOM     19  S   UNL     1       1.183  12.740  18.942  0.00  0.00    +0.000 S 
ATOM     20  O   UNL     1       2.274  11.933  18.445  0.00  0.00    +0.000 OA
ATOM     21  O   UNL     1      -0.169  12.535  18.449  0.00  0.00    +0.000 OA
BRANCH  19  22
ATOM     22  C   UNL     1       1.594  14.435  18.706  0.00  0.00    +0.000 A 
ATOM     23  C   UNL     1       2.782  14.739  18.023  0.00  0.00    +0.000 A 
ATOM     24  C   UNL     1       3.048  16.062  17.706  0.00  0.00    +0.000 A 
ATOM     25  C   UNL     1       2.134  17.046  18.068  0.00  0.00    +0.000 A 
ATOM     26  C   UNL     1       0.962  16.749  18.758  0.00  0.00    +0.000 A 
ATOM     27  N   UNL     1       0.128  17.760  19.049  0.00  0.00    +0.000 NA
ATOM     28  C   UNL     1      -1.011  17.436  19.695  0.00  0.00    +0.000 A 
ATOM     29  C   UNL     1      -1.288  16.147  20.090  0.00  0.00    +0.000 A 
ATOM     30  N   UNL     1      -0.449  15.126  19.827  0.00  0.00    +0.000 NA
ATOM     31  C   UNL     1       0.681  15.405  19.124  0.00  0.00    +0.000 A 
ENDBRANCH  19  22
ENDBRANCH  17  19
ENDBRANCH   7  17
TORSDOF 4
ENDMDL
MODEL 9
REMARK VINA RESULT:      -6.8      4.307      8.926
REMARK  Name = 
REMARK  5 active torsions:
REMARK  status: ('A' for Active; 'I' for Inactive)
REMARK    1  A    between atoms: C_1  and  C_2
REMARK    2  A    between atoms: C_8  and  C_10
REMARK    3  A    between atoms: C_16  and  N_17
REMARK    4  A    between atoms: N_17  and  S_18
REMARK    5  A    between atoms: S_18  and  C_21
REMARK                            x       y       z     vdW  Elec       q    Type
REMARK                         _______ _______ _______ _____ _____    ______ ____
ROOT
ATOM      1  C   UNL     1      -1.649  11.794  19.883  0.00  0.00    +0.000 A 
ATOM      2  C   UNL     1      -2.933  11.807  19.315  0.00  0.00    +0.000 A 
ATOM      3  C   UNL     1      -3.200  11.225  18.078  0.00  0.00    +0.000 A 
ATOM      4  C   UNL     1      -2.204  10.510  17.433  0.00  0.00    +0.000 A 
ATOM      5 CL   UNL     1      -2.548   9.751  15.928  0.00  0.00    +0.000 Cl
ATOM      6  C   UNL     1      -0.958  10.356  18.032  0.00  0.00    +0.000 A 
ATOM      7  C   UNL     1      -0.675  10.976  19.262  0.00  0.00    +0.000 A 
ENDROOT
BRANCH   1  15
ATOM      8  C   UNL     1      -1.232  14.222  23.728  0.00  0.00    +0.000 C 
ATOM      9  C   UNL     1      -1.267  14.797  22.309  0.00  0.00    +0.000 C 
ATOM     10  C   UNL     1      -0.354  16.055  22.324  0.00  0.00    +0.000 C 
ATOM     11  O   UNL     1      -0.244  16.682  21.044  0.00  0.00    +0.000 OA
ATOM     12  C   UNL     1       0.351  15.769  20.123  0.00  0.00    +0.000 C 
ATOM     13  C   UNL     1      -0.561  14.563  19.940  0.00  0.00    +0.000 C 
ATOM     14  N   UNL     1      -0.927  13.864  21.187  0.00  0.00    +0.000 N 
ATOM     15  C   UNL     1      -1.445  12.534  21.181  0.00  0.00    +0.000 C 
ATOM     16  O   UNL     1      -1.796  11.956  22.206  0.00  0.00    +0.000 OA
ENDBRANCH   1  15
BRANCH   7  17
ATOM     17  N   UNL     1       0.579  10.638  19.846  0.00  0.00    +0.000 N 
ATOM     18  H   UNL     1       1.098  11.376  20.319  0.00  0.00    +0.000 HD
BRANCH  17  19
ATOM     19  S   UNL     1       0.790   9.175  20.647  0.00  0.00    +0.000 S 
ATOM     20  O   UNL     1       1.610   9.417  21.812  0.00  0.00    +0.000 OA
ATOM     21  O   UNL     1      -0.511   8.543  20.779  0.00  0.00    +0.000 OA
BRANCH  19  22
ATOM     22  C   UNL     1       1.731   8.240  19.491  0.00  0.00    +0.000 A 
ATOM     23  C   UNL     1       2.220   8.896  18.349  0.00  0.00    +0.000 A 
ATOM     24  C   UNL     1       3.079   8.213  17.503  0.00  0.00    +0.000 A 
ATOM     25  C   UNL     1       3.435   6.903  17.809  0.00  0.00    +0.000 A 
ATOM     26  C   UNL     1       2.940   6.245  18.932  0.00  0.00    +0.000 A 
ATOM     27  N   UNL     1       3.355   4.987  19.159  0.00  0.00    +0.000 NA
ATOM     28  C   UNL     1       2.878   4.386  20.269  0.00  0.00    +0.000 A 
ATOM     29  C   UNL     1       1.971   5.000  21.103  0.00  0.00    +0.000 A 
ATOM     30  N   UNL     1       1.528   6.253  20.874  0.00  0.00    +0.000 NA
ATOM     31  C   UNL     1       2.033   6.912  19.798  0.00  0.00    +0.000 A 
ENDBRANCH  19  22
ENDBRANCH  17  19
ENDBRANCH   7  17
TORSDOF 4
ENDMDL
