MODEL 1
REMARK VINA RESULT:      -6.3      0.000      0.000
REMARK  Name = 
REMARK  16 active torsions:
REMARK  status: ('A' for Active; 'I' for Inactive)
REMARK    1  A    between atoms: N_4  and  C_5
REMARK    2  A    between atoms: C_5  and  C_6
REMARK    3  A    between atoms: C_6  and  C_7
REMARK    4  A    between atoms: C_7  and  C_8
REMARK    5  A    between atoms: C_8  and  C_9
REMARK    6  A    between atoms: C_9  and  C_10
REMARK    7  A    between atoms: C_10  and  C_11
REMARK    8  A    between atoms: C_11  and  N_12
REMARK    9  A    between atoms: N_12  and  C_13
REMARK   10  A    between atoms: C_13  and  C_14
REMARK   11  A    between atoms: C_14  and  C_15
REMARK   12  A    between atoms: C_15  and  C_16
REMARK   13  A    between atoms: C_16  and  C_17
REMARK   14  A    between atoms: C_17  and  C_18
REMARK   15  A    between atoms: C_18  and  C_19
REMARK   16  A    between atoms: C_19  and  N_20
REMARK                            x       y       z     vdW  Elec       q    Type
REMARK                         _______ _______ _______ _____ _____    ______ ____
ROOT
ATOM      1  N   UNL     1       6.651   4.119  17.979  0.00  0.00    +0.000 NA
ATOM      2  H   UNL     1       7.184   3.885  18.821  0.00  0.00    +0.000 HD
ENDROOT
BRANCH   1   3
ATOM      3  C   UNL     1       7.360   5.126  17.191  0.00  0.00    +0.000 C 
BRANCH   3   4
ATOM      4  C   UNL     1       6.907   6.554  17.509  0.00  0.00    +0.000 C 
BRANCH   4   5
ATOM      5  C   UNL     1       8.019   7.381  18.162  0.00  0.00    +0.000 C 
BRANCH   5   6
ATOM      6  C   UNL     1       7.962   8.852  17.748  0.00  0.00    +0.000 C 
BRANCH   6   7
ATOM      7  C   UNL     1       8.864   9.751  18.603  0.00  0.00    +0.000 C 
BRANCH   7   8
ATOM      8  C   UNL     1       8.957  11.187  18.086  0.00  0.00    +0.000 C 
BRANCH   8   9
ATOM      9  C   UNL     1      10.409  11.587  17.853  0.00  0.00    +0.000 C 
BRANCH   9  13
ATOM     10  N   UNL     1      11.471  13.302  15.916  0.00  0.00    +0.000 NA
ATOM     11  C   UNL     1      11.252  13.719  17.111  0.00  0.00    +0.000 C 
ATOM     12  N   UNL     1      11.654  14.918  17.562  0.00  0.00    +0.000 N 
ATOM     13  N   UNL     1      10.595  13.012  18.063  0.00  0.00    +0.000 N 
ATOM     14  H   UNL     1      12.016  13.992  15.402  0.00  0.00    +0.000 HD
ATOM     15  H   UNL     1      11.869  15.586  16.837  0.00  0.00    +0.000 HD
ATOM     16  H   UNL     1      11.041  15.312  18.262  0.00  0.00    +0.000 HD
ATOM     17  H   UNL     1      10.895  13.239  19.001  0.00  0.00    +0.000 HD
ENDBRANCH   9  13
ENDBRANCH   8   9
ENDBRANCH   7   8
ENDBRANCH   6   7
ENDBRANCH   5   6
ENDBRANCH   4   5
ENDBRANCH   3   4
ENDBRANCH   1   3
BRANCH   1  18
ATOM     18  C   UNL     1       5.308   4.552  18.367  0.00  0.00    +0.000 C 
BRANCH  18  19
ATOM     19  C   UNL     1       4.227   3.823  17.560  0.00  0.00    +0.000 C 
BRANCH  19  20
ATOM     20  C   UNL     1       3.683   2.596  18.295  0.00  0.00    +0.000 C 
BRANCH  20  21
ATOM     21  C   UNL     1       2.210   2.386  17.959  0.00  0.00    +0.000 C 
BRANCH  21  22
ATOM     22  C   UNL     1       1.350   3.531  18.455  0.00  0.00    +0.000 C 
BRANCH  22  23
ATOM     23  C   UNL     1       1.183   3.433  19.968  0.00  0.00    +0.000 C 
BRANCH  23  24
ATOM     24  C   UNL     1       1.625   4.734  20.614  0.00  0.00    +0.000 C 
BRANCH  24  25
ATOM     25  N   UNL     1       2.062   5.681  19.621  0.00  0.00    +0.000 N 
ATOM     26  C   UNL     1       2.147   7.010  19.823  0.00  0.00    +0.000 C 
ATOM     27  N   UNL     1       1.966   7.636  20.928  0.00  0.00    +0.000 NA
ATOM     28  N   UNL     1       2.439   7.704  18.712  0.00  0.00    +0.000 N 
ATOM     29  H   UNL     1       2.280   5.324  18.701  0.00  0.00    +0.000 HD
ATOM     30  H   UNL     1       1.734   6.966  21.662  0.00  0.00    +0.000 HD
ATOM     31  H   UNL     1       3.044   7.266  18.036  0.00  0.00    +0.000 HD
ATOM     32  H   UNL     1       2.733   8.647  18.951  0.00  0.00    +0.000 HD
ENDBRANCH  24  25
ENDBRANCH  23  24
ENDBRANCH  22  23
ENDBRANCH  21  22
ENDBRANCH  20  21
ENDBRANCH  19  20
ENDBRANCH  18  19
ENDBRANCH   1  18
TORSDOF 16
ENDMDL
MODEL 2
REMARK VINA RESULT:      -6.2      4.765      6.736
REMARK  Name = 
REMARK  16 active torsions:
REMARK  status: ('A' for Active; 'I' for Inactive)
REMARK    1  A    between atoms: N_4  and  C_5
REMARK    2  A    between atoms: C_5  and  C_6
REMARK    3  A    between atoms: C_6  and  C_7
REMARK    4  A    between atoms: C_7  and  C_8
REMARK    5  A    between atoms: C_8  and  C_9
REMARK    6  A    between atoms: C_9  and  C_10
REMARK    7  A    between atoms: C_10  and  C_11
REMARK    8  A    between atoms: C_11  and  N_12
REMARK    9  A    between atoms: N_12  and  C_13
REMARK   10  A    between atoms: C_13  and  C_14
REMARK   11  A    between atoms: C_14  and  C_15
REMARK   12  A    between atoms: C_15  and  C_16
REMARK   13  A    between atoms: C_16  and  C_17
REMARK   14  A    between atoms: C_17  and  C_18
REMARK   15  A    between atoms: C_18  and  C_19
REMARK   16  A    between atoms: C_19  and  N_20
REMARK                            x       y       z     vdW  Elec       q    Type
REMARK                         _______ _______ _______ _____ _____    ______ ____
ROOT
ATOM      1  N   UNL     1       4.258   4.110  18.075  0.00  0.00    +0.000 NA
ATOM      2  H   UNL     1       4.723   4.501  17.250  0.00  0.00    +0.000 HD
ENDROOT
BRANCH   1   3
ATOM      3  C   UNL     1       5.166   4.113  19.221  0.00  0.00    +0.000 C 
BRANCH   3   4
ATOM      4  C   UNL     1       6.305   5.127  19.070  0.00  0.00    +0.000 C 
BRANCH   4   5
ATOM      5  C   UNL     1       7.241   4.777  17.909  0.00  0.00    +0.000 C 
BRANCH   5   6
ATOM      6  C   UNL     1       7.129   5.779  16.758  0.00  0.00    +0.000 C 
BRANCH   6   7
ATOM      7  C   UNL     1       7.226   5.117  15.378  0.00  0.00    +0.000 C 
BRANCH   7   8
ATOM      8  C   UNL     1       6.160   4.045  15.142  0.00  0.00    +0.000 C 
BRANCH   8   9
ATOM      9  C   UNL     1       5.611   4.129  13.723  0.00  0.00    +0.000 C 
BRANCH   9  13
ATOM     10  N   UNL     1       4.400   3.097  11.423  0.00  0.00    +0.000 NA
ATOM     11  C   UNL     1       5.503   2.604  11.860  0.00  0.00    +0.000 C 
ATOM     12  N   UNL     1       6.061   1.486  11.368  0.00  0.00    +0.000 N 
ATOM     13  N   UNL     1       6.239   3.140  12.864  0.00  0.00    +0.000 N 
ATOM     14  H   UNL     1       4.016   2.497  10.695  0.00  0.00    +0.000 HD
ATOM     15  H   UNL     1       5.731   1.224  10.451  0.00  0.00    +0.000 HD
ATOM     16  H   UNL     1       7.070   1.483  11.417  0.00  0.00    +0.000 HD
ATOM     17  H   UNL     1       6.769   2.450  13.377  0.00  0.00    +0.000 HD
ENDBRANCH   9  13
ENDBRANCH   8   9
ENDBRANCH   7   8
ENDBRANCH   6   7
ENDBRANCH   5   6
ENDBRANCH   4   5
ENDBRANCH   3   4
ENDBRANCH   1   3
BRANCH   1  18
ATOM     18  C   UNL     1       3.759   2.772  17.756  0.00  0.00    +0.000 C 
BRANCH  18  19
ATOM     19  C   UNL     1       2.250   2.661  18.005  0.00  0.00    +0.000 C 
BRANCH  19  20
ATOM     20  C   UNL     1       1.931   1.980  19.339  0.00  0.00    +0.000 C 
BRANCH  20  21
ATOM     21  C   UNL     1       1.425   3.004  20.349  0.00  0.00    +0.000 C 
BRANCH  21  22
ATOM     22  C   UNL     1       1.383   4.401  19.763  0.00  0.00    +0.000 C 
BRANCH  22  23
ATOM     23  C   UNL     1       1.577   5.432  20.871  0.00  0.00    +0.000 C 
BRANCH  23  24
ATOM     24  C   UNL     1       1.856   6.791  20.257  0.00  0.00    +0.000 C 
BRANCH  24  25
ATOM     25  N   UNL     1       2.859   6.697  19.227  0.00  0.00    +0.000 N 
ATOM     26  C   UNL     1       2.892   7.471  18.125  0.00  0.00    +0.000 C 
ATOM     27  N   UNL     1       2.128   8.467  17.857  0.00  0.00    +0.000 NA
ATOM     28  N   UNL     1       3.832   7.105  17.240  0.00  0.00    +0.000 N 
ATOM     29  H   UNL     1       3.558   5.975  19.323  0.00  0.00    +0.000 HD
ATOM     30  H   UNL     1       1.462   8.596  18.619  0.00  0.00    +0.000 HD
ATOM     31  H   UNL     1       4.691   6.726  17.606  0.00  0.00    +0.000 HD
ATOM     32  H   UNL     1       3.986   7.845  16.560  0.00  0.00    +0.000 HD
ENDBRANCH  24  25
ENDBRANCH  23  24
ENDBRANCH  22  23
ENDBRANCH  21  22
ENDBRANCH  20  21
ENDBRANCH  19  20
ENDBRANCH  18  19
ENDBRANCH   1  18
TORSDOF 16
ENDMDL
MODEL 3
REMARK VINA RESULT:      -6.1      4.270      6.564
REMARK  Name = 
REMARK  16 active torsions:
REMARK  status: ('A' for Active; 'I' for Inactive)
REMARK    1  A    between atoms: N_4  and  C_5
REMARK    2  A    between atoms: C_5  and  C_6
REMARK    3  A    between atoms: C_6  and  C_7
REMARK    4  A    between atoms: C_7  and  C_8
REMARK    5  A    between atoms: C_8  and  C_9
REMARK    6  A    between atoms: C_9  and  C_10
REMARK    7  A    between atoms: C_10  and  C_11
REMARK    8  A    between atoms: C_11  and  N_12
REMARK    9  A    between atoms: N_12  and  C_13
REMARK   10  A    between atoms: C_13  and  C_14
REMARK   11  A    between atoms: C_14  and  C_15
REMARK   12  A    between atoms: C_15  and  C_16
REMARK   13  A    between atoms: C_16  and  C_17
REMARK   14  A    between atoms: C_17  and  C_18
REMARK   15  A    between atoms: C_18  and  C_19
REMARK   16  A    between atoms: C_19  and  N_20
REMARK                            x       y       z     vdW  Elec       q    Type
REMARK                         _______ _______ _______ _____ _____    ______ ____
ROOT
ATOM      1  N   UNL     1       2.029   3.163  20.862  0.00  0.00    +0.000 NA
ATOM      2  H   UNL     1       1.756   2.659  21.711  0.00  0.00    +0.000 HD
ENDROOT
BRANCH   1   3
ATOM      3  C   UNL     1       2.193   4.587  21.147  0.00  0.00    +0.000 C 
BRANCH   3   4
ATOM      4  C   UNL     1       1.714   5.480  19.998  0.00  0.00    +0.000 C 
BRANCH   4   5
ATOM      5  C   UNL     1       2.623   6.695  19.792  0.00  0.00    +0.000 C 
BRANCH   5   6
ATOM      6  C   UNL     1       2.789   7.047  18.312  0.00  0.00    +0.000 C 
BRANCH   6   7
ATOM      7  C   UNL     1       1.924   8.237  17.879  0.00  0.00    +0.000 C 
BRANCH   7   8
ATOM      8  C   UNL     1       1.521   9.149  19.039  0.00  0.00    +0.000 C 
BRANCH   8   9
ATOM      9  C   UNL     1       0.946  10.462  18.522  0.00  0.00    +0.000 C 
BRANCH   9  13
ATOM     10  N   UNL     1       1.929  12.827  19.645  0.00  0.00    +0.000 NA
ATOM     11  C   UNL     1       2.275  12.472  18.460  0.00  0.00    +0.000 C 
ATOM     12  N   UNL     1       2.976  13.256  17.626  0.00  0.00    +0.000 N 
ATOM     13  N   UNL     1       1.979  11.273  17.901  0.00  0.00    +0.000 N 
ATOM     14  H   UNL     1       2.231  13.784  19.822  0.00  0.00    +0.000 HD
ATOM     15  H   UNL     1       3.469  14.011  18.079  0.00  0.00    +0.000 HD
ATOM     16  H   UNL     1       3.577  12.742  16.997  0.00  0.00    +0.000 HD
ATOM     17  H   UNL     1       1.898  11.315  16.895  0.00  0.00    +0.000 HD
ENDBRANCH   9  13
ENDBRANCH   8   9
ENDBRANCH   7   8
ENDBRANCH   6   7
ENDBRANCH   5   6
ENDBRANCH   4   5
ENDBRANCH   3   4
ENDBRANCH   1   3
BRANCH   1  18
ATOM     18  C   UNL     1       1.040   2.908  19.814  0.00  0.00    +0.000 C 
BRANCH  18  19
ATOM     19  C   UNL     1       1.662   2.174  18.620  0.00  0.00    +0.000 C 
BRANCH  19  20
ATOM     20  C   UNL     1       3.187   2.301  18.592  0.00  0.00    +0.000 C 
BRANCH  20  21
ATOM     21  C   UNL     1       3.617   3.292  17.516  0.00  0.00    +0.000 C 
BRANCH  21  22
ATOM     22  C   UNL     1       4.888   4.024  17.900  0.00  0.00    +0.000 C 
BRANCH  22  23
ATOM     23  C   UNL     1       5.584   4.541  16.645  0.00  0.00    +0.000 C 
BRANCH  23  24
ATOM     24  C   UNL     1       7.010   4.939  16.982  0.00  0.00    +0.000 C 
BRANCH  24  25
ATOM     25  N   UNL     1       7.267   4.793  18.392  0.00  0.00    +0.000 N 
ATOM     26  C   UNL     1       7.882   5.719  19.152  0.00  0.00    +0.000 C 
ATOM     27  N   UNL     1       8.240   6.898  18.795  0.00  0.00    +0.000 NA
ATOM     28  N   UNL     1       8.139   5.303  20.402  0.00  0.00    +0.000 N 
ATOM     29  H   UNL     1       7.002   3.921  18.825  0.00  0.00    +0.000 HD
ATOM     30  H   UNL     1       7.990   7.045  17.816  0.00  0.00    +0.000 HD
ATOM     31  H   UNL     1       7.478   4.673  20.826  0.00  0.00    +0.000 HD
ATOM     32  H   UNL     1       8.370   6.093  20.998  0.00  0.00    +0.000 HD
ENDBRANCH  24  25
ENDBRANCH  23  24
ENDBRANCH  22  23
ENDBRANCH  21  22
ENDBRANCH  20  21
ENDBRANCH  19  20
ENDBRANCH  18  19
ENDBRANCH   1  18
TORSDOF 16
ENDMDL
MODEL 4
REMARK VINA RESULT:      -6.0      5.047      7.497
REMARK  Name = 
REMARK  16 active torsions:
REMARK  status: ('A' for Active; 'I' for Inactive)
REMARK    1  A    between atoms: N_4  and  C_5
REMARK    2  A    between atoms: C_5  and  C_6
REMARK    3  A    between atoms: C_6  and  C_7
REMARK    4  A    between atoms: C_7  and  C_8
REMARK    5  A    between atoms: C_8  and  C_9
REMARK    6  A    between atoms: C_9  and  C_10
REMARK    7  A    between atoms: C_10  and  C_11
REMARK    8  A    between atoms: C_11  and  N_12
REMARK    9  A    between atoms: N_12  and  C_13
REMARK   10  A    between atoms: C_13  and  C_14
REMARK   11  A    between atoms: C_14  and  C_15
REMARK   12  A    between atoms: C_15  and  C_16
REMARK   13  A    between atoms: C_16  and  C_17
REMARK   14  A    between atoms: C_17  and  C_18
REMARK   15  A    between atoms: C_18  and  C_19
REMARK   16  A    between atoms: C_19  and  N_20
REMARK                            x       y       z     vdW  Elec       q    Type
REMARK                         _______ _______ _______ _____ _____    ______ ____
ROOT
ATOM      1  N   UNL     1       0.544   3.757  20.134  0.00  0.00    +0.000 NA
ATOM      2  H   UNL     1      -0.409   4.101  19.987  0.00  0.00    +0.000 HD
ENDROOT
BRANCH   1   3
ATOM      3  C   UNL     1       1.451   4.873  20.398  0.00  0.00    +0.000 C 
BRANCH   3   4
ATOM      4  C   UNL     1       1.828   5.642  19.129  0.00  0.00    +0.000 C 
BRANCH   4   5
ATOM      5  C   UNL     1       2.400   7.029  19.442  0.00  0.00    +0.000 C 
BRANCH   5   6
ATOM      6  C   UNL     1       2.718   7.821  18.172  0.00  0.00    +0.000 C 
BRANCH   6   7
ATOM      7  C   UNL     1       1.553   8.706  17.712  0.00  0.00    +0.000 C 
BRANCH   7   8
ATOM      8  C   UNL     1       1.306   9.909  18.625  0.00  0.00    +0.000 C 
BRANCH   8   9
ATOM      9  C   UNL     1      -0.187  10.161  18.797  0.00  0.00    +0.000 C 
BRANCH   9  13
ATOM     10  N   UNL     1      -1.618  11.788  17.028  0.00  0.00    +0.000 NA
ATOM     11  C   UNL     1      -1.025  12.294  18.050  0.00  0.00    +0.000 C 
ATOM     12  N   UNL     1      -0.905  13.615  18.257  0.00  0.00    +0.000 N 
ATOM     13  N   UNL     1      -0.451  11.569  19.040  0.00  0.00    +0.000 N 
ATOM     14  H   UNL     1      -1.932  12.531  16.406  0.00  0.00    +0.000 HD
ATOM     15  H   UNL     1      -1.555  14.181  17.732  0.00  0.00    +0.000 HD
ATOM     16  H   UNL     1      -0.892  13.871  19.235  0.00  0.00    +0.000 HD
ATOM     17  H   UNL     1       0.323  12.046  19.481  0.00  0.00    +0.000 HD
ENDBRANCH   9  13
ENDBRANCH   8   9
ENDBRANCH   7   8
ENDBRANCH   6   7
ENDBRANCH   5   6
ENDBRANCH   4   5
ENDBRANCH   3   4
ENDBRANCH   1   3
BRANCH   1  18
ATOM     18  C   UNL     1       0.952   2.962  18.976  0.00  0.00    +0.000 C 
BRANCH  18  19
ATOM     19  C   UNL     1       1.860   1.796  19.386  0.00  0.00    +0.000 C 
BRANCH  19  20
ATOM     20  C   UNL     1       3.203   1.821  18.652  0.00  0.00    +0.000 C 
BRANCH  20  21
ATOM     21  C   UNL     1       4.253   2.541  19.492  0.00  0.00    +0.000 C 
BRANCH  21  22
ATOM     22  C   UNL     1       4.909   3.672  18.726  0.00  0.00    +0.000 C 
BRANCH  22  23
ATOM     23  C   UNL     1       4.339   3.736  17.312  0.00  0.00    +0.000 C 
BRANCH  23  24
ATOM     24  C   UNL     1       4.596   5.111  16.722  0.00  0.00    +0.000 C 
BRANCH  24  25
ATOM     25  N   UNL     1       5.514   5.034  15.615  0.00  0.00    +0.000 N 
ATOM     26  C   UNL     1       6.848   5.182  15.721  0.00  0.00    +0.000 C 
ATOM     27  N   UNL     1       7.528   5.306  16.803  0.00  0.00    +0.000 NA
ATOM     28  N   UNL     1       7.481   5.215  14.538  0.00  0.00    +0.000 N 
ATOM     29  H   UNL     1       5.122   4.899  14.694  0.00  0.00    +0.000 HD
ATOM     30  H   UNL     1       6.896   5.281  17.604  0.00  0.00    +0.000 HD
ATOM     31  H   UNL     1       7.103   4.650  13.795  0.00  0.00    +0.000 HD
ATOM     32  H   UNL     1       8.480   5.079  14.667  0.00  0.00    +0.000 HD
ENDBRANCH  24  25
ENDBRANCH  23  24
ENDBRANCH  22  23
ENDBRANCH  21  22
ENDBRANCH  20  21
ENDBRANCH  19  20
ENDBRANCH  18  19
ENDBRANCH   1  18
TORSDOF 16
ENDMDL
MODEL 5
REMARK VINA RESULT:      -6.0      3.519      5.740
REMARK  Name = 
REMARK  16 active torsions:
REMARK  status: ('A' for Active; 'I' for Inactive)
REMARK    1  A    between atoms: N_4  and  C_5
REMARK    2  A    between atoms: C_5  and  C_6
REMARK    3  A    between atoms: C_6  and  C_7
REMARK    4  A    between atoms: C_7  and  C_8
REMARK    5  A    between atoms: C_8  and  C_9
REMARK    6  A    between atoms: C_9  and  C_10
REMARK    7  A    between atoms: C_10  and  C_11
REMARK    8  A    between atoms: C_11  and  N_12
REMARK    9  A    between atoms: N_12  and  C_13
REMARK   10  A    between atoms: C_13  and  C_14
REMARK   11  A    between atoms: C_14  and  C_15
REMARK   12  A    between atoms: C_15  and  C_16
REMARK   13  A    between atoms: C_16  and  C_17
REMARK   14  A    between atoms: C_17  and  C_18
REMARK   15  A    between atoms: C_18  and  C_19
REMARK   16  A    between atoms: C_19  and  N_20
REMARK                            x       y       z     vdW  Elec       q    Type
REMARK                         _______ _______ _______ _____ _____    ______ ____
ROOT
ATOM      1  N   UNL     1       3.066   2.355  21.479  0.00  0.00    +0.000 NA
ATOM      2  H   UNL     1       3.601   2.299  22.351  0.00  0.00    +0.000 HD
ENDROOT
BRANCH   1   3
ATOM      3  C   UNL     1       3.916   2.839  20.393  0.00  0.00    +0.000 C 
BRANCH   3   4
ATOM      4  C   UNL     1       3.990   1.859  19.218  0.00  0.00    +0.000 C 
BRANCH   4   5
ATOM      5  C   UNL     1       3.667   2.534  17.881  0.00  0.00    +0.000 C 
BRANCH   5   6
ATOM      6  C   UNL     1       4.534   3.771  17.636  0.00  0.00    +0.000 C 
BRANCH   6   7
ATOM      7  C   UNL     1       4.727   4.080  16.146  0.00  0.00    +0.000 C 
BRANCH   7   8
ATOM      8  C   UNL     1       6.191   4.296  15.755  0.00  0.00    +0.000 C 
BRANCH   8   9
ATOM      9  C   UNL     1       6.989   4.855  16.927  0.00  0.00    +0.000 C 
BRANCH   9  13
ATOM     10  N   UNL     1       8.089   6.520  18.886  0.00  0.00    +0.000 NA
ATOM     11  C   UNL     1       7.765   6.989  17.734  0.00  0.00    +0.000 C 
ATOM     12  N   UNL     1       7.770   8.298  17.439  0.00  0.00    +0.000 N 
ATOM     13  N   UNL     1       7.380   6.231  16.678  0.00  0.00    +0.000 N 
ATOM     14  H   UNL     1       8.302   7.285  19.524  0.00  0.00    +0.000 HD
ATOM     15  H   UNL     1       8.322   8.865  18.066  0.00  0.00    +0.000 HD
ATOM     16  H   UNL     1       7.988   8.494  16.472  0.00  0.00    +0.000 HD
ATOM     17  H   UNL     1       6.751   6.715  16.054  0.00  0.00    +0.000 HD
ENDBRANCH   9  13
ENDBRANCH   8   9
ENDBRANCH   7   8
ENDBRANCH   6   7
ENDBRANCH   5   6
ENDBRANCH   4   5
ENDBRANCH   3   4
ENDBRANCH   1   3
BRANCH   1  18
ATOM     18  C   UNL     1       1.889   3.198  21.692  0.00  0.00    +0.000 C 
BRANCH  18  19
ATOM     19  C   UNL     1       0.993   3.236  20.448  0.00  0.00    +0.000 C 
BRANCH  19  20
ATOM     20  C   UNL     1       1.238   4.482  19.594  0.00  0.00    +0.000 C 
BRANCH  20  21
ATOM     21  C   UNL     1       1.757   5.625  20.460  0.00  0.00    +0.000 C 
BRANCH  21  22
ATOM     22  C   UNL     1       2.732   6.505  19.705  0.00  0.00    +0.000 C 
BRANCH  22  23
ATOM     23  C   UNL     1       2.269   6.667  18.260  0.00  0.00    +0.000 C 
BRANCH  23  24
ATOM     24  C   UNL     1       2.344   8.130  17.863  0.00  0.00    +0.000 C 
BRANCH  24  25
ATOM     25  N   UNL     1       1.762   8.971  18.877  0.00  0.00    +0.000 N 
ATOM     26  C   UNL     1       0.687   9.759  18.686  0.00  0.00    +0.000 C 
ATOM     27  N   UNL     1      -0.050   9.819  17.637  0.00  0.00    +0.000 NA
ATOM     28  N   UNL     1       0.414  10.558  19.729  0.00  0.00    +0.000 N 
ATOM     29  H   UNL     1       2.218   8.998  19.778  0.00  0.00    +0.000 HD
ATOM     30  H   UNL     1       0.304   9.167  16.936  0.00  0.00    +0.000 HD
ATOM     31  H   UNL     1       0.609  10.201  20.650  0.00  0.00    +0.000 HD
ATOM     32  H   UNL     1      -0.523  10.943  19.646  0.00  0.00    +0.000 HD
ENDBRANCH  24  25
ENDBRANCH  23  24
ENDBRANCH  22  23
ENDBRANCH  21  22
ENDBRANCH  20  21
ENDBRANCH  19  20
ENDBRANCH  18  19
ENDBRANCH   1  18
TORSDOF 16
ENDMDL
MODEL 6
REMARK VINA RESULT:      -5.9      4.722      7.334
REMARK  Name = 
REMARK  16 active torsions:
REMARK  status: ('A' for Active; 'I' for Inactive)
REMARK    1  A    between atoms: N_4  and  C_5
REMARK    2  A    between atoms: C_5  and  C_6
REMARK    3  A    between atoms: C_6  and  C_7
REMARK    4  A    between atoms: C_7  and  C_8
REMARK    5  A    between atoms: C_8  and  C_9
REMARK    6  A    between atoms: C_9  and  C_10
REMARK    7  A    between atoms: C_10  and  C_11
REMARK    8  A    between atoms: C_11  and  N_12
REMARK    9  A    between atoms: N_12  and  C_13
REMARK   10  A    between atoms: C_13  and  C_14
REMARK   11  A    between atoms: C_14  and  C_15
REMARK   12  A    between atoms: C_15  and  C_16
REMARK   13  A    between atoms: C_16  and  C_17
REMARK   14  A    between atoms: C_17  and  C_18
REMARK   15  A    between atoms: C_18  and  C_19
REMARK   16  A    between atoms: C_19  and  N_20
REMARK                            x       y       z     vdW  Elec       q    Type
REMARK                         _______ _______ _______ _____ _____    ______ ____
ROOT
ATOM      1  N   UNL     1       1.876   4.945  20.973  0.00  0.00    +0.000 NA
ATOM      2  H   UNL     1       2.795   4.493  20.989  0.00  0.00    +0.000 HD
ENDROOT
BRANCH   1   3
ATOM      3  C   UNL     1       0.917   4.123  20.236  0.00  0.00    +0.000 C 
BRANCH   3   4
ATOM      4  C   UNL     1       1.490   2.759  19.838  0.00  0.00    +0.000 C 
BRANCH   4   5
ATOM      5  C   UNL     1       2.872   2.511  20.452  0.00  0.00    +0.000 C 
BRANCH   5   6
ATOM      6  C   UNL     1       4.003   2.842  19.477  0.00  0.00    +0.000 C 
BRANCH   6   7
ATOM      7  C   UNL     1       3.637   2.557  18.016  0.00  0.00    +0.000 C 
BRANCH   7   8
ATOM      8  C   UNL     1       4.117   3.639  17.046  0.00  0.00    +0.000 C 
BRANCH   8   9
ATOM      9  C   UNL     1       5.419   4.263  17.532  0.00  0.00    +0.000 C 
BRANCH   9  13
ATOM     10  N   UNL     1       6.679   6.501  16.425  0.00  0.00    +0.000 NA
ATOM     11  C   UNL     1       6.884   5.329  15.942  0.00  0.00    +0.000 C 
ATOM     12  N   UNL     1       7.562   5.104  14.806  0.00  0.00    +0.000 N 
ATOM     13  N   UNL     1       6.448   4.178  16.510  0.00  0.00    +0.000 N 
ATOM     14  H   UNL     1       7.068   7.206  15.801  0.00  0.00    +0.000 HD
ATOM     15  H   UNL     1       8.151   5.869  14.513  0.00  0.00    +0.000 HD
ATOM     16  H   UNL     1       8.061   4.225  14.800  0.00  0.00    +0.000 HD
ATOM     17  H   UNL     1       6.277   3.445  15.836  0.00  0.00    +0.000 HD
ENDBRANCH   9  13
ENDBRANCH   8   9
ENDBRANCH   7   8
ENDBRANCH   6   7
ENDBRANCH   5   6
ENDBRANCH   4   5
ENDBRANCH   3   4
ENDBRANCH   1   3
BRANCH   1  18
ATOM     18  C   UNL     1       2.014   6.289  20.412  0.00  0.00    +0.000 C 
BRANCH  18  19
ATOM     19  C   UNL     1       2.378   6.241  18.923  0.00  0.00    +0.000 C 
BRANCH  19  20
ATOM     20  C   UNL     1       2.916   7.581  18.414  0.00  0.00    +0.000 C 
BRANCH  20  21
ATOM     21  C   UNL     1       1.835   8.326  17.638  0.00  0.00    +0.000 C 
BRANCH  21  22
ATOM     22  C   UNL     1       1.648   9.740  18.150  0.00  0.00    +0.000 C 
BRANCH  22  23
ATOM     23  C   UNL     1       0.755   9.727  19.387  0.00  0.00    +0.000 C 
BRANCH  23  24
ATOM     24  C   UNL     1      -0.460  10.604  19.146  0.00  0.00    +0.000 C 
BRANCH  24  25
ATOM     25  N   UNL     1      -0.923  10.483  17.787  0.00  0.00    +0.000 N 
ATOM     26  C   UNL     1      -1.975  11.153  17.279  0.00  0.00    +0.000 C 
ATOM     27  N   UNL     1      -2.662  12.066  17.861  0.00  0.00    +0.000 NA
ATOM     28  N   UNL     1      -2.305  10.771  16.036  0.00  0.00    +0.000 N 
ATOM     29  H   UNL     1      -0.447   9.821  17.191  0.00  0.00    +0.000 HD
ATOM     30  H   UNL     1      -2.294  12.221  18.801  0.00  0.00    +0.000 HD
ATOM     31  H   UNL     1      -1.557  10.485  15.424  0.00  0.00    +0.000 HD
ATOM     32  H   UNL     1      -2.925  11.454  15.608  0.00  0.00    +0.000 HD
ENDBRANCH  24  25
ENDBRANCH  23  24
ENDBRANCH  22  23
ENDBRANCH  21  22
ENDBRANCH  20  21
ENDBRANCH  19  20
ENDBRANCH  18  19
ENDBRANCH   1  18
TORSDOF 16
ENDMDL
MODEL 7
REMARK VINA RESULT:      -5.9      1.976      3.210
REMARK  Name = 
REMARK  16 active torsions:
REMARK  status: ('A' for Active; 'I' for Inactive)
REMARK    1  A    between atoms: N_4  and  C_5
REMARK    2  A    between atoms: C_5  and  C_6
REMARK    3  A    between atoms: C_6  and  C_7
REMARK    4  A    between atoms: C_7  and  C_8
REMARK    5  A    between atoms: C_8  and  C_9
REMARK    6  A    between atoms: C_9  and  C_10
REMARK    7  A    between atoms: C_10  and  C_11
REMARK    8  A    between atoms: C_11  and  N_12
REMARK    9  A    between atoms: N_12  and  C_13
REMARK   10  A    between atoms: C_13  and  C_14
REMARK   11  A    between atoms: C_14  and  C_15
REMARK   12  A    between atoms: C_15  and  C_16
REMARK   13  A    between atoms: C_16  and  C_17
REMARK   14  A    between atoms: C_17  and  C_18
REMARK   15  A    between atoms: C_18  and  C_19
REMARK   16  A    between atoms: C_19  and  N_20
REMARK                            x       y       z     vdW  Elec       q    Type
REMARK                         _______ _______ _______ _____ _____    ______ ____
ROOT
ATOM      1  N   UNL     1       5.235   5.554  17.320  0.00  0.00    +0.000 NA
ATOM      2  H   UNL     1       4.977   4.566  17.235  0.00  0.00    +0.000 HD
ENDROOT
BRANCH   1   3
ATOM      3  C   UNL     1       6.336   5.713  18.269  0.00  0.00    +0.000 C 
BRANCH   3   4
ATOM      4  C   UNL     1       7.605   6.268  17.616  0.00  0.00    +0.000 C 
BRANCH   4   5
ATOM      5  C   UNL     1       7.562   7.793  17.473  0.00  0.00    +0.000 C 
BRANCH   5   6
ATOM      6  C   UNL     1       8.507   8.490  18.454  0.00  0.00    +0.000 C 
BRANCH   6   7
ATOM      7  C   UNL     1       8.622   9.998  18.204  0.00  0.00    +0.000 C 
BRANCH   7   8
ATOM      8  C   UNL     1       9.568  10.705  19.177  0.00  0.00    +0.000 C 
BRANCH   8   9
ATOM      9  C   UNL     1       9.369  12.215  19.127  0.00  0.00    +0.000 C 
BRANCH   9  13
ATOM     10  N   UNL     1      11.676  13.614  19.864  0.00  0.00    +0.000 NA
ATOM     11  C   UNL     1      11.279  13.603  18.642  0.00  0.00    +0.000 C 
ATOM     12  N   UNL     1      11.818  14.368  17.681  0.00  0.00    +0.000 N 
ATOM     13  N   UNL     1      10.273  12.827  18.169  0.00  0.00    +0.000 N 
ATOM     14  H   UNL     1      12.414  14.305  19.982  0.00  0.00    +0.000 HD
ATOM     15  H   UNL     1      12.737  14.726  17.898  0.00  0.00    +0.000 HD
ATOM     16  H   UNL     1      11.792  13.944  16.764  0.00  0.00    +0.000 HD
ATOM     17  H   UNL     1       9.795  13.237  17.380  0.00  0.00    +0.000 HD
ENDBRANCH   9  13
ENDBRANCH   8   9
ENDBRANCH   7   8
ENDBRANCH   6   7
ENDBRANCH   5   6
ENDBRANCH   4   5
ENDBRANCH   3   4
ENDBRANCH   1   3
BRANCH   1  18
ATOM     18  C   UNL     1       4.051   6.328  17.696  0.00  0.00    +0.000 C 
BRANCH  18  19
ATOM     19  C   UNL     1       3.612   6.019  19.132  0.00  0.00    +0.000 C 
BRANCH  19  20
ATOM     20  C   UNL     1       2.253   6.639  19.469  0.00  0.00    +0.000 C 
BRANCH  20  21
ATOM     21  C   UNL     1       1.510   5.770  20.478  0.00  0.00    +0.000 C 
BRANCH  21  22
ATOM     22  C   UNL     1       2.089   4.372  20.553  0.00  0.00    +0.000 C 
BRANCH  22  23
ATOM     23  C   UNL     1       1.041   3.355  20.112  0.00  0.00    +0.000 C 
BRANCH  23  24
ATOM     24  C   UNL     1       1.365   2.864  18.713  0.00  0.00    +0.000 C 
BRANCH  24  25
ATOM     25  N   UNL     1       2.230   1.713  18.756  0.00  0.00    +0.000 N 
ATOM     26  C   UNL     1       3.530   1.725  18.406  0.00  0.00    +0.000 C 
ATOM     27  N   UNL     1       4.234   2.749  18.086  0.00  0.00    +0.000 NA
ATOM     28  N   UNL     1       4.094   0.507  18.391  0.00  0.00    +0.000 N 
ATOM     29  H   UNL     1       1.819   0.832  19.031  0.00  0.00    +0.000 HD
ATOM     30  H   UNL     1       3.652   3.587  18.129  0.00  0.00    +0.000 HD
ATOM     31  H   UNL     1       3.769  -0.162  19.070  0.00  0.00    +0.000 HD
ATOM     32  H   UNL     1       5.107   0.586  18.367  0.00  0.00    +0.000 HD
ENDBRANCH  24  25
ENDBRANCH  23  24
ENDBRANCH  22  23
ENDBRANCH  21  22
ENDBRANCH  20  21
ENDBRANCH  19  20
ENDBRANCH  18  19
ENDBRANCH   1  18
TORSDOF 16
ENDMDL
MODEL 8
REMARK VINA RESULT:      -5.8      2.111     10.505
REMARK  Name = 
REMARK  16 active torsions:
REMARK  status: ('A' for Active; 'I' for Inactive)
REMARK    1  A    between atoms: N_4  and  C_5
REMARK    2  A    between atoms: C_5  and  C_6
REMARK    3  A    between atoms: C_6  and  C_7
REMARK    4  A    between atoms: C_7  and  C_8
REMARK    5  A    between atoms: C_8  and  C_9
REMARK    6  A    between atoms: C_9  and  C_10
REMARK    7  A    between atoms: C_10  and  C_11
REMARK    8  A    between atoms: C_11  and  N_12
REMARK    9  A    between atoms: N_12  and  C_13
REMARK   10  A    between atoms: C_13  and  C_14
REMARK   11  A    between atoms: C_14  and  C_15
REMARK   12  A    between atoms: C_15  and  C_16
REMARK   13  A    between atoms: C_16  and  C_17
REMARK   14  A    between atoms: C_17  and  C_18
REMARK   15  A    between atoms: C_18  and  C_19
REMARK   16  A    between atoms: C_19  and  N_20
REMARK                            x       y       z     vdW  Elec       q    Type
REMARK                         _______ _______ _______ _____ _____    ______ ____
ROOT
ATOM      1  N   UNL     1       6.298   7.035  16.931  0.00  0.00    +0.000 NA
ATOM      2  H   UNL     1       5.433   6.659  17.332  0.00  0.00    +0.000 HD
ENDROOT
BRANCH   1   3
ATOM      3  C   UNL     1       7.380   6.059  17.051  0.00  0.00    +0.000 C 
BRANCH   3   4
ATOM      4  C   UNL     1       7.028   4.706  16.425  0.00  0.00    +0.000 C 
BRANCH   4   5
ATOM      5  C   UNL     1       5.604   4.683  15.861  0.00  0.00    +0.000 C 
BRANCH   5   6
ATOM      6  C   UNL     1       4.697   3.717  16.626  0.00  0.00    +0.000 C 
BRANCH   6   7
ATOM      7  C   UNL     1       3.971   4.382  17.802  0.00  0.00    +0.000 C 
BRANCH   7   8
ATOM      8  C   UNL     1       4.516   3.963  19.168  0.00  0.00    +0.000 C 
BRANCH   8   9
ATOM      9  C   UNL     1       3.903   2.641  19.614  0.00  0.00    +0.000 C 
BRANCH   9  13
ATOM     10  N   UNL     1       1.398   1.784  18.713  0.00  0.00    +0.000 NA
ATOM     11  C   UNL     1       1.499   2.535  19.750  0.00  0.00    +0.000 C 
ATOM     12  N   UNL     1       0.444   3.089  20.369  0.00  0.00    +0.000 N 
ATOM     13  N   UNL     1       2.670   2.863  20.349  0.00  0.00    +0.000 N 
ATOM     14  H   UNL     1       0.423   1.717  18.427  0.00  0.00    +0.000 HD
ATOM     15  H   UNL     1      -0.440   2.649  20.161  0.00  0.00    +0.000 HD
ATOM     16  H   UNL     1       0.577   3.210  21.363  0.00  0.00    +0.000 HD
ATOM     17  H   UNL     1       2.640   3.762  20.810  0.00  0.00    +0.000 HD
ENDBRANCH   9  13
ENDBRANCH   8   9
ENDBRANCH   7   8
ENDBRANCH   6   7
ENDBRANCH   5   6
ENDBRANCH   4   5
ENDBRANCH   3   4
ENDBRANCH   1   3
BRANCH   1  18
ATOM     18  C   UNL     1       6.614   8.307  17.581  0.00  0.00    +0.000 C 
BRANCH  18  19
ATOM     19  C   UNL     1       8.101   8.398  17.945  0.00  0.00    +0.000 C 
BRANCH  19  20
ATOM     20  C   UNL     1       8.640   9.826  17.831  0.00  0.00    +0.000 C 
BRANCH  20  21
ATOM     21  C   UNL     1       9.248  10.271  19.157  0.00  0.00    +0.000 C 
BRANCH  21  22
ATOM     22  C   UNL     1      10.529  11.055  18.955  0.00  0.00    +0.000 C 
BRANCH  22  23
ATOM     23  C   UNL     1      10.581  12.221  19.938  0.00  0.00    +0.000 C 
BRANCH  23  24
ATOM     24  C   UNL     1      11.167  13.440  19.250  0.00  0.00    +0.000 C 
BRANCH  24  25
ATOM     25  N   UNL     1      11.843  13.071  18.033  0.00  0.00    +0.000 N 
ATOM     26  C   UNL     1      11.678  13.696  16.851  0.00  0.00    +0.000 C 
ATOM     27  N   UNL     1      10.997  14.760  16.629  0.00  0.00    +0.000 NA
ATOM     28  N   UNL     1      12.301  13.087  15.830  0.00  0.00    +0.000 N 
ATOM     29  H   UNL     1      12.451  12.265  18.064  0.00  0.00    +0.000 HD
ATOM     30  H   UNL     1      10.575  15.080  17.502  0.00  0.00    +0.000 HD
ATOM     31  H   UNL     1      13.173  12.624  16.029  0.00  0.00    +0.000 HD
ATOM     32  H   UNL     1      12.358  13.709  15.028  0.00  0.00    +0.000 HD
ENDBRANCH  24  25
ENDBRANCH  23  24
ENDBRANCH  22  23
ENDBRANCH  21  22
ENDBRANCH  20  21
ENDBRANCH  19  20
ENDBRANCH  18  19
ENDBRANCH   1  18
TORSDOF 16
ENDMDL
MODEL 9
REMARK VINA RESULT:      -5.8      5.109      9.353
REMARK  Name = 
REMARK  16 active torsions:
REMARK  status: ('A' for Active; 'I' for Inactive)
REMARK    1  A    between atoms: N_4  and  C_5
REMARK    2  A    between atoms: C_5  and  C_6
REMARK    3  A    between atoms: C_6  and  C_7
REMARK    4  A    between atoms: C_7  and  C_8
REMARK    5  A    between atoms: C_8  and  C_9
REMARK    6  A    between atoms: C_9  and  C_10
REMARK    7  A    between atoms: C_10  and  C_11
REMARK    8  A    between atoms: C_11  and  N_12
REMARK    9  A    between atoms: N_12  and  C_13
REMARK   10  A    between atoms: C_13  and  C_14
REMARK   11  A    between atoms: C_14  and  C_15
REMARK   12  A    between atoms: C_15  and  C_16
REMARK   13  A    between atoms: C_16  and  C_17
REMARK   14  A    between atoms: C_17  and  C_18
REMARK   15  A    between atoms: C_18  and  C_19
REMARK   16  A    between atoms: C_19  and  N_20
REMARK                            x       y       z     vdW  Elec       q    Type
REMARK                         _______ _______ _______ _____ _____    ______ ____
ROOT
ATOM      1  N   UNL     1       3.562   5.905  17.564  0.00  0.00    +0.000 NA
ATOM      2  H   UNL     1       3.189   6.038  18.509  0.00  0.00    +0.000 HD
ENDROOT
BRANCH   1   3
ATOM      3  C   UNL     1       3.758   4.482  17.291  0.00  0.00    +0.000 C 
BRANCH   3   4
ATOM      4  C   UNL     1       2.439   3.731  17.085  0.00  0.00    +0.000 C 
BRANCH   4   5
ATOM      5  C   UNL     1       1.361   4.175  18.079  0.00  0.00    +0.000 C 
BRANCH   5   6
ATOM      6  C   UNL     1       0.547   2.994  18.611  0.00  0.00    +0.000 C 
BRANCH   6   7
ATOM      7  C   UNL     1       0.877   2.647  20.068  0.00  0.00    +0.000 C 
BRANCH   7   8
ATOM      8  C   UNL     1       1.606   3.770  20.809  0.00  0.00    +0.000 C 
BRANCH   8   9
ATOM      9  C   UNL     1       3.001   3.324  21.232  0.00  0.00    +0.000 C 
BRANCH   9  13
ATOM     10  N   UNL     1       5.244   2.944  19.605  0.00  0.00    +0.000 NA
ATOM     11  C   UNL     1       4.368   2.014  19.741  0.00  0.00    +0.000 C 
ATOM     12  N   UNL     1       4.366   0.886  19.013  0.00  0.00    +0.000 N 
ATOM     13  N   UNL     1       3.344   2.048  20.628  0.00  0.00    +0.000 N 
ATOM     14  H   UNL     1       5.886   2.707  18.851  0.00  0.00    +0.000 HD
ATOM     15  H   UNL     1       5.247   0.674  18.569  0.00  0.00    +0.000 HD
ATOM     16  H   UNL     1       3.996   0.086  19.508  0.00  0.00    +0.000 HD
ATOM     17  H   UNL     1       2.535   1.528  20.317  0.00  0.00    +0.000 HD
ENDBRANCH   9  13
ENDBRANCH   8   9
ENDBRANCH   7   8
ENDBRANCH   6   7
ENDBRANCH   5   6
ENDBRANCH   4   5
ENDBRANCH   3   4
ENDBRANCH   1   3
BRANCH   1  18
ATOM     18  C   UNL     1       4.795   6.680  17.422  0.00  0.00    +0.000 C 
BRANCH  18  19
ATOM     19  C   UNL     1       5.891   6.173  18.367  0.00  0.00    +0.000 C 
BRANCH  19  20
ATOM     20  C   UNL     1       7.244   6.034  17.666  0.00  0.00    +0.000 C 
BRANCH  20  21
ATOM     21  C   UNL     1       7.281   4.758  16.832  0.00  0.00    +0.000 C 
BRANCH  21  22
ATOM     22  C   UNL     1       6.958   5.026  15.376  0.00  0.00    +0.000 C 
BRANCH  22  23
ATOM     23  C   UNL     1       6.375   3.769  14.737  0.00  0.00    +0.000 C 
BRANCH  23  24
ATOM     24  C   UNL     1       6.207   3.988  13.245  0.00  0.00    +0.000 C 
BRANCH  24  25
ATOM     25  N   UNL     1       6.433   2.767  12.514  0.00  0.00    +0.000 N 
ATOM     26  C   UNL     1       5.564   2.236  11.634  0.00  0.00    +0.000 C 
ATOM     27  N   UNL     1       4.467   2.758  11.220  0.00  0.00    +0.000 NA
ATOM     28  N   UNL     1       5.926   1.023  11.186  0.00  0.00    +0.000 N 
ATOM     29  H   UNL     1       7.284   2.259  12.710  0.00  0.00    +0.000 HD
ATOM     30  H   UNL     1       4.333   3.664  11.670  0.00  0.00    +0.000 HD
ATOM     31  H   UNL     1       6.912   0.843  11.081  0.00  0.00    +0.000 HD
ATOM     32  H   UNL     1       5.390   0.775  10.360  0.00  0.00    +0.000 HD
ENDBRANCH  24  25
ENDBRANCH  23  24
ENDBRANCH  22  23
ENDBRANCH  21  22
ENDBRANCH  20  21
ENDBRANCH  19  20
ENDBRANCH  18  19
ENDBRANCH   1  18
TORSDOF 16
ENDMDL
