MODEL 1
REMARK VINA RESULT:      -6.2      0.000      0.000
REMARK  Name = 
REMARK  11 active torsions:
REMARK  status: ('A' for Active; 'I' for Inactive)
REMARK    1  A    between atoms: C_1  and  O_2
REMARK    2  A    between atoms: O_2  and  C_3
REMARK    3  A    between atoms: C_3  and  C_4
REMARK    4  A    between atoms: C_4  and  O_5
REMARK    5  A    between atoms: C_4  and  C_6
REMARK    6  A    between atoms: C_6  and  N_7
REMARK    7  A    between atoms: N_7  and  C_8
REMARK    8  A    between atoms: C_8  and  C_9
REMARK    9  A    between atoms: C_8  and  C_10
REMARK   10  A    between atoms: C_12  and  C_13
REMARK   11  A    between atoms: C_15  and  C_16
REMARK                            x       y       z     vdW  Elec       q    Type
REMARK                         _______ _______ _______ _____ _____    ______ ____
ROOT
ATOM      1  N   UNL     1       5.226   3.456  17.948  0.00  0.00    +0.000 NA
ATOM      2  H   UNL     1       5.067   2.454  17.798  0.00  0.00    +0.000 HD
ENDROOT
BRANCH   1   3
ATOM      3  C   UNL     1       4.596   4.221  16.865  0.00  0.00    +0.000 C 
ATOM      4  C   UNL     1       3.840   5.443  17.400  0.00  0.00    +0.000 C 
BRANCH   3   5
ATOM      5  C   UNL     1       5.675   4.647  15.913  0.00  0.00    +0.000 A 
ATOM      6  C   UNL     1       5.806   4.311  14.530  0.00  0.00    +0.000 A 
ATOM      7  C   UNL     1       6.966   4.899  14.082  0.00  0.00    +0.000 A 
ATOM      8  C   UNL     1       7.652   4.933  12.777  0.00  0.00    +0.000 C 
ATOM      9  O   UNL     1       7.564   5.578  15.097  0.00  0.00    +0.000 OA
ATOM     10  C   UNL     1       6.786   5.425  16.200  0.00  0.00    +0.000 A 
ATOM     11  C   UNL     1       7.270   6.079  17.435  0.00  0.00    +0.000 C 
ENDBRANCH   3   5
ENDBRANCH   1   3
BRANCH   1  12
ATOM     12  C   UNL     1       4.721   3.811  19.272  0.00  0.00    +0.000 C 
BRANCH  12  13
ATOM     13  C   UNL     1       4.169   2.590  20.021  0.00  0.00    +0.000 C 
BRANCH  13  14
ATOM     14  O   UNL     1       5.103   1.505  19.901  0.00  0.00    +0.000 OA
ATOM     15  H   UNL     1       4.770   0.760  20.426  0.00  0.00    +0.000 HD
ENDBRANCH  13  14
BRANCH  13  16
ATOM     16  C   UNL     1       2.797   2.232  19.423  0.00  0.00    +0.000 C 
BRANCH  16  18
ATOM     17  C   UNL     1       1.790   2.716  21.493  0.00  0.00    +0.000 C 
ATOM     18  O   UNL     1       1.753   2.937  20.090  0.00  0.00    +0.000 OA
ENDBRANCH  16  18
ENDBRANCH  13  16
ENDBRANCH  12  13
ENDBRANCH   1  12
TORSDOF 7
ENDMDL
MODEL 2
REMARK VINA RESULT:      -6.0      1.699      2.237
REMARK  Name = 
REMARK  11 active torsions:
REMARK  status: ('A' for Active; 'I' for Inactive)
REMARK    1  A    between atoms: C_1  and  O_2
REMARK    2  A    between atoms: O_2  and  C_3
REMARK    3  A    between atoms: C_3  and  C_4
REMARK    4  A    between atoms: C_4  and  O_5
REMARK    5  A    between atoms: C_4  and  C_6
REMARK    6  A    between atoms: C_6  and  N_7
REMARK    7  A    between atoms: N_7  and  C_8
REMARK    8  A    between atoms: C_8  and  C_9
REMARK    9  A    between atoms: C_8  and  C_10
REMARK   10  A    between atoms: C_12  and  C_13
REMARK   11  A    between atoms: C_15  and  C_16
REMARK                            x       y       z     vdW  Elec       q    Type
REMARK                         _______ _______ _______ _____ _____    ______ ____
ROOT
ATOM      1  N   UNL     1       5.699   3.674  19.109  0.00  0.00    +0.000 NA
ATOM      2  H   UNL     1       5.801   3.116  18.254  0.00  0.00    +0.000 HD
ENDROOT
BRANCH   1   3
ATOM      3  C   UNL     1       5.987   5.083  18.814  0.00  0.00    +0.000 C 
ATOM      4  C   UNL     1       7.317   5.531  19.432  0.00  0.00    +0.000 C 
BRANCH   3   5
ATOM      5  C   UNL     1       6.022   5.244  17.322  0.00  0.00    +0.000 A 
ATOM      6  C   UNL     1       6.848   4.550  16.385  0.00  0.00    +0.000 A 
ATOM      7  C   UNL     1       6.556   5.055  15.140  0.00  0.00    +0.000 A 
ATOM      8  C   UNL     1       7.053   4.767  13.782  0.00  0.00    +0.000 C 
ATOM      9  O   UNL     1       5.602   6.018  15.243  0.00  0.00    +0.000 OA
ATOM     10  C   UNL     1       5.281   6.132  16.557  0.00  0.00    +0.000 A 
ATOM     11  C   UNL     1       4.261   7.148  16.895  0.00  0.00    +0.000 C 
ENDBRANCH   3   5
ENDBRANCH   1   3
BRANCH   1  12
ATOM     12  C   UNL     1       4.356   3.462  19.642  0.00  0.00    +0.000 C 
BRANCH  12  13
ATOM     13  C   UNL     1       3.427   2.803  18.612  0.00  0.00    +0.000 C 
BRANCH  13  14
ATOM     14  O   UNL     1       4.225   2.131  17.624  0.00  0.00    +0.000 OA
ATOM     15  H   UNL     1       4.945   1.668  18.081  0.00  0.00    +0.000 HD
ENDBRANCH  13  14
BRANCH  13  16
ATOM     16  C   UNL     1       2.543   3.896  17.985  0.00  0.00    +0.000 C 
BRANCH  16  18
ATOM     17  C   UNL     1       0.867   2.433  18.747  0.00  0.00    +0.000 C 
ATOM     18  O   UNL     1       1.213   3.422  17.788  0.00  0.00    +0.000 OA
ENDBRANCH  16  18
ENDBRANCH  13  16
ENDBRANCH  12  13
ENDBRANCH   1  12
TORSDOF 7
ENDMDL
MODEL 3
REMARK VINA RESULT:      -5.9      1.036      1.048
REMARK  Name = 
REMARK  11 active torsions:
REMARK  status: ('A' for Active; 'I' for Inactive)
REMARK    1  A    between atoms: C_1  and  O_2
REMARK    2  A    between atoms: O_2  and  C_3
REMARK    3  A    between atoms: C_3  and  C_4
REMARK    4  A    between atoms: C_4  and  O_5
REMARK    5  A    between atoms: C_4  and  C_6
REMARK    6  A    between atoms: C_6  and  N_7
REMARK    7  A    between atoms: N_7  and  C_8
REMARK    8  A    between atoms: C_8  and  C_9
REMARK    9  A    between atoms: C_8  and  C_10
REMARK   10  A    between atoms: C_12  and  C_13
REMARK   11  A    between atoms: C_15  and  C_16
REMARK                            x       y       z     vdW  Elec       q    Type
REMARK                         _______ _______ _______ _____ _____    ______ ____
ROOT
ATOM      1  N   UNL     1       4.133   3.483  17.378  0.00  0.00    +0.000 NA
ATOM      2  H   UNL     1       3.174   3.216  17.133  0.00  0.00    +0.000 HD
ENDROOT
BRANCH   1   3
ATOM      3  C   UNL     1       4.373   4.875  16.978  0.00  0.00    +0.000 C 
ATOM      4  C   UNL     1       4.593   5.784  18.194  0.00  0.00    +0.000 C 
BRANCH   3   5
ATOM      5  C   UNL     1       5.578   4.896  16.083  0.00  0.00    +0.000 A 
ATOM      6  C   UNL     1       5.608   4.985  14.657  0.00  0.00    +0.000 A 
ATOM      7  C   UNL     1       6.929   4.933  14.280  0.00  0.00    +0.000 A 
ATOM      8  C   UNL     1       7.619   4.977  12.977  0.00  0.00    +0.000 C 
ATOM      9  O   UNL     1       7.722   4.819  15.379  0.00  0.00    +0.000 OA
ATOM     10  C   UNL     1       6.907   4.796  16.465  0.00  0.00    +0.000 A 
ATOM     11  C   UNL     1       7.574   4.658  17.778  0.00  0.00    +0.000 C 
ENDBRANCH   3   5
ENDBRANCH   1   3
BRANCH   1  12
ATOM     12  C   UNL     1       4.327   3.254  18.808  0.00  0.00    +0.000 C 
BRANCH  12  13
ATOM     13  C   UNL     1       3.662   1.951  19.274  0.00  0.00    +0.000 C 
BRANCH  13  14
ATOM     14  O   UNL     1       4.207   0.852  18.526  0.00  0.00    +0.000 OA
ATOM     15  H   UNL     1       4.890   1.201  17.932  0.00  0.00    +0.000 HD
ENDBRANCH  13  14
BRANCH  13  16
ATOM     16  C   UNL     1       2.142   2.081  19.071  0.00  0.00    +0.000 C 
BRANCH  16  18
ATOM     17  C   UNL     1       0.959   3.742  20.245  0.00  0.00    +0.000 C 
ATOM     18  O   UNL     1       1.742   3.450  19.096  0.00  0.00    +0.000 OA
ENDBRANCH  16  18
ENDBRANCH  13  16
ENDBRANCH  12  13
ENDBRANCH   1  12
TORSDOF 7
ENDMDL
MODEL 4
REMARK VINA RESULT:      -5.9      1.117      2.332
REMARK  Name = 
REMARK  11 active torsions:
REMARK  status: ('A' for Active; 'I' for Inactive)
REMARK    1  A    between atoms: C_1  and  O_2
REMARK    2  A    between atoms: O_2  and  C_3
REMARK    3  A    between atoms: C_3  and  C_4
REMARK    4  A    between atoms: C_4  and  O_5
REMARK    5  A    between atoms: C_4  and  C_6
REMARK    6  A    between atoms: C_6  and  N_7
REMARK    7  A    between atoms: N_7  and  C_8
REMARK    8  A    between atoms: C_8  and  C_9
REMARK    9  A    between atoms: C_8  and  C_10
REMARK   10  A    between atoms: C_12  and  C_13
REMARK   11  A    between atoms: C_15  and  C_16
REMARK                            x       y       z     vdW  Elec       q    Type
REMARK                         _______ _______ _______ _____ _____    ______ ____
ROOT
ATOM      1  N   UNL     1       4.659   3.028  17.273  0.00  0.00    +0.000 NA
ATOM      2  H   UNL     1       4.608   2.303  16.550  0.00  0.00    +0.000 HD
ENDROOT
BRANCH   1   3
ATOM      3  C   UNL     1       4.271   4.323  16.700  0.00  0.00    +0.000 C 
ATOM      4  C   UNL     1       3.130   4.974  17.491  0.00  0.00    +0.000 C 
BRANCH   3   5
ATOM      5  C   UNL     1       5.481   5.210  16.701  0.00  0.00    +0.000 A 
ATOM      6  C   UNL     1       5.814   6.237  17.637  0.00  0.00    +0.000 A 
ATOM      7  C   UNL     1       6.994   6.801  17.213  0.00  0.00    +0.000 A 
ATOM      8  C   UNL     1       7.848   7.886  17.730  0.00  0.00    +0.000 C 
ATOM      9  O   UNL     1       7.416   6.190  16.074  0.00  0.00    +0.000 OA
ATOM     10  C   UNL     1       6.505   5.232  15.766  0.00  0.00    +0.000 A 
ATOM     11  C   UNL     1       6.768   4.451  14.538  0.00  0.00    +0.000 C 
ENDBRANCH   3   5
ENDBRANCH   1   3
BRANCH   1  12
ATOM     12  C   UNL     1       3.819   2.622  18.397  0.00  0.00    +0.000 C 
BRANCH  12  13
ATOM     13  C   UNL     1       4.508   2.870  19.747  0.00  0.00    +0.000 C 
BRANCH  13  14
ATOM     14  O   UNL     1       5.032   1.627  20.241  0.00  0.00    +0.000 OA
ATOM     15  H   UNL     1       4.293   1.106  20.594  0.00  0.00    +0.000 HD
ENDBRANCH  13  14
BRANCH  13  16
ATOM     16  C   UNL     1       3.477   3.479  20.714  0.00  0.00    +0.000 C 
BRANCH  16  18
ATOM     17  C   UNL     1       1.551   2.517  21.661  0.00  0.00    +0.000 C 
ATOM     18  O   UNL     1       2.971   2.489  21.606  0.00  0.00    +0.000 OA
ENDBRANCH  16  18
ENDBRANCH  13  16
ENDBRANCH  12  13
ENDBRANCH   1  12
TORSDOF 7
ENDMDL
MODEL 5
REMARK VINA RESULT:      -5.8      1.905      2.470
REMARK  Name = 
REMARK  11 active torsions:
REMARK  status: ('A' for Active; 'I' for Inactive)
REMARK    1  A    between atoms: C_1  and  O_2
REMARK    2  A    between atoms: O_2  and  C_3
REMARK    3  A    between atoms: C_3  and  C_4
REMARK    4  A    between atoms: C_4  and  O_5
REMARK    5  A    between atoms: C_4  and  C_6
REMARK    6  A    between atoms: C_6  and  N_7
REMARK    7  A    between atoms: N_7  and  C_8
REMARK    8  A    between atoms: C_8  and  C_9
REMARK    9  A    between atoms: C_8  and  C_10
REMARK   10  A    between atoms: C_12  and  C_13
REMARK   11  A    between atoms: C_15  and  C_16
REMARK                            x       y       z     vdW  Elec       q    Type
REMARK                         _______ _______ _______ _____ _____    ______ ____
ROOT
ATOM      1  N   UNL     1       3.639   5.059  18.012  0.00  0.00    +0.000 NA
ATOM      2  H   UNL     1       3.852   5.756  17.292  0.00  0.00    +0.000 HD
ENDROOT
BRANCH   1   3
ATOM      3  C   UNL     1       4.562   3.924  17.887  0.00  0.00    +0.000 C 
ATOM      4  C   UNL     1       3.823   2.626  17.542  0.00  0.00    +0.000 C 
BRANCH   3   5
ATOM      5  C   UNL     1       5.561   4.259  16.818  0.00  0.00    +0.000 A 
ATOM      6  C   UNL     1       5.400   4.143  15.403  0.00  0.00    +0.000 A 
ATOM      7  C   UNL     1       6.589   4.529  14.830  0.00  0.00    +0.000 A 
ATOM      8  C   UNL     1       7.063   4.634  13.437  0.00  0.00    +0.000 C 
ATOM      9  O   UNL     1       7.479   4.876  15.798  0.00  0.00    +0.000 OA
ATOM     10  C   UNL     1       6.859   4.713  16.995  0.00  0.00    +0.000 A 
ATOM     11  C   UNL     1       7.665   5.023  18.196  0.00  0.00    +0.000 C 
ENDBRANCH   3   5
ENDBRANCH   1   3
BRANCH   1  12
ATOM     12  C   UNL     1       3.701   5.709  19.319  0.00  0.00    +0.000 C 
BRANCH  12  13
ATOM     13  C   UNL     1       2.302   5.979  19.891  0.00  0.00    +0.000 C 
BRANCH  13  14
ATOM     14  O   UNL     1       2.276   7.295  20.466  0.00  0.00    +0.000 OA
ATOM     15  H   UNL     1       2.914   7.847  19.986  0.00  0.00    +0.000 HD
ENDBRANCH  13  14
BRANCH  13  16
ATOM     16  C   UNL     1       1.986   4.894  20.936  0.00  0.00    +0.000 C 
BRANCH  16  18
ATOM     17  C   UNL     1       0.902   3.115  19.843  0.00  0.00    +0.000 C 
ATOM     18  O   UNL     1       2.131   3.591  20.375  0.00  0.00    +0.000 OA
ENDBRANCH  16  18
ENDBRANCH  13  16
ENDBRANCH  12  13
ENDBRANCH   1  12
TORSDOF 7
ENDMDL
MODEL 6
REMARK VINA RESULT:      -5.8      1.988      6.062
REMARK  Name = 
REMARK  11 active torsions:
REMARK  status: ('A' for Active; 'I' for Inactive)
REMARK    1  A    between atoms: C_1  and  O_2
REMARK    2  A    between atoms: O_2  and  C_3
REMARK    3  A    between atoms: C_3  and  C_4
REMARK    4  A    between atoms: C_4  and  O_5
REMARK    5  A    between atoms: C_4  and  C_6
REMARK    6  A    between atoms: C_6  and  N_7
REMARK    7  A    between atoms: N_7  and  C_8
REMARK    8  A    between atoms: C_8  and  C_9
REMARK    9  A    between atoms: C_8  and  C_10
REMARK   10  A    between atoms: C_12  and  C_13
REMARK   11  A    between atoms: C_15  and  C_16
REMARK                            x       y       z     vdW  Elec       q    Type
REMARK                         _______ _______ _______ _____ _____    ______ ____
ROOT
ATOM      1  N   UNL     1       4.250   6.270  18.072  0.00  0.00    +0.000 NA
ATOM      2  H   UNL     1       3.984   5.579  17.363  0.00  0.00    +0.000 HD
ENDROOT
BRANCH   1   3
ATOM      3  C   UNL     1       3.092   6.571  18.924  0.00  0.00    +0.000 C 
ATOM      4  C   UNL     1       2.017   7.356  18.163  0.00  0.00    +0.000 C 
BRANCH   3   5
ATOM      5  C   UNL     1       2.536   5.268  19.422  0.00  0.00    +0.000 A 
ATOM      6  C   UNL     1       2.273   4.888  20.774  0.00  0.00    +0.000 A 
ATOM      7  C   UNL     1       1.805   3.596  20.744  0.00  0.00    +0.000 A 
ATOM      8  C   UNL     1       1.363   2.648  21.784  0.00  0.00    +0.000 C 
ATOM      9  O   UNL     1       1.761   3.148  19.461  0.00  0.00    +0.000 OA
ATOM     10  C   UNL     1       2.202   4.156  18.665  0.00  0.00    +0.000 A 
ATOM     11  C   UNL     1       2.250   3.869  17.215  0.00  0.00    +0.000 C 
ENDBRANCH   3   5
ENDBRANCH   1   3
BRANCH   1  12
ATOM     12  C   UNL     1       5.393   5.752  18.818  0.00  0.00    +0.000 C 
BRANCH  12  13
ATOM     13  C   UNL     1       6.013   4.523  18.137  0.00  0.00    +0.000 C 
BRANCH  13  14
ATOM     14  O   UNL     1       5.787   3.367  18.960  0.00  0.00    +0.000 OA
ATOM     15  H   UNL     1       5.501   3.671  19.835  0.00  0.00    +0.000 HD
ENDBRANCH  13  14
BRANCH  13  16
ATOM     16  C   UNL     1       7.514   4.789  17.925  0.00  0.00    +0.000 C 
BRANCH  16  18
ATOM     17  C   UNL     1       7.030   4.747  15.623  0.00  0.00    +0.000 C 
ATOM     18  O   UNL     1       7.933   4.335  16.640  0.00  0.00    +0.000 OA
ENDBRANCH  16  18
ENDBRANCH  13  16
ENDBRANCH  12  13
ENDBRANCH   1  12
TORSDOF 7
ENDMDL
MODEL 7
REMARK VINA RESULT:      -5.8      1.355      1.633
REMARK  Name = 
REMARK  11 active torsions:
REMARK  status: ('A' for Active; 'I' for Inactive)
REMARK    1  A    between atoms: C_1  and  O_2
REMARK    2  A    between atoms: O_2  and  C_3
REMARK    3  A    between atoms: C_3  and  C_4
REMARK    4  A    between atoms: C_4  and  O_5
REMARK    5  A    between atoms: C_4  and  C_6
REMARK    6  A    between atoms: C_6  and  N_7
REMARK    7  A    between atoms: N_7  and  C_8
REMARK    8  A    between atoms: C_8  and  C_9
REMARK    9  A    between atoms: C_8  and  C_10
REMARK   10  A    between atoms: C_12  and  C_13
REMARK   11  A    between atoms: C_15  and  C_16
REMARK                            x       y       z     vdW  Elec       q    Type
REMARK                         _______ _______ _______ _____ _____    ______ ____
ROOT
ATOM      1  N   UNL     1       3.840   3.999  17.899  0.00  0.00    +0.000 NA
ATOM      2  H   UNL     1       2.880   4.325  18.051  0.00  0.00    +0.000 HD
ENDROOT
BRANCH   1   3
ATOM      3  C   UNL     1       4.771   5.124  18.048  0.00  0.00    +0.000 C 
ATOM      4  C   UNL     1       5.643   4.977  19.301  0.00  0.00    +0.000 C 
BRANCH   3   5
ATOM      5  C   UNL     1       5.628   5.179  16.817  0.00  0.00    +0.000 A 
ATOM      6  C   UNL     1       5.512   4.387  15.633  0.00  0.00    +0.000 A 
ATOM      7  C   UNL     1       6.535   4.765  14.795  0.00  0.00    +0.000 A 
ATOM      8  C   UNL     1       6.959   4.338  13.449  0.00  0.00    +0.000 C 
ATOM      9  O   UNL     1       7.279   5.739  15.382  0.00  0.00    +0.000 OA
ATOM     10  C   UNL     1       6.733   5.988  16.600  0.00  0.00    +0.000 A 
ATOM     11  C   UNL     1       7.408   7.016  17.421  0.00  0.00    +0.000 C 
ENDBRANCH   3   5
ENDBRANCH   1   3
BRANCH   1  12
ATOM     12  C   UNL     1       4.109   2.904  18.828  0.00  0.00    +0.000 C 
BRANCH  12  13
ATOM     13  C   UNL     1       2.906   1.958  18.963  0.00  0.00    +0.000 C 
BRANCH  13  14
ATOM     14  O   UNL     1       2.288   1.800  17.676  0.00  0.00    +0.000 OA
ATOM     15  H   UNL     1       2.708   2.421  17.060  0.00  0.00    +0.000 HD
ENDBRANCH  13  14
BRANCH  13  16
ATOM     16  C   UNL     1       1.933   2.555  19.995  0.00  0.00    +0.000 C 
BRANCH  16  18
ATOM     17  C   UNL     1       1.520   4.782  20.632  0.00  0.00    +0.000 C 
ATOM     18  O   UNL     1       2.478   3.733  20.585  0.00  0.00    +0.000 OA
ENDBRANCH  16  18
ENDBRANCH  13  16
ENDBRANCH  12  13
ENDBRANCH   1  12
TORSDOF 7
ENDMDL
MODEL 8
REMARK VINA RESULT:      -5.8      1.393      2.319
REMARK  Name = 
REMARK  11 active torsions:
REMARK  status: ('A' for Active; 'I' for Inactive)
REMARK    1  A    between atoms: C_1  and  O_2
REMARK    2  A    between atoms: O_2  and  C_3
REMARK    3  A    between atoms: C_3  and  C_4
REMARK    4  A    between atoms: C_4  and  O_5
REMARK    5  A    between atoms: C_4  and  C_6
REMARK    6  A    between atoms: C_6  and  N_7
REMARK    7  A    between atoms: N_7  and  C_8
REMARK    8  A    between atoms: C_8  and  C_9
REMARK    9  A    between atoms: C_8  and  C_10
REMARK   10  A    between atoms: C_12  and  C_13
REMARK   11  A    between atoms: C_15  and  C_16
REMARK                            x       y       z     vdW  Elec       q    Type
REMARK                         _______ _______ _______ _____ _____    ______ ____
ROOT
ATOM      1  N   UNL     1       3.339   5.069  18.011  0.00  0.00    +0.000 NA
ATOM      2  H   UNL     1       2.794   5.550  17.287  0.00  0.00    +0.000 HD
ENDROOT
BRANCH   1   3
ATOM      3  C   UNL     1       4.615   5.766  18.209  0.00  0.00    +0.000 C 
ATOM      4  C   UNL     1       5.352   5.258  19.455  0.00  0.00    +0.000 C 
BRANCH   3   5
ATOM      5  C   UNL     1       5.453   5.552  16.982  0.00  0.00    +0.000 A 
ATOM      6  C   UNL     1       5.195   4.668  15.889  0.00  0.00    +0.000 A 
ATOM      7  C   UNL     1       6.253   4.786  15.019  0.00  0.00    +0.000 A 
ATOM      8  C   UNL     1       6.585   4.156  13.728  0.00  0.00    +0.000 C 
ATOM      9  O   UNL     1       7.151   5.686  15.500  0.00  0.00    +0.000 OA
ATOM     10  C   UNL     1       6.669   6.147  16.683  0.00  0.00    +0.000 A 
ATOM     11  C   UNL     1       7.510   7.136  17.391  0.00  0.00    +0.000 C 
ENDBRANCH   3   5
ENDBRANCH   1   3
BRANCH   1  12
ATOM     12  C   UNL     1       2.530   4.996  19.226  0.00  0.00    +0.000 C 
BRANCH  12  13
ATOM     13  C   UNL     1       1.914   3.603  19.421  0.00  0.00    +0.000 C 
BRANCH  13  14
ATOM     14  O   UNL     1       0.637   3.740  20.064  0.00  0.00    +0.000 OA
ATOM     15  H   UNL     1      -0.049   3.737  19.377  0.00  0.00    +0.000 HD
ENDBRANCH  13  14
BRANCH  13  16
ATOM     16  C   UNL     1       2.887   2.755  20.260  0.00  0.00    +0.000 C 
BRANCH  16  18
ATOM     17  C   UNL     1       3.405   1.550  18.307  0.00  0.00    +0.000 C 
ATOM     18  O   UNL     1       3.928   2.222  19.445  0.00  0.00    +0.000 OA
ENDBRANCH  16  18
ENDBRANCH  13  16
ENDBRANCH  12  13
ENDBRANCH   1  12
TORSDOF 7
ENDMDL
MODEL 9
REMARK VINA RESULT:      -5.8      1.586      2.640
REMARK  Name = 
REMARK  11 active torsions:
REMARK  status: ('A' for Active; 'I' for Inactive)
REMARK    1  A    between atoms: C_1  and  O_2
REMARK    2  A    between atoms: O_2  and  C_3
REMARK    3  A    between atoms: C_3  and  C_4
REMARK    4  A    between atoms: C_4  and  O_5
REMARK    5  A    between atoms: C_4  and  C_6
REMARK    6  A    between atoms: C_6  and  N_7
REMARK    7  A    between atoms: N_7  and  C_8
REMARK    8  A    between atoms: C_8  and  C_9
REMARK    9  A    between atoms: C_8  and  C_10
REMARK   10  A    between atoms: C_12  and  C_13
REMARK   11  A    between atoms: C_15  and  C_16
REMARK                            x       y       z     vdW  Elec       q    Type
REMARK                         _______ _______ _______ _____ _____    ______ ____
ROOT
ATOM      1  N   UNL     1       4.280   3.718  17.938  0.00  0.00    +0.000 NA
ATOM      2  H   UNL     1       5.212   3.348  17.721  0.00  0.00    +0.000 HD
ENDROOT
BRANCH   1   3
ATOM      3  C   UNL     1       4.051   4.951  17.175  0.00  0.00    +0.000 C 
ATOM      4  C   UNL     1       3.004   5.847  17.847  0.00  0.00    +0.000 C 
BRANCH   3   5
ATOM      5  C   UNL     1       5.362   5.673  17.061  0.00  0.00    +0.000 A 
ATOM      6  C   UNL     1       5.800   6.816  17.798  0.00  0.00    +0.000 A 
ATOM      7  C   UNL     1       7.049   7.144  17.327  0.00  0.00    +0.000 A 
ATOM      8  C   UNL     1       8.021   8.201  17.666  0.00  0.00    +0.000 C 
ATOM      9  O   UNL     1       7.416   6.279  16.345  0.00  0.00    +0.000 OA
ATOM     10  C   UNL     1       6.400   5.393  16.184  0.00  0.00    +0.000 A 
ATOM     11  C   UNL     1       6.589   4.363  15.140  0.00  0.00    +0.000 C 
ENDBRANCH   3   5
ENDBRANCH   1   3
BRANCH   1  12
ATOM     12  C   UNL     1       3.292   2.678  17.659  0.00  0.00    +0.000 C 
BRANCH  12  13
ATOM     13  C   UNL     1       2.912   1.895  18.924  0.00  0.00    +0.000 C 
BRANCH  13  14
ATOM     14  O   UNL     1       1.593   1.350  18.759  0.00  0.00    +0.000 OA
ATOM     15  H   UNL     1       0.978   2.086  18.613  0.00  0.00    +0.000 HD
ENDBRANCH  13  14
BRANCH  13  16
ATOM     16  C   UNL     1       2.989   2.851  20.128  0.00  0.00    +0.000 C 
BRANCH  16  18
ATOM     17  C   UNL     1       1.251   4.360  20.616  0.00  0.00    +0.000 C 
ATOM     18  O   UNL     1       1.705   3.017  20.726  0.00  0.00    +0.000 OA
ENDBRANCH  16  18
ENDBRANCH  13  16
ENDBRANCH  12  13
ENDBRANCH   1  12
TORSDOF 7
ENDMDL
