MODEL 1
REMARK VINA RESULT:      -8.6      0.000      0.000
REMARK  Name = 
REMARK  3 active torsions:
REMARK  status: ('A' for Active; 'I' for Inactive)
REMARK    1  A    between atoms: C_2  and  C_19
REMARK    2  A    between atoms: C_7  and  N_8
REMARK    3  A    between atoms: C_9  and  C_11
REMARK                            x       y       z     vdW  Elec       q    Type
REMARK                         _______ _______ _______ _____ _____    ______ ____
ROOT
ATOM      1  O   UNL     1       7.775  10.383  17.746  0.00  0.00    +0.000 OA
ATOM      2  C   UNL     1       8.727   9.880  18.333  0.00  0.00    +0.000 C 
ATOM      3  N   UNL     1       8.830   8.552  18.698  0.00  0.00    +0.000 N 
ATOM      4  C   UNL     1       7.912   7.561  18.320  0.00  0.00    +0.000 A 
ATOM      5  C   UNL     1       7.955   6.346  18.988  0.00  0.00    +0.000 A 
ATOM      6  C   UNL     1       7.031   5.355  18.647  0.00  0.00    +0.000 A 
ATOM      7  C   UNL     1       6.081   5.577  17.654  0.00  0.00    +0.000 A 
ATOM      8  C   UNL     1       6.153   6.803  17.006  0.00  0.00    +0.000 A 
ATOM      9  N   UNL     1       7.033   7.784  17.325  0.00  0.00    +0.000 NA
ATOM     10  H   UNL     1       9.581   8.305  19.330  0.00  0.00    +0.000 HD
ENDROOT
BRANCH   2  11
ATOM     11  C   UNL     1       9.847  10.705  18.753  0.00  0.00    +0.000 A 
ATOM     12  C   UNL     1      10.187  11.135  20.023  0.00  0.00    +0.000 A 
ATOM     13  C   UNL     1      11.313  11.973  19.890  0.00  0.00    +0.000 A 
ATOM     14  C   UNL     1      11.610  11.997  18.547  0.00  0.00    +0.000 A 
ATOM     15  O   UNL     1      10.742  11.215  17.845  0.00  0.00    +0.000 OA
ENDBRANCH   2  11
BRANCH   7  16
ATOM     16  N   UNL     1       5.093   4.626  17.293  0.00  0.00    +0.000 N 
ATOM     17  C   UNL     1       3.749   4.776  17.583  0.00  0.00    +0.000 C 
ATOM     18  O   UNL     1       3.264   5.817  18.027  0.00  0.00    +0.000 OA
ATOM     19  H   UNL     1       5.356   3.909  16.627  0.00  0.00    +0.000 HD
BRANCH  17  20
ATOM     20  C   UNL     1       2.849   3.581  17.227  0.00  0.00    +0.000 C 
ATOM     21  C   UNL     1       3.370   2.229  17.730  0.00  0.00    +0.000 C 
ATOM     22  C   UNL     1       3.345   2.126  19.255  0.00  0.00    +0.000 C 
ATOM     23  C   UNL     1       1.967   2.429  19.837  0.00  0.00    +0.000 C 
ATOM     24  C   UNL     1       1.367   3.726  19.306  0.00  0.00    +0.000 C 
ATOM     25  C   UNL     1       1.428   3.815  17.777  0.00  0.00    +0.000 C 
ENDBRANCH  17  20
ENDBRANCH   7  16
TORSDOF 3
ENDMDL
MODEL 2
REMARK VINA RESULT:      -7.7      5.949      7.573
REMARK  Name = 
REMARK  3 active torsions:
REMARK  status: ('A' for Active; 'I' for Inactive)
REMARK    1  A    between atoms: C_2  and  C_19
REMARK    2  A    between atoms: C_7  and  N_8
REMARK    3  A    between atoms: C_9  and  C_11
REMARK                            x       y       z     vdW  Elec       q    Type
REMARK                         _______ _______ _______ _____ _____    ______ ____
ROOT
ATOM      1  O   UNL     1       0.754  10.099  22.562  0.00  0.00    +0.000 OA
ATOM      2  C   UNL     1       0.160  10.722  21.689  0.00  0.00    +0.000 C 
ATOM      3  N   UNL     1       0.271  10.498  20.331  0.00  0.00    +0.000 N 
ATOM      4  C   UNL     1       0.981   9.427  19.768  0.00  0.00    +0.000 A 
ATOM      5  C   UNL     1       1.271   9.479  18.413  0.00  0.00    +0.000 A 
ATOM      6  C   UNL     1       2.002   8.436  17.837  0.00  0.00    +0.000 A 
ATOM      7  C   UNL     1       2.434   7.360  18.607  0.00  0.00    +0.000 A 
ATOM      8  C   UNL     1       2.048   7.370  19.940  0.00  0.00    +0.000 A 
ATOM      9  N   UNL     1       1.348   8.374  20.525  0.00  0.00    +0.000 NA
ATOM     10  H   UNL     1      -0.131  11.192  19.715  0.00  0.00    +0.000 HD
ENDROOT
BRANCH   2  11
ATOM     11  C   UNL     1      -0.709  11.832  22.043  0.00  0.00    +0.000 A 
ATOM     12  C   UNL     1      -1.744  12.395  21.319  0.00  0.00    +0.000 A 
ATOM     13  C   UNL     1      -2.222  13.493  22.064  0.00  0.00    +0.000 A 
ATOM     14  C   UNL     1      -1.464  13.531  23.210  0.00  0.00    +0.000 A 
ATOM     15  O   UNL     1      -0.554  12.516  23.223  0.00  0.00    +0.000 OA
ENDBRANCH   2  11
BRANCH   7  16
ATOM     16  N   UNL     1       3.212   6.293  18.089  0.00  0.00    +0.000 N 
ATOM     17  C   UNL     1       2.684   5.061  17.747  0.00  0.00    +0.000 C 
ATOM     18  O   UNL     1       1.476   4.832  17.700  0.00  0.00    +0.000 OA
ATOM     19  H   UNL     1       4.152   6.509  17.775  0.00  0.00    +0.000 HD
BRANCH  17  20
ATOM     20  C   UNL     1       3.703   3.989  17.326  0.00  0.00    +0.000 C 
ATOM     21  C   UNL     1       5.036   4.056  18.082  0.00  0.00    +0.000 C 
ATOM     22  C   UNL     1       4.885   3.702  19.561  0.00  0.00    +0.000 C 
ATOM     23  C   UNL     1       4.208   2.351  19.771  0.00  0.00    +0.000 C 
ATOM     24  C   UNL     1       2.916   2.202  18.976  0.00  0.00    +0.000 C 
ATOM     25  C   UNL     1       3.088   2.586  17.502  0.00  0.00    +0.000 C 
ENDBRANCH  17  20
ENDBRANCH   7  16
TORSDOF 3
ENDMDL
MODEL 3
REMARK VINA RESULT:      -7.7      6.176      8.011
REMARK  Name = 
REMARK  3 active torsions:
REMARK  status: ('A' for Active; 'I' for Inactive)
REMARK    1  A    between atoms: C_2  and  C_19
REMARK    2  A    between atoms: C_7  and  N_8
REMARK    3  A    between atoms: C_9  and  C_11
REMARK                            x       y       z     vdW  Elec       q    Type
REMARK                         _______ _______ _______ _____ _____    ______ ____
ROOT
ATOM      1  O   UNL     1       0.351   9.919  23.224  0.00  0.00    +0.000 OA
ATOM      2  C   UNL     1      -0.240  10.580  22.376  0.00  0.00    +0.000 C 
ATOM      3  N   UNL     1      -0.067  10.468  21.011  0.00  0.00    +0.000 N 
ATOM      4  C   UNL     1       0.717   9.478  20.398  0.00  0.00    +0.000 A 
ATOM      5  C   UNL     1       1.054   9.650  19.064  0.00  0.00    +0.000 A 
ATOM      6  C   UNL     1       1.857   8.691  18.442  0.00  0.00    +0.000 A 
ATOM      7  C   UNL     1       2.313   7.579  19.144  0.00  0.00    +0.000 A 
ATOM      8  C   UNL     1       1.877   7.467  20.457  0.00  0.00    +0.000 A 
ATOM      9  N   UNL     1       1.106   8.389  21.087  0.00  0.00    +0.000 NA
ATOM     10  H   UNL     1      -0.480  11.189  20.434  0.00  0.00    +0.000 HD
ENDROOT
BRANCH   2  11
ATOM     11  C   UNL     1      -1.176  11.617  22.778  0.00  0.00    +0.000 A 
ATOM     12  C   UNL     1      -1.029  12.991  22.728  0.00  0.00    +0.000 A 
ATOM     13  C   UNL     1      -2.187  13.553  23.305  0.00  0.00    +0.000 A 
ATOM     14  C   UNL     1      -2.985  12.492  23.662  0.00  0.00    +0.000 A 
ATOM     15  O   UNL     1      -2.395  11.309  23.329  0.00  0.00    +0.000 OA
ENDBRANCH   2  11
BRANCH   7  16
ATOM     16  N   UNL     1       3.163   6.593  18.579  0.00  0.00    +0.000 N 
ATOM     17  C   UNL     1       2.695   5.432  17.990  0.00  0.00    +0.000 C 
ATOM     18  O   UNL     1       1.506   5.226  17.751  0.00  0.00    +0.000 OA
ATOM     19  H   UNL     1       4.133   6.844  18.427  0.00  0.00    +0.000 HD
BRANCH  17  20
ATOM     20  C   UNL     1       3.770   4.425  17.551  0.00  0.00    +0.000 C 
ATOM     21  C   UNL     1       4.714   3.981  18.675  0.00  0.00    +0.000 C 
ATOM     22  C   UNL     1       4.001   3.149  19.740  0.00  0.00    +0.000 C 
ATOM     23  C   UNL     1       3.261   1.953  19.147  0.00  0.00    +0.000 C 
ATOM     24  C   UNL     1       2.368   2.328  17.970  0.00  0.00    +0.000 C 
ATOM     25  C   UNL     1       3.100   3.183  16.930  0.00  0.00    +0.000 C 
ENDBRANCH  17  20
ENDBRANCH   7  16
TORSDOF 3
ENDMDL
MODEL 4
REMARK VINA RESULT:      -7.3      6.276      8.272
REMARK  Name = 
REMARK  3 active torsions:
REMARK  status: ('A' for Active; 'I' for Inactive)
REMARK    1  A    between atoms: C_2  and  C_19
REMARK    2  A    between atoms: C_7  and  N_8
REMARK    3  A    between atoms: C_9  and  C_11
REMARK                            x       y       z     vdW  Elec       q    Type
REMARK                         _______ _______ _______ _____ _____    ______ ____
ROOT
ATOM      1  O   UNL     1       0.525  10.104  22.978  0.00  0.00    +0.000 OA
ATOM      2  C   UNL     1      -0.082  10.859  22.225  0.00  0.00    +0.000 C 
ATOM      3  N   UNL     1       0.025  10.871  20.849  0.00  0.00    +0.000 N 
ATOM      4  C   UNL     1       0.747   9.923  20.109  0.00  0.00    +0.000 A 
ATOM      5  C   UNL     1       1.030  10.210  18.782  0.00  0.00    +0.000 A 
ATOM      6  C   UNL     1       1.772   9.292  18.036  0.00  0.00    +0.000 A 
ATOM      7  C   UNL     1       2.223   8.106  18.609  0.00  0.00    +0.000 A 
ATOM      8  C   UNL     1       1.844   7.883  19.925  0.00  0.00    +0.000 A 
ATOM      9  N   UNL     1       1.132   8.762  20.674  0.00  0.00    +0.000 NA
ATOM     10  H   UNL     1      -0.390  11.655  20.361  0.00  0.00    +0.000 HD
ENDROOT
BRANCH   2  11
ATOM     11  C   UNL     1      -0.965  11.879  22.766  0.00  0.00    +0.000 A 
ATOM     12  C   UNL     1      -2.345  11.876  22.865  0.00  0.00    +0.000 A 
ATOM     13  C   UNL     1      -2.726  13.128  23.390  0.00  0.00    +0.000 A 
ATOM     14  C   UNL     1      -1.557  13.822  23.600  0.00  0.00    +0.000 A 
ATOM     15  O   UNL     1      -0.477  13.069  23.246  0.00  0.00    +0.000 OA
ENDBRANCH   2  11
BRANCH   7  16
ATOM     16  N   UNL     1       3.014   7.155  17.914  0.00  0.00    +0.000 N 
ATOM     17  C   UNL     1       3.677   6.114  18.539  0.00  0.00    +0.000 C 
ATOM     18  O   UNL     1       3.509   5.817  19.721  0.00  0.00    +0.000 OA
ATOM     19  H   UNL     1       2.928   7.123  16.905  0.00  0.00    +0.000 HD
BRANCH  17  20
ATOM     20  C   UNL     1       4.589   5.265  17.638  0.00  0.00    +0.000 C 
ATOM     21  C   UNL     1       5.328   6.063  16.558  0.00  0.00    +0.000 C 
ATOM     22  C   UNL     1       6.365   7.019  17.146  0.00  0.00    +0.000 C 
ATOM     23  C   UNL     1       7.353   6.311  18.069  0.00  0.00    +0.000 C 
ATOM     24  C   UNL     1       6.669   5.437  19.115  0.00  0.00    +0.000 C 
ATOM     25  C   UNL     1       5.617   4.507  18.502  0.00  0.00    +0.000 C 
ENDBRANCH  17  20
ENDBRANCH   7  16
TORSDOF 3
ENDMDL
MODEL 5
REMARK VINA RESULT:      -7.3      5.940      7.911
REMARK  Name = 
REMARK  3 active torsions:
REMARK  status: ('A' for Active; 'I' for Inactive)
REMARK    1  A    between atoms: C_2  and  C_19
REMARK    2  A    between atoms: C_7  and  N_8
REMARK    3  A    between atoms: C_9  and  C_11
REMARK                            x       y       z     vdW  Elec       q    Type
REMARK                         _______ _______ _______ _____ _____    ______ ____
ROOT
ATOM      1  O   UNL     1       0.850   9.832  22.835  0.00  0.00    +0.000 OA
ATOM      2  C   UNL     1       0.233  10.527  22.035  0.00  0.00    +0.000 C 
ATOM      3  N   UNL     1       0.281  10.401  20.661  0.00  0.00    +0.000 N 
ATOM      4  C   UNL     1       0.944   9.361  19.992  0.00  0.00    +0.000 A 
ATOM      5  C   UNL     1       1.176   9.506  18.633  0.00  0.00    +0.000 A 
ATOM      6  C   UNL     1       1.860   8.495  17.952  0.00  0.00    +0.000 A 
ATOM      7  C   UNL     1       2.301   7.358  18.623  0.00  0.00    +0.000 A 
ATOM      8  C   UNL     1       1.973   7.278  19.969  0.00  0.00    +0.000 A 
ATOM      9  N   UNL     1       1.320   8.250  20.654  0.00  0.00    +0.000 NA
ATOM     10  H   UNL     1      -0.132  11.145  20.115  0.00  0.00    +0.000 HD
ENDROOT
BRANCH   2  11
ATOM     11  C   UNL     1      -0.597  11.624  22.507  0.00  0.00    +0.000 A 
ATOM     12  C   UNL     1      -1.864  11.584  23.060  0.00  0.00    +0.000 A 
ATOM     13  C   UNL     1      -2.263  12.919  23.278  0.00  0.00    +0.000 A 
ATOM     14  C   UNL     1      -1.211  13.701  22.862  0.00  0.00    +0.000 A 
ATOM     15  O   UNL     1      -0.183  12.929  22.410  0.00  0.00    +0.000 OA
ENDBRANCH   2  11
BRANCH   7  16
ATOM     16  N   UNL     1       3.034   6.318  17.996  0.00  0.00    +0.000 N 
ATOM     17  C   UNL     1       4.209   6.528  17.297  0.00  0.00    +0.000 C 
ATOM     18  O   UNL     1       4.814   7.600  17.296  0.00  0.00    +0.000 OA
ATOM     19  H   UNL     1       2.792   5.363  18.237  0.00  0.00    +0.000 HD
BRANCH  17  20
ATOM     20  C   UNL     1       4.789   5.300  16.577  0.00  0.00    +0.000 C 
ATOM     21  C   UNL     1       6.108   5.566  15.841  0.00  0.00    +0.000 C 
ATOM     22  C   UNL     1       7.259   5.870  16.799  0.00  0.00    +0.000 C 
ATOM     23  C   UNL     1       7.437   4.787  17.859  0.00  0.00    +0.000 C 
ATOM     24  C   UNL     1       6.135   4.426  18.567  0.00  0.00    +0.000 C 
ATOM     25  C   UNL     1       4.992   4.151  17.584  0.00  0.00    +0.000 C 
ENDBRANCH  17  20
ENDBRANCH   7  16
TORSDOF 3
ENDMDL
MODEL 6
REMARK VINA RESULT:      -7.3      5.330      7.640
REMARK  Name = 
REMARK  3 active torsions:
REMARK  status: ('A' for Active; 'I' for Inactive)
REMARK    1  A    between atoms: C_2  and  C_19
REMARK    2  A    between atoms: C_7  and  N_8
REMARK    3  A    between atoms: C_9  and  C_11
REMARK                            x       y       z     vdW  Elec       q    Type
REMARK                         _______ _______ _______ _____ _____    ______ ____
ROOT
ATOM      1  O   UNL     1       0.872   9.003  22.502  0.00  0.00    +0.000 OA
ATOM      2  C   UNL     1       0.470   9.751  21.617  0.00  0.00    +0.000 C 
ATOM      3  N   UNL     1       0.784   9.645  20.277  0.00  0.00    +0.000 N 
ATOM      4  C   UNL     1       1.502   8.575  19.721  0.00  0.00    +0.000 A 
ATOM      5  C   UNL     1       2.010   8.728  18.440  0.00  0.00    +0.000 A 
ATOM      6  C   UNL     1       2.752   7.686  17.879  0.00  0.00    +0.000 A 
ATOM      7  C   UNL     1       2.981   6.511  18.589  0.00  0.00    +0.000 A 
ATOM      8  C   UNL     1       2.386   6.430  19.841  0.00  0.00    +0.000 A 
ATOM      9  N   UNL     1       1.670   7.431  20.411  0.00  0.00    +0.000 NA
ATOM     10  H   UNL     1       0.534  10.424  19.682  0.00  0.00    +0.000 HD
ENDROOT
BRANCH   2  11
ATOM     11  C   UNL     1      -0.368  10.892  21.947  0.00  0.00    +0.000 A 
ATOM     12  C   UNL     1      -1.135  11.113  23.077  0.00  0.00    +0.000 A 
ATOM     13  C   UNL     1      -1.820  12.330  22.881  0.00  0.00    +0.000 A 
ATOM     14  C   UNL     1      -1.422  12.794  21.649  0.00  0.00    +0.000 A 
ATOM     15  O   UNL     1      -0.524  11.943  21.078  0.00  0.00    +0.000 OA
ENDBRANCH   2  11
BRANCH   7  16
ATOM     16  N   UNL     1       3.760   5.436  18.089  0.00  0.00    +0.000 N 
ATOM     17  C   UNL     1       5.091   5.246  18.410  0.00  0.00    +0.000 C 
ATOM     18  O   UNL     1       5.675   5.886  19.284  0.00  0.00    +0.000 OA
ATOM     19  H   UNL     1       3.267   4.672  17.639  0.00  0.00    +0.000 HD
BRANCH  17  20
ATOM     20  C   UNL     1       5.802   4.101  17.669  0.00  0.00    +0.000 C 
ATOM     21  C   UNL     1       5.094   3.644  16.389  0.00  0.00    +0.000 C 
ATOM     22  C   UNL     1       5.117   4.713  15.296  0.00  0.00    +0.000 C 
ATOM     23  C   UNL     1       6.530   5.203  14.990  0.00  0.00    +0.000 C 
ATOM     24  C   UNL     1       7.308   5.595  16.241  0.00  0.00    +0.000 C 
ATOM     25  C   UNL     1       7.248   4.517  17.330  0.00  0.00    +0.000 C 
ENDBRANCH  17  20
ENDBRANCH   7  16
TORSDOF 3
ENDMDL
MODEL 7
REMARK VINA RESULT:      -7.3      6.340      8.472
REMARK  Name = 
REMARK  3 active torsions:
REMARK  status: ('A' for Active; 'I' for Inactive)
REMARK    1  A    between atoms: C_2  and  C_19
REMARK    2  A    between atoms: C_7  and  N_8
REMARK    3  A    between atoms: C_9  and  C_11
REMARK                            x       y       z     vdW  Elec       q    Type
REMARK                         _______ _______ _______ _____ _____    ______ ____
ROOT
ATOM      1  O   UNL     1       0.098   9.994  23.469  0.00  0.00    +0.000 OA
ATOM      2  C   UNL     1      -0.414  10.664  22.578  0.00  0.00    +0.000 C 
ATOM      3  N   UNL     1      -0.175  10.512  21.227  0.00  0.00    +0.000 N 
ATOM      4  C   UNL     1       0.587   9.471  20.677  0.00  0.00    +0.000 A 
ATOM      5  C   UNL     1       1.002   9.594  19.359  0.00  0.00    +0.000 A 
ATOM      6  C   UNL     1       1.786   8.582  18.800  0.00  0.00    +0.000 A 
ATOM      7  C   UNL     1       2.147   7.465  19.549  0.00  0.00    +0.000 A 
ATOM      8  C   UNL     1       1.639   7.405  20.839  0.00  0.00    +0.000 A 
ATOM      9  N   UNL     1       0.884   8.379  21.407  0.00  0.00    +0.000 NA
ATOM     10  H   UNL     1      -0.520  11.239  20.613  0.00  0.00    +0.000 HD
ENDROOT
BRANCH   2  11
ATOM     11  C   UNL     1      -1.315  11.755  22.908  0.00  0.00    +0.000 A 
ATOM     12  C   UNL     1      -1.098  13.119  22.832  0.00  0.00    +0.000 A 
ATOM     13  C   UNL     1      -2.253  13.751  23.338  0.00  0.00    +0.000 A 
ATOM     14  C   UNL     1      -3.119  12.740  23.680  0.00  0.00    +0.000 A 
ATOM     15  O   UNL     1      -2.573  11.522  23.406  0.00  0.00    +0.000 OA
ENDBRANCH   2  11
BRANCH   7  16
ATOM     16  N   UNL     1       2.974   6.425  19.050  0.00  0.00    +0.000 N 
ATOM     17  C   UNL     1       3.749   6.549  17.911  0.00  0.00    +0.000 C 
ATOM     18  O   UNL     1       3.925   7.616  17.324  0.00  0.00    +0.000 OA
ATOM     19  H   UNL     1       3.152   5.636  19.660  0.00  0.00    +0.000 HD
BRANCH  17  20
ATOM     20  C   UNL     1       4.476   5.273  17.454  0.00  0.00    +0.000 C 
ATOM     21  C   UNL     1       5.554   5.510  16.390  0.00  0.00    +0.000 C 
ATOM     22  C   UNL     1       6.743   6.304  16.931  0.00  0.00    +0.000 C 
ATOM     23  C   UNL     1       7.344   5.672  18.183  0.00  0.00    +0.000 C 
ATOM     24  C   UNL     1       6.300   5.342  19.244  0.00  0.00    +0.000 C 
ATOM     25  C   UNL     1       5.108   4.568  18.670  0.00  0.00    +0.000 C 
ENDBRANCH  17  20
ENDBRANCH   7  16
TORSDOF 3
ENDMDL
MODEL 8
REMARK VINA RESULT:      -7.1      6.121      7.180
REMARK  Name = 
REMARK  3 active torsions:
REMARK  status: ('A' for Active; 'I' for Inactive)
REMARK    1  A    between atoms: C_2  and  C_19
REMARK    2  A    between atoms: C_7  and  N_8
REMARK    3  A    between atoms: C_9  and  C_11
REMARK                            x       y       z     vdW  Elec       q    Type
REMARK                         _______ _______ _______ _____ _____    ______ ____
ROOT
ATOM      1  O   UNL     1       1.013  11.832  21.354  0.00  0.00    +0.000 OA
ATOM      2  C   UNL     1       0.700  12.085  20.195  0.00  0.00    +0.000 C 
ATOM      3  N   UNL     1       0.876  11.241  19.117  0.00  0.00    +0.000 N 
ATOM      4  C   UNL     1       1.315   9.912  19.224  0.00  0.00    +0.000 A 
ATOM      5  C   UNL     1       1.737   9.272  18.068  0.00  0.00    +0.000 A 
ATOM      6  C   UNL     1       2.204   7.958  18.157  0.00  0.00    +0.000 A 
ATOM      7  C   UNL     1       2.247   7.298  19.382  0.00  0.00    +0.000 A 
ATOM      8  C   UNL     1       1.753   8.002  20.471  0.00  0.00    +0.000 A 
ATOM      9  N   UNL     1       1.303   9.281  20.413  0.00  0.00    +0.000 NA
ATOM     10  H   UNL     1       0.741  11.636  18.195  0.00  0.00    +0.000 HD
ENDROOT
BRANCH   2  11
ATOM     11  C   UNL     1       0.140  13.383  19.854  0.00  0.00    +0.000 A 
ATOM     12  C   UNL     1       0.488  14.240  18.827  0.00  0.00    +0.000 A 
ATOM     13  C   UNL     1      -0.298  15.402  18.972  0.00  0.00    +0.000 A 
ATOM     14  C   UNL     1      -1.095  15.184  20.071  0.00  0.00    +0.000 A 
ATOM     15  O   UNL     1      -0.857  13.953  20.606  0.00  0.00    +0.000 OA
ENDBRANCH   2  11
BRANCH   7  16
ATOM     16  N   UNL     1       2.749   5.980  19.541  0.00  0.00    +0.000 N 
ATOM     17  C   UNL     1       2.035   4.963  20.148  0.00  0.00    +0.000 C 
ATOM     18  O   UNL     1       0.847   5.057  20.453  0.00  0.00    +0.000 OA
ATOM     19  H   UNL     1       3.578   5.729  19.015  0.00  0.00    +0.000 HD
BRANCH  17  20
ATOM     20  C   UNL     1       2.793   3.639  20.345  0.00  0.00    +0.000 C 
ATOM     21  C   UNL     1       1.914   2.388  20.233  0.00  0.00    +0.000 C 
ATOM     22  C   UNL     1       1.385   2.173  18.815  0.00  0.00    +0.000 C 
ATOM     23  C   UNL     1       2.500   2.149  17.774  0.00  0.00    +0.000 C 
ATOM     24  C   UNL     1       3.453   3.334  17.894  0.00  0.00    +0.000 C 
ATOM     25  C   UNL     1       3.949   3.542  19.329  0.00  0.00    +0.000 C 
ENDBRANCH  17  20
ENDBRANCH   7  16
TORSDOF 3
ENDMDL
MODEL 9
REMARK VINA RESULT:      -7.0      6.600      8.636
REMARK  Name = 
REMARK  3 active torsions:
REMARK  status: ('A' for Active; 'I' for Inactive)
REMARK    1  A    between atoms: C_2  and  C_19
REMARK    2  A    between atoms: C_7  and  N_8
REMARK    3  A    between atoms: C_9  and  C_11
REMARK                            x       y       z     vdW  Elec       q    Type
REMARK                         _______ _______ _______ _____ _____    ______ ____
ROOT
ATOM      1  O   UNL     1      -0.591  10.543  23.366  0.00  0.00    +0.000 OA
ATOM      2  C   UNL     1      -1.047  11.045  22.344  0.00  0.00    +0.000 C 
ATOM      3  N   UNL     1      -0.659  10.731  21.057  0.00  0.00    +0.000 N 
ATOM      4  C   UNL     1       0.220   9.687  20.735  0.00  0.00    +0.000 A 
ATOM      5  C   UNL     1       0.763   9.662  19.459  0.00  0.00    +0.000 A 
ATOM      6  C   UNL     1       1.663   8.647  19.127  0.00  0.00    +0.000 A 
ATOM      7  C   UNL     1       2.013   7.672  20.057  0.00  0.00    +0.000 A 
ATOM      8  C   UNL     1       1.376   7.748  21.288  0.00  0.00    +0.000 A 
ATOM      9  N   UNL     1       0.507   8.729  21.638  0.00  0.00    +0.000 NA
ATOM     10  H   UNL     1      -0.982  11.340  20.316  0.00  0.00    +0.000 HD
ENDROOT
BRANCH   2  11
ATOM     11  C   UNL     1      -2.044  12.100  22.428  0.00  0.00    +0.000 A 
ATOM     12  C   UNL     1      -3.063  12.265  23.349  0.00  0.00    +0.000 A 
ATOM     13  C   UNL     1      -3.801  13.399  22.951  0.00  0.00    +0.000 A 
ATOM     14  C   UNL     1      -3.184  13.874  21.819  0.00  0.00    +0.000 A 
ATOM     15  O   UNL     1      -2.102  13.109  21.499  0.00  0.00    +0.000 OA
ENDBRANCH   2  11
BRANCH   7  16
ATOM     16  N   UNL     1       2.950   6.641  19.792  0.00  0.00    +0.000 N 
ATOM     17  C   UNL     1       2.611   5.302  19.727  0.00  0.00    +0.000 C 
ATOM     18  O   UNL     1       1.449   4.897  19.725  0.00  0.00    +0.000 OA
ATOM     19  H   UNL     1       3.862   6.916  19.444  0.00  0.00    +0.000 HD
BRANCH  17  20
ATOM     20  C   UNL     1       3.783   4.321  19.560  0.00  0.00    +0.000 C 
ATOM     21  C   UNL     1       3.486   3.136  18.633  0.00  0.00    +0.000 C 
ATOM     22  C   UNL     1       3.299   3.566  17.179  0.00  0.00    +0.000 C 
ATOM     23  C   UNL     1       4.478   4.381  16.656  0.00  0.00    +0.000 C 
ATOM     24  C   UNL     1       4.868   5.527  17.583  0.00  0.00    +0.000 C 
ATOM     25  C   UNL     1       5.024   5.074  19.039  0.00  0.00    +0.000 C 
ENDBRANCH  17  20
ENDBRANCH   7  16
TORSDOF 3
ENDMDL
