MODEL 1
REMARK VINA RESULT:      -8.2      0.000      0.000
REMARK  Name = 
REMARK  6 active torsions:
REMARK  status: ('A' for Active; 'I' for Inactive)
REMARK    1  A    between atoms: C_1  and  C_2
REMARK    2  A    between atoms: C_2  and  C_5
REMARK    3  A    between atoms: N_12  and  C_13
REMARK    4  A    between atoms: C_13  and  C_14
REMARK    5  A    between atoms: C_14  and  O_15
REMARK    6  A    between atoms: N_20  and  C_21
REMARK                            x       y       z     vdW  Elec       q    Type
REMARK                         _______ _______ _______ _____ _____    ______ ____
ROOT
ATOM      1  C   UNL     1       5.601   4.562  15.462  0.00  0.00    +0.000 A 
ATOM      2  C   UNL     1       5.247   3.344  16.093  0.00  0.00    +0.000 A 
ATOM      3  C   UNL     1       4.346   3.692  17.069  0.00  0.00    +0.000 A 
ATOM      4  N   UNL     1       4.200   5.063  17.011  0.00  0.00    +0.000 N 
ATOM      5  C   UNL     1       3.437   5.877  17.912  0.00  0.00    +0.000 A 
ATOM      6  N   UNL     1       2.939   5.280  19.001  0.00  0.00    +0.000 NA
ATOM      7  C   UNL     1       2.212   6.056  19.784  0.00  0.00    +0.000 A 
ATOM      8  N   UNL     1       1.724   5.583  20.994  0.00  0.00    +0.000 N 
ATOM      9  N   UNL     1       1.895   7.301  19.488  0.00  0.00    +0.000 NA
ATOM     10  C   UNL     1       2.476   7.839  18.421  0.00  0.00    +0.000 A 
ATOM     11  N   UNL     1       2.262   9.186  18.135  0.00  0.00    +0.000 N 
ATOM     12  N   UNL     1       3.282   7.172  17.614  0.00  0.00    +0.000 NA
ATOM     13  N   UNL     1       4.902   5.593  15.972  0.00  0.00    +0.000 NA
ATOM     14  H   UNL     1       0.722   5.446  20.876  0.00  0.00    +0.000 HD
ATOM     15  H   UNL     1       2.887   9.529  17.422  0.00  0.00    +0.000 HD
ENDROOT
BRANCH  11  16
ATOM     16  C   UNL     1       1.160   9.984  18.474  0.00  0.00    +0.000 A 
ATOM     17  C   UNL     1       1.292  10.983  19.442  0.00  0.00    +0.000 A 
ATOM     18  C   UNL     1       0.174  11.714  19.846  0.00  0.00    +0.000 A 
ATOM     19  F   UNL     1       0.316  12.653  20.794  0.00  0.00    +0.000 F 
ATOM     20  C   UNL     1      -1.082  11.481  19.307  0.00  0.00    +0.000 A 
ATOM     21  C   UNL     1      -1.219  10.492  18.342  0.00  0.00    +0.000 A 
ATOM     22 CL   UNL     1      -2.760  10.176  17.643  0.00  0.00    +0.000 Cl
ATOM     23  C   UNL     1      -0.115   9.746  17.937  0.00  0.00    +0.000 A 
ENDBRANCH  11  16
BRANCH   1  25
ATOM     24  C   UNL     1       6.499   3.836  13.195  0.00  0.00    +0.000 C 
ATOM     25  C   UNL     1       6.649   4.750  14.396  0.00  0.00    +0.000 C 
ATOM     26  F   UNL     1       7.898   4.560  14.916  0.00  0.00    +0.000 F 
ATOM     27  F   UNL     1       6.635   6.042  13.953  0.00  0.00    +0.000 F 
ENDBRANCH   1  25
BRANCH   8  28
ATOM     28  C   UNL     1       2.433   4.410  21.534  0.00  0.00    +0.000 C 
BRANCH  28  29
ATOM     29  C   UNL     1       1.770   3.102  21.076  0.00  0.00    +0.000 C 
ATOM     30  F   UNL     1       1.634   2.260  22.126  0.00  0.00    +0.000 F 
ATOM     31  F   UNL     1       0.539   3.337  20.572  0.00  0.00    +0.000 F 
BRANCH  29  32
ATOM     32  O   UNL     1       2.523   2.424  20.095  0.00  0.00    +0.000 OA
ATOM     33  H   UNL     1       2.163   2.765  19.259  0.00  0.00    +0.000 HD
ENDBRANCH  29  32
ENDBRANCH  28  29
ENDBRANCH   8  28
TORSDOF 5
ENDMDL
MODEL 2
REMARK VINA RESULT:      -8.1      1.431      1.704
REMARK  Name = 
REMARK  6 active torsions:
REMARK  status: ('A' for Active; 'I' for Inactive)
REMARK    1  A    between atoms: C_1  and  C_2
REMARK    2  A    between atoms: C_2  and  C_5
REMARK    3  A    between atoms: N_12  and  C_13
REMARK    4  A    between atoms: C_13  and  C_14
REMARK    5  A    between atoms: C_14  and  O_15
REMARK    6  A    between atoms: N_20  and  C_21
REMARK                            x       y       z     vdW  Elec       q    Type
REMARK                         _______ _______ _______ _____ _____    ______ ____
ROOT
ATOM      1  C   UNL     1       5.606   4.572  15.426  0.00  0.00    +0.000 A 
ATOM      2  C   UNL     1       5.221   3.356  16.042  0.00  0.00    +0.000 A 
ATOM      3  C   UNL     1       4.317   3.713  17.011  0.00  0.00    +0.000 A 
ATOM      4  N   UNL     1       4.198   5.087  16.965  0.00  0.00    +0.000 N 
ATOM      5  C   UNL     1       3.443   5.908  17.865  0.00  0.00    +0.000 A 
ATOM      6  N   UNL     1       2.921   5.312  18.944  0.00  0.00    +0.000 NA
ATOM      7  C   UNL     1       2.202   6.095  19.726  0.00  0.00    +0.000 A 
ATOM      8  N   UNL     1       1.691   5.620  20.926  0.00  0.00    +0.000 N 
ATOM      9  N   UNL     1       1.912   7.348  19.438  0.00  0.00    +0.000 NA
ATOM     10  C   UNL     1       2.516   7.884  18.382  0.00  0.00    +0.000 A 
ATOM     11  N   UNL     1       2.331   9.238  18.107  0.00  0.00    +0.000 N 
ATOM     12  N   UNL     1       3.317   7.208  17.578  0.00  0.00    +0.000 NA
ATOM     13  N   UNL     1       4.922   5.612  15.938  0.00  0.00    +0.000 NA
ATOM     14  H   UNL     1       0.688   5.504  20.797  0.00  0.00    +0.000 HD
ATOM     15  H   UNL     1       2.971   9.574  17.404  0.00  0.00    +0.000 HD
ENDROOT
BRANCH  11  16
ATOM     16  C   UNL     1       1.242  10.055  18.442  0.00  0.00    +0.000 A 
ATOM     17  C   UNL     1      -0.043   9.717  18.008  0.00  0.00    +0.000 A 
ATOM     18  C   UNL     1      -1.112  10.578  18.261  0.00  0.00    +0.000 A 
ATOM     19  F   UNL     1      -2.334  10.249  17.815  0.00  0.00    +0.000 F 
ATOM     20  C   UNL     1      -0.939  11.773  18.942  0.00  0.00    +0.000 A 
ATOM     21  C   UNL     1       0.334  12.112  19.379  0.00  0.00    +0.000 A 
ATOM     22 CL   UNL     1       0.590  13.583  20.234  0.00  0.00    +0.000 Cl
ATOM     23  C   UNL     1       1.413  11.269  19.125  0.00  0.00    +0.000 A 
ENDBRANCH  11  16
BRANCH   1  25
ATOM     24  C   UNL     1       6.525   3.834  13.171  0.00  0.00    +0.000 C 
ATOM     25  C   UNL     1       6.668   4.749  14.372  0.00  0.00    +0.000 C 
ATOM     26  F   UNL     1       7.909   4.549  14.909  0.00  0.00    +0.000 F 
ATOM     27  F   UNL     1       6.671   6.040  13.927  0.00  0.00    +0.000 F 
ENDBRANCH   1  25
BRANCH   8  28
ATOM     28  C   UNL     1       2.371   4.429  21.463  0.00  0.00    +0.000 C 
BRANCH  28  29
ATOM     29  C   UNL     1       1.605   3.146  21.105  0.00  0.00    +0.000 C 
ATOM     30  F   UNL     1       2.414   2.298  20.428  0.00  0.00    +0.000 F 
ATOM     31  F   UNL     1       1.180   2.512  22.219  0.00  0.00    +0.000 F 
BRANCH  29  32
ATOM     32  O   UNL     1       0.483   3.391  20.285  0.00  0.00    +0.000 OA
ATOM     33  H   UNL     1       0.877   3.568  19.414  0.00  0.00    +0.000 HD
ENDBRANCH  29  32
ENDBRANCH  28  29
ENDBRANCH   8  28
TORSDOF 5
ENDMDL
MODEL 3
REMARK VINA RESULT:      -7.7      2.768      7.489
REMARK  Name = 
REMARK  6 active torsions:
REMARK  status: ('A' for Active; 'I' for Inactive)
REMARK    1  A    between atoms: C_1  and  C_2
REMARK    2  A    between atoms: C_2  and  C_5
REMARK    3  A    between atoms: N_12  and  C_13
REMARK    4  A    between atoms: C_13  and  C_14
REMARK    5  A    between atoms: C_14  and  O_15
REMARK    6  A    between atoms: N_20  and  C_21
REMARK                            x       y       z     vdW  Elec       q    Type
REMARK                         _______ _______ _______ _____ _____    ______ ____
ROOT
ATOM      1  C   UNL     1       0.290  10.286  19.764  0.00  0.00    +0.000 A 
ATOM      2  C   UNL     1       0.222   9.855  21.112  0.00  0.00    +0.000 A 
ATOM      3  C   UNL     1       0.983   8.714  21.165  0.00  0.00    +0.000 A 
ATOM      4  N   UNL     1       1.459   8.488  19.889  0.00  0.00    +0.000 N 
ATOM      5  C   UNL     1       2.213   7.350  19.450  0.00  0.00    +0.000 A 
ATOM      6  N   UNL     1       2.345   6.335  20.313  0.00  0.00    +0.000 NA
ATOM      7  C   UNL     1       3.077   5.324  19.883  0.00  0.00    +0.000 A 
ATOM      8  N   UNL     1       3.206   4.171  20.643  0.00  0.00    +0.000 N 
ATOM      9  N   UNL     1       3.730   5.330  18.738  0.00  0.00    +0.000 NA
ATOM     10  C   UNL     1       3.500   6.346  17.912  0.00  0.00    +0.000 A 
ATOM     11  N   UNL     1       4.077   6.336  16.644  0.00  0.00    +0.000 N 
ATOM     12  N   UNL     1       2.722   7.371  18.214  0.00  0.00    +0.000 NA
ATOM     13  N   UNL     1       1.107   9.495  19.043  0.00  0.00    +0.000 NA
ATOM     14  H   UNL     1       4.151   4.169  21.022  0.00  0.00    +0.000 HD
ATOM     15  H   UNL     1       3.694   7.052  16.045  0.00  0.00    +0.000 HD
ENDROOT
BRANCH  11  16
ATOM     16  C   UNL     1       5.255   5.699  16.227  0.00  0.00    +0.000 A 
ATOM     17  C   UNL     1       6.187   5.266  17.173  0.00  0.00    +0.000 A 
ATOM     18  C   UNL     1       7.401   4.717  16.755  0.00  0.00    +0.000 A 
ATOM     19  F   UNL     1       8.293   4.329  17.678  0.00  0.00    +0.000 F 
ATOM     20  C   UNL     1       7.714   4.583  15.412  0.00  0.00    +0.000 A 
ATOM     21  C   UNL     1       6.791   5.009  14.467  0.00  0.00    +0.000 A 
ATOM     22 CL   UNL     1       7.139   4.852  12.789  0.00  0.00    +0.000 Cl
ATOM     23  C   UNL     1       5.580   5.568  14.867  0.00  0.00    +0.000 A 
ENDBRANCH  11  16
BRANCH   1  25
ATOM     24  C   UNL     1      -1.635  11.022  18.273  0.00  0.00    +0.000 C 
ATOM     25  C   UNL     1      -0.467  11.434  19.148  0.00  0.00    +0.000 C 
ATOM     26  F   UNL     1       0.371  12.208  18.395  0.00  0.00    +0.000 F 
ATOM     27  F   UNL     1      -0.938  12.259  20.128  0.00  0.00    +0.000 F 
ENDBRANCH   1  25
BRANCH   8  28
ATOM     28  C   UNL     1       2.152   3.969  21.652  0.00  0.00    +0.000 C 
BRANCH  28  29
ATOM     29  C   UNL     1       1.246   2.787  21.276  0.00  0.00    +0.000 C 
ATOM     30  F   UNL     1       1.983   1.796  20.724  0.00  0.00    +0.000 F 
ATOM     31  F   UNL     1       0.631   2.285  22.369  0.00  0.00    +0.000 F 
BRANCH  29  32
ATOM     32  O   UNL     1       0.253   3.137  20.338  0.00  0.00    +0.000 OA
ATOM     33  H   UNL     1       0.610   2.802  19.498  0.00  0.00    +0.000 HD
ENDBRANCH  29  32
ENDBRANCH  28  29
ENDBRANCH   8  28
TORSDOF 5
ENDMDL
MODEL 4
REMARK VINA RESULT:      -7.6      4.477      8.747
REMARK  Name = 
REMARK  6 active torsions:
REMARK  status: ('A' for Active; 'I' for Inactive)
REMARK    1  A    between atoms: C_1  and  C_2
REMARK    2  A    between atoms: C_2  and  C_5
REMARK    3  A    between atoms: N_12  and  C_13
REMARK    4  A    between atoms: C_13  and  C_14
REMARK    5  A    between atoms: C_14  and  O_15
REMARK    6  A    between atoms: N_20  and  C_21
REMARK                            x       y       z     vdW  Elec       q    Type
REMARK                         _______ _______ _______ _____ _____    ______ ____
ROOT
ATOM      1  C   UNL     1       2.300  15.173  18.433  0.00  0.00    +0.000 A 
ATOM      2  C   UNL     1       1.004  15.513  18.894  0.00  0.00    +0.000 A 
ATOM      3  C   UNL     1       0.334  14.320  18.998  0.00  0.00    +0.000 A 
ATOM      4  N   UNL     1       1.207  13.331  18.595  0.00  0.00    +0.000 N 
ATOM      5  C   UNL     1       0.905  11.938  18.440  0.00  0.00    +0.000 A 
ATOM      6  N   UNL     1      -0.379  11.576  18.550  0.00  0.00    +0.000 NA
ATOM      7  C   UNL     1      -0.609  10.281  18.438  0.00  0.00    +0.000 A 
ATOM      8  N   UNL     1      -1.908   9.790  18.434  0.00  0.00    +0.000 N 
ATOM      9  N   UNL     1       0.343   9.376  18.333  0.00  0.00    +0.000 NA
ATOM     10  C   UNL     1       1.586   9.818  18.170  0.00  0.00    +0.000 A 
ATOM     11  N   UNL     1       2.610   8.901  17.938  0.00  0.00    +0.000 N 
ATOM     12  N   UNL     1       1.914  11.098  18.188  0.00  0.00    +0.000 NA
ATOM     13  N   UNL     1       2.442  13.839  18.327  0.00  0.00    +0.000 NA
ATOM     14  H   UNL     1      -2.054   9.330  19.330  0.00  0.00    +0.000 HD
ATOM     15  H   UNL     1       3.466   9.351  17.651  0.00  0.00    +0.000 HD
ENDROOT
BRANCH  11  16
ATOM     16  C   UNL     1       2.678   7.555  18.323  0.00  0.00    +0.000 A 
ATOM     17  C   UNL     1       2.228   7.167  19.588  0.00  0.00    +0.000 A 
ATOM     18  C   UNL     1       2.381   5.844  20.007  0.00  0.00    +0.000 A 
ATOM     19  F   UNL     1       1.965   5.496  21.233  0.00  0.00    +0.000 F 
ATOM     20  C   UNL     1       2.972   4.888  19.195  0.00  0.00    +0.000 A 
ATOM     21  C   UNL     1       3.418   5.266  17.937  0.00  0.00    +0.000 A 
ATOM     22 CL   UNL     1       4.151   4.108  16.896  0.00  0.00    +0.000 Cl
ATOM     23  C   UNL     1       3.282   6.584  17.508  0.00  0.00    +0.000 A 
ENDBRANCH  11  16
BRANCH   1  25
ATOM     24  C   UNL     1       2.991  17.167  17.012  0.00  0.00    +0.000 C 
ATOM     25  C   UNL     1       3.395  16.131  18.043  0.00  0.00    +0.000 C 
ATOM     26  F   UNL     1       4.474  15.449  17.554  0.00  0.00    +0.000 F 
ATOM     27  F   UNL     1       3.854  16.787  19.149  0.00  0.00    +0.000 F 
ENDBRANCH   1  25
BRANCH   8  28
ATOM     28  C   UNL     1      -2.944  10.778  18.088  0.00  0.00    +0.000 C 
BRANCH  28  29
ATOM     29  C   UNL     1      -3.213  10.790  16.575  0.00  0.00    +0.000 C 
ATOM     30  F   UNL     1      -3.050   9.547  16.067  0.00  0.00    +0.000 F 
ATOM     31  F   UNL     1      -4.480  11.181  16.315  0.00  0.00    +0.000 F 
BRANCH  29  32
ATOM     32  O   UNL     1      -2.338  11.645  15.873  0.00  0.00    +0.000 OA
ATOM     33  H   UNL     1      -2.124  12.333  16.526  0.00  0.00    +0.000 HD
ENDBRANCH  29  32
ENDBRANCH  28  29
ENDBRANCH   8  28
TORSDOF 5
ENDMDL
MODEL 5
REMARK VINA RESULT:      -7.5      4.692      7.195
REMARK  Name = 
REMARK  6 active torsions:
REMARK  status: ('A' for Active; 'I' for Inactive)
REMARK    1  A    between atoms: C_1  and  C_2
REMARK    2  A    between atoms: C_2  and  C_5
REMARK    3  A    between atoms: N_12  and  C_13
REMARK    4  A    between atoms: C_13  and  C_14
REMARK    5  A    between atoms: C_14  and  O_15
REMARK    6  A    between atoms: N_20  and  C_21
REMARK                            x       y       z     vdW  Elec       q    Type
REMARK                         _______ _______ _______ _____ _____    ______ ____
ROOT
ATOM      1  C   UNL     1       2.520   7.075  19.131  0.00  0.00    +0.000 A 
ATOM      2  C   UNL     1       2.639   7.571  17.810  0.00  0.00    +0.000 A 
ATOM      3  C   UNL     1       1.830   8.680  17.767  0.00  0.00    +0.000 A 
ATOM      4  N   UNL     1       1.255   8.806  19.015  0.00  0.00    +0.000 N 
ATOM      5  C   UNL     1       0.258   9.762  19.400  0.00  0.00    +0.000 A 
ATOM      6  N   UNL     1      -0.281  10.509  18.428  0.00  0.00    +0.000 NA
ATOM      7  C   UNL     1      -1.167  11.401  18.830  0.00  0.00    +0.000 A 
ATOM      8  N   UNL     1      -1.869  12.166  17.910  0.00  0.00    +0.000 N 
ATOM      9  N   UNL     1      -1.442  11.637  20.098  0.00  0.00    +0.000 NA
ATOM     10  C   UNL     1      -0.912  10.815  20.998  0.00  0.00    +0.000 A 
ATOM     11  N   UNL     1      -1.268  10.953  22.338  0.00  0.00    +0.000 N 
ATOM     12  N   UNL     1      -0.075   9.839  20.693  0.00  0.00    +0.000 NA
ATOM     13  N   UNL     1       1.739   7.874  19.881  0.00  0.00    +0.000 NA
ATOM     14  H   UNL     1      -1.492  13.111  17.960  0.00  0.00    +0.000 HD
ATOM     15  H   UNL     1      -0.955  10.174  22.898  0.00  0.00    +0.000 HD
ENDROOT
BRANCH  11  16
ATOM     16  C   UNL     1      -1.707  12.104  23.010  0.00  0.00    +0.000 A 
ATOM     17  C   UNL     1      -2.995  12.149  23.548  0.00  0.00    +0.000 A 
ATOM     18  C   UNL     1      -3.464  13.326  24.134  0.00  0.00    +0.000 A 
ATOM     19  F   UNL     1      -4.712  13.359  24.624  0.00  0.00    +0.000 F 
ATOM     20  C   UNL     1      -2.680  14.467  24.203  0.00  0.00    +0.000 A 
ATOM     21  C   UNL     1      -1.398  14.427  23.673  0.00  0.00    +0.000 A 
ATOM     22 CL   UNL     1      -0.390  15.820  23.745  0.00  0.00    +0.000 Cl
ATOM     23  C   UNL     1      -0.919  13.264  23.076  0.00  0.00    +0.000 A 
ENDBRANCH  11  16
BRANCH   1  25
ATOM     24  C   UNL     1       2.855   4.572  18.822  0.00  0.00    +0.000 C 
ATOM     25  C   UNL     1       3.119   5.801  19.670  0.00  0.00    +0.000 C 
ATOM     26  F   UNL     1       2.653   5.551  20.930  0.00  0.00    +0.000 F 
ATOM     27  F   UNL     1       4.469   5.944  19.806  0.00  0.00    +0.000 F 
ENDBRANCH   1  25
BRANCH   8  28
ATOM     28  C   UNL     1      -1.918  11.609  16.547  0.00  0.00    +0.000 C 
BRANCH  28  29
ATOM     29  C   UNL     1      -3.327  11.100  16.208  0.00  0.00    +0.000 C 
ATOM     30  F   UNL     1      -3.449  10.931  14.871  0.00  0.00    +0.000 F 
ATOM     31  F   UNL     1      -3.565   9.910  16.799  0.00  0.00    +0.000 F 
BRANCH  29  32
ATOM     32  O   UNL     1      -4.341  11.997  16.606  0.00  0.00    +0.000 OA
ATOM     33  H   UNL     1      -4.710  11.579  17.403  0.00  0.00    +0.000 HD
ENDBRANCH  29  32
ENDBRANCH  28  29
ENDBRANCH   8  28
TORSDOF 5
ENDMDL
MODEL 6
REMARK VINA RESULT:      -7.5      4.603      9.094
REMARK  Name = 
REMARK  6 active torsions:
REMARK  status: ('A' for Active; 'I' for Inactive)
REMARK    1  A    between atoms: C_1  and  C_2
REMARK    2  A    between atoms: C_2  and  C_5
REMARK    3  A    between atoms: N_12  and  C_13
REMARK    4  A    between atoms: C_13  and  C_14
REMARK    5  A    between atoms: C_14  and  O_15
REMARK    6  A    between atoms: N_20  and  C_21
REMARK                            x       y       z     vdW  Elec       q    Type
REMARK                         _______ _______ _______ _____ _____    ______ ____
ROOT
ATOM      1  C   UNL     1       1.671  15.589  18.926  0.00  0.00    +0.000 A 
ATOM      2  C   UNL     1       0.317  15.818  19.277  0.00  0.00    +0.000 A 
ATOM      3  C   UNL     1      -0.279  14.582  19.239  0.00  0.00    +0.000 A 
ATOM      4  N   UNL     1       0.694  13.677  18.864  0.00  0.00    +0.000 N 
ATOM      5  C   UNL     1       0.501  12.283  18.594  0.00  0.00    +0.000 A 
ATOM      6  N   UNL     1      -0.760  11.836  18.553  0.00  0.00    +0.000 NA
ATOM      7  C   UNL     1      -0.891  10.541  18.339  0.00  0.00    +0.000 A 
ATOM      8  N   UNL     1      -2.147   9.974  18.175  0.00  0.00    +0.000 N 
ATOM      9  N   UNL     1       0.126   9.705  18.273  0.00  0.00    +0.000 NA
ATOM     10  C   UNL     1       1.346  10.231  18.263  0.00  0.00    +0.000 A 
ATOM     11  N   UNL     1       2.446   9.396  18.077  0.00  0.00    +0.000 N 
ATOM     12  N   UNL     1       1.585  11.525  18.392  0.00  0.00    +0.000 NA
ATOM     13  N   UNL     1       1.911  14.277  18.753  0.00  0.00    +0.000 NA
ATOM     14  H   UNL     1      -2.348   9.445  19.022  0.00  0.00    +0.000 HD
ATOM     15  H   UNL     1       3.294   9.915  17.905  0.00  0.00    +0.000 HD
ENDROOT
BRANCH  11  16
ATOM     16  C   UNL     1       2.567   8.033  18.383  0.00  0.00    +0.000 A 
ATOM     17  C   UNL     1       2.080   7.545  19.598  0.00  0.00    +0.000 A 
ATOM     18  C   UNL     1       2.284   6.207  19.944  0.00  0.00    +0.000 A 
ATOM     19  F   UNL     1       1.830   5.763  21.124  0.00  0.00    +0.000 F 
ATOM     20  C   UNL     1       2.961   5.335  19.106  0.00  0.00    +0.000 A 
ATOM     21  C   UNL     1       3.445   5.814  17.896  0.00  0.00    +0.000 A 
ATOM     22 CL   UNL     1       4.285   4.761  16.825  0.00  0.00    +0.000 Cl
ATOM     23  C   UNL     1       3.259   7.147  17.542  0.00  0.00    +0.000 A 
ENDBRANCH  11  16
BRANCH   1  25
ATOM     24  C   UNL     1       4.153  16.109  18.729  0.00  0.00    +0.000 C 
ATOM     25  C   UNL     1       2.732  16.637  18.708  0.00  0.00    +0.000 C 
ATOM     26  F   UNL     1       2.633  17.619  19.653  0.00  0.00    +0.000 F 
ATOM     27  F   UNL     1       2.527  17.264  17.513  0.00  0.00    +0.000 F 
ENDBRANCH   1  25
BRANCH   8  28
ATOM     28  C   UNL     1      -3.210  10.918  17.789  0.00  0.00    +0.000 C 
BRANCH  28  29
ATOM     29  C   UNL     1      -3.584  10.755  16.308  0.00  0.00    +0.000 C 
ATOM     30  F   UNL     1      -3.250   9.515  15.880  0.00  0.00    +0.000 F 
ATOM     31  F   UNL     1      -4.913  10.912  16.126  0.00  0.00    +0.000 F 
BRANCH  29  32
ATOM     32  O   UNL     1      -2.916  11.675  15.473  0.00  0.00    +0.000 OA
ATOM     33  H   UNL     1      -2.615  12.362  16.092  0.00  0.00    +0.000 HD
ENDBRANCH  29  32
ENDBRANCH  28  29
ENDBRANCH   8  28
TORSDOF 5
ENDMDL
MODEL 7
REMARK VINA RESULT:      -7.4      2.786      7.631
REMARK  Name = 
REMARK  6 active torsions:
REMARK  status: ('A' for Active; 'I' for Inactive)
REMARK    1  A    between atoms: C_1  and  C_2
REMARK    2  A    between atoms: C_2  and  C_5
REMARK    3  A    between atoms: N_12  and  C_13
REMARK    4  A    between atoms: C_13  and  C_14
REMARK    5  A    between atoms: C_14  and  O_15
REMARK    6  A    between atoms: N_20  and  C_21
REMARK                            x       y       z     vdW  Elec       q    Type
REMARK                         _______ _______ _______ _____ _____    ______ ____
ROOT
ATOM      1  C   UNL     1       0.137  10.579  19.892  0.00  0.00    +0.000 A 
ATOM      2  C   UNL     1      -0.021  10.056  21.199  0.00  0.00    +0.000 A 
ATOM      3  C   UNL     1       0.713   8.896  21.215  0.00  0.00    +0.000 A 
ATOM      4  N   UNL     1       1.260   8.749  19.956  0.00  0.00    +0.000 N 
ATOM      5  C   UNL     1       2.016   7.627  19.482  0.00  0.00    +0.000 A 
ATOM      6  N   UNL     1       2.076   6.551  20.276  0.00  0.00    +0.000 NA
ATOM      7  C   UNL     1       2.813   5.556  19.818  0.00  0.00    +0.000 A 
ATOM      8  N   UNL     1       2.874   4.349  20.500  0.00  0.00    +0.000 N 
ATOM      9  N   UNL     1       3.533   5.626  18.716  0.00  0.00    +0.000 NA
ATOM     10  C   UNL     1       3.373   6.703  17.953  0.00  0.00    +0.000 A 
ATOM     11  N   UNL     1       4.025   6.768  16.723  0.00  0.00    +0.000 N 
ATOM     12  N   UNL     1       2.599   7.722  18.282  0.00  0.00    +0.000 NA
ATOM     13  N   UNL     1       0.979   9.821  19.166  0.00  0.00    +0.000 NA
ATOM     14  H   UNL     1       3.794   4.298  20.933  0.00  0.00    +0.000 HD
ATOM     15  H   UNL     1       3.692   7.533  16.156  0.00  0.00    +0.000 HD
ENDROOT
BRANCH  11  16
ATOM     16  C   UNL     1       5.213   6.134  16.331  0.00  0.00    +0.000 A 
ATOM     17  C   UNL     1       5.447   5.864  14.981  0.00  0.00    +0.000 A 
ATOM     18  C   UNL     1       6.585   5.151  14.600  0.00  0.00    +0.000 A 
ATOM     19  F   UNL     1       6.780   4.880  13.301  0.00  0.00    +0.000 F 
ATOM     20  C   UNL     1       7.505   4.698  15.532  0.00  0.00    +0.000 A 
ATOM     21  C   UNL     1       7.280   4.966  16.875  0.00  0.00    +0.000 A 
ATOM     22 CL   UNL     1       8.402   4.428  18.063  0.00  0.00    +0.000 Cl
ATOM     23  C   UNL     1       6.144   5.667  17.272  0.00  0.00    +0.000 A 
ENDBRANCH  11  16
BRANCH   1  25
ATOM     24  C   UNL     1       0.370  12.833  18.735  0.00  0.00    +0.000 C 
ATOM     25  C   UNL     1      -0.559  11.785  19.316  0.00  0.00    +0.000 C 
ATOM     26  F   UNL     1      -1.332  12.389  20.269  0.00  0.00    +0.000 F 
ATOM     27  F   UNL     1      -1.429  11.397  18.338  0.00  0.00    +0.000 F 
ENDBRANCH   1  25
BRANCH   8  28
ATOM     28  C   UNL     1       1.757   4.102  21.429  0.00  0.00    +0.000 C 
BRANCH  28  29
ATOM     29  C   UNL     1       1.575   2.599  21.690  0.00  0.00    +0.000 C 
ATOM     30  F   UNL     1       0.601   2.404  22.608  0.00  0.00    +0.000 F 
ATOM     31  F   UNL     1       1.215   1.955  20.559  0.00  0.00    +0.000 F 
BRANCH  29  32
ATOM     32  O   UNL     1       2.745   1.988  22.189  0.00  0.00    +0.000 OA
ATOM     33  H   UNL     1       2.991   1.366  21.483  0.00  0.00    +0.000 HD
ENDBRANCH  29  32
ENDBRANCH  28  29
ENDBRANCH   8  28
TORSDOF 5
ENDMDL
MODEL 8
REMARK VINA RESULT:      -7.3      2.749      7.624
REMARK  Name = 
REMARK  6 active torsions:
REMARK  status: ('A' for Active; 'I' for Inactive)
REMARK    1  A    between atoms: C_1  and  C_2
REMARK    2  A    between atoms: C_2  and  C_5
REMARK    3  A    between atoms: N_12  and  C_13
REMARK    4  A    between atoms: C_13  and  C_14
REMARK    5  A    between atoms: C_14  and  O_15
REMARK    6  A    between atoms: N_20  and  C_21
REMARK                            x       y       z     vdW  Elec       q    Type
REMARK                         _______ _______ _______ _____ _____    ______ ____
ROOT
ATOM      1  C   UNL     1       0.097  10.497  19.953  0.00  0.00    +0.000 A 
ATOM      2  C   UNL     1      -0.020  10.002  21.275  0.00  0.00    +0.000 A 
ATOM      3  C   UNL     1       0.742   8.861  21.302  0.00  0.00    +0.000 A 
ATOM      4  N   UNL     1       1.266   8.698  20.036  0.00  0.00    +0.000 N 
ATOM      5  C   UNL     1       2.040   7.583  19.571  0.00  0.00    +0.000 A 
ATOM      6  N   UNL     1       2.144   6.528  20.388  0.00  0.00    +0.000 NA
ATOM      7  C   UNL     1       2.895   5.540  19.938  0.00  0.00    +0.000 A 
ATOM      8  N   UNL     1       3.000   4.352  20.647  0.00  0.00    +0.000 N 
ATOM      9  N   UNL     1       3.591   5.603  18.820  0.00  0.00    +0.000 NA
ATOM     10  C   UNL     1       3.388   6.657  18.036  0.00  0.00    +0.000 A 
ATOM     11  N   UNL     1       4.013   6.709  16.792  0.00  0.00    +0.000 N 
ATOM     12  N   UNL     1       2.596   7.665  18.358  0.00  0.00    +0.000 NA
ATOM     13  N   UNL     1       0.943   9.744  19.227  0.00  0.00    +0.000 NA
ATOM     14  H   UNL     1       3.930   4.334  21.061  0.00  0.00    +0.000 HD
ATOM     15  H   UNL     1       3.650   7.453  16.214  0.00  0.00    +0.000 HD
ENDROOT
BRANCH  11  16
ATOM     16  C   UNL     1       5.208   6.095  16.389  0.00  0.00    +0.000 A 
ATOM     17  C   UNL     1       5.436   5.833  15.037  0.00  0.00    +0.000 A 
ATOM     18  C   UNL     1       6.583   5.139  14.645  0.00  0.00    +0.000 A 
ATOM     19  F   UNL     1       6.773   4.875  13.345  0.00  0.00    +0.000 F 
ATOM     20  C   UNL     1       7.518   4.698  15.570  0.00  0.00    +0.000 A 
ATOM     21  C   UNL     1       7.297   4.959  16.915  0.00  0.00    +0.000 A 
ATOM     22 CL   UNL     1       8.437   4.436  18.094  0.00  0.00    +0.000 Cl
ATOM     23  C   UNL     1       6.153   5.641  17.322  0.00  0.00    +0.000 A 
ENDBRANCH  11  16
BRANCH   1  25
ATOM     24  C   UNL     1      -1.340  11.385  18.051  0.00  0.00    +0.000 C 
ATOM     25  C   UNL     1      -0.640  11.672  19.365  0.00  0.00    +0.000 C 
ATOM     26  F   UNL     1       0.214  12.720  19.166  0.00  0.00    +0.000 F 
ATOM     27  F   UNL     1      -1.571  12.128  20.253  0.00  0.00    +0.000 F 
ENDBRANCH   1  25
BRANCH   8  28
ATOM     28  C   UNL     1       1.909   4.100  21.604  0.00  0.00    +0.000 C 
BRANCH  28  29
ATOM     29  C   UNL     1       1.218   2.758  21.315  0.00  0.00    +0.000 C 
ATOM     30  F   UNL     1       2.131   1.846  20.909  0.00  0.00    +0.000 F 
ATOM     31  F   UNL     1       0.618   2.277  22.425  0.00  0.00    +0.000 F 
BRANCH  29  32
ATOM     32  O   UNL     1       0.246   2.854  20.297  0.00  0.00    +0.000 OA
ATOM     33  H   UNL     1       0.757   3.151  19.526  0.00  0.00    +0.000 HD
ENDBRANCH  29  32
ENDBRANCH  28  29
ENDBRANCH   8  28
TORSDOF 5
ENDMDL
MODEL 9
REMARK VINA RESULT:      -7.3      1.396      1.769
REMARK  Name = 
REMARK  6 active torsions:
REMARK  status: ('A' for Active; 'I' for Inactive)
REMARK    1  A    between atoms: C_1  and  C_2
REMARK    2  A    between atoms: C_2  and  C_5
REMARK    3  A    between atoms: N_12  and  C_13
REMARK    4  A    between atoms: C_13  and  C_14
REMARK    5  A    between atoms: C_14  and  O_15
REMARK    6  A    between atoms: N_20  and  C_21
REMARK                            x       y       z     vdW  Elec       q    Type
REMARK                         _______ _______ _______ _____ _____    ______ ____
ROOT
ATOM      1  C   UNL     1       5.521   4.506  15.477  0.00  0.00    +0.000 A 
ATOM      2  C   UNL     1       5.165   3.288  16.106  0.00  0.00    +0.000 A 
ATOM      3  C   UNL     1       4.279   3.637  17.094  0.00  0.00    +0.000 A 
ATOM      4  N   UNL     1       4.143   5.010  17.046  0.00  0.00    +0.000 N 
ATOM      5  C   UNL     1       3.398   5.825  17.960  0.00  0.00    +0.000 A 
ATOM      6  N   UNL     1       2.907   5.226  19.053  0.00  0.00    +0.000 NA
ATOM      7  C   UNL     1       2.197   6.003  19.848  0.00  0.00    +0.000 A 
ATOM      8  N   UNL     1       1.719   5.527  21.061  0.00  0.00    +0.000 N 
ATOM      9  N   UNL     1       1.886   7.252  19.562  0.00  0.00    +0.000 NA
ATOM     10  C   UNL     1       2.459   7.792  18.491  0.00  0.00    +0.000 A 
ATOM     11  N   UNL     1       2.252   9.142  18.216  0.00  0.00    +0.000 N 
ATOM     12  N   UNL     1       3.250   7.122  17.671  0.00  0.00    +0.000 NA
ATOM     13  N   UNL     1       4.837   5.540  16.002  0.00  0.00    +0.000 NA
ATOM     14  H   UNL     1       0.715   5.399  20.955  0.00  0.00    +0.000 HD
ATOM     15  H   UNL     1       2.872   9.484  17.497  0.00  0.00    +0.000 HD
ENDROOT
BRANCH  11  16
ATOM     16  C   UNL     1       1.161   9.947  18.573  0.00  0.00    +0.000 A 
ATOM     17  C   UNL     1      -0.084   9.741  17.972  0.00  0.00    +0.000 A 
ATOM     18  C   UNL     1      -1.146  10.601  18.256  0.00  0.00    +0.000 A 
ATOM     19  F   UNL     1      -2.326  10.403  17.652  0.00  0.00    +0.000 F 
ATOM     20  C   UNL     1      -1.004  11.667  19.133  0.00  0.00    +0.000 A 
ATOM     21  C   UNL     1       0.229  11.874  19.735  0.00  0.00    +0.000 A 
ATOM     22 CL   UNL     1       0.443  13.181  20.834  0.00  0.00    +0.000 Cl
ATOM     23  C   UNL     1       1.301  11.031  19.453  0.00  0.00    +0.000 A 
ENDBRANCH  11  16
BRANCH   1  25
ATOM     24  C   UNL     1       7.920   5.128  14.902  0.00  0.00    +0.000 C 
ATOM     25  C   UNL     1       6.557   4.692  14.399  0.00  0.00    +0.000 C 
ATOM     26  F   UNL     1       6.132   5.613  13.483  0.00  0.00    +0.000 F 
ATOM     27  F   UNL     1       6.713   3.530  13.699  0.00  0.00    +0.000 F 
ENDBRANCH   1  25
BRANCH   8  28
ATOM     28  C   UNL     1       2.425   4.346  21.586  0.00  0.00    +0.000 C 
BRANCH  28  29
ATOM     29  C   UNL     1       1.746   3.046  21.129  0.00  0.00    +0.000 C 
ATOM     30  F   UNL     1       1.659   2.180  22.165  0.00  0.00    +0.000 F 
ATOM     31  F   UNL     1       0.494   3.287  20.685  0.00  0.00    +0.000 F 
BRANCH  29  32
ATOM     32  O   UNL     1       2.457   2.392  20.101  0.00  0.00    +0.000 OA
ATOM     33  H   UNL     1       1.772   2.207  19.437  0.00  0.00    +0.000 HD
ENDBRANCH  29  32
ENDBRANCH  28  29
ENDBRANCH   8  28
TORSDOF 5
ENDMDL
