MODEL 1
REMARK VINA RESULT:      -7.1      0.000      0.000
REMARK  Name = 
REMARK  6 active torsions:
REMARK  status: ('A' for Active; 'I' for Inactive)
REMARK    1  A    between atoms: C_1  and  C_2
REMARK    2  A    between atoms: N_4  and  C_5
REMARK    3  A    between atoms: C_8  and  C_9
REMARK    4  A    between atoms: C_9  and  C_10
REMARK    5  A    between atoms: C_10  and  P_11
REMARK    6  A    between atoms: P_11  and  O_13
REMARK                            x       y       z     vdW  Elec       q    Type
REMARK                         _______ _______ _______ _____ _____    ______ ____
ROOT
ATOM      1  C   UNL     1       4.614   6.052  18.109  0.00  0.00    +0.000 C 
ATOM      2  C   UNL     1       3.435   6.926  17.850  0.00  0.00    +0.000 C 
ATOM      3  C   UNL     1       2.345   6.382  18.392  0.00  0.00    +0.000 C 
ATOM      4  C   UNL     1       2.700   5.091  19.042  0.00  0.00    +0.000 C 
ATOM      5  O   UNL     1       4.036   4.820  18.592  0.00  0.00    +0.000 OA
ENDROOT
BRANCH   1   9
ATOM      6  C   UNL     1       5.444   3.870  13.666  0.00  0.00    +0.000 C 
ATOM      7  C   UNL     1       5.841   4.694  14.844  0.00  0.00    +0.000 A 
ATOM      8  C   UNL     1       5.074   4.911  15.922  0.00  0.00    +0.000 A 
ATOM      9  N   UNL     1       5.454   5.746  16.958  0.00  0.00    +0.000 N 
ATOM     10  C   UNL     1       6.685   6.397  16.939  0.00  0.00    +0.000 A 
ATOM     11  O   UNL     1       7.055   7.228  17.767  0.00  0.00    +0.000 OA
ATOM     12  N   UNL     1       7.507   6.085  15.890  0.00  0.00    +0.000 N 
ATOM     13  C   UNL     1       7.180   5.331  14.805  0.00  0.00    +0.000 A 
ATOM     14  O   UNL     1       7.932   5.196  13.848  0.00  0.00    +0.000 OA
ATOM     15  H   UNL     1       8.402   6.549  15.872  0.00  0.00    +0.000 HD
ENDBRANCH   1   9
BRANCH   4  16
ATOM     16  C   UNL     1       1.779   3.970  18.592  0.00  0.00    +0.000 C 
BRANCH  16  17
ATOM     17  C   UNL     1       1.073   3.242  19.735  0.00  0.00    +0.000 C 
BRANCH  17  18
ATOM     18  P   UNL     1       2.158   3.255  21.191  0.00  0.00    +0.000 P 
ATOM     19  O   UNL     1       3.378   2.411  20.936  0.00  0.00    +0.000 OA
ATOM     20  H   UNL     1       2.290   4.536  21.762  0.00  0.00    +0.000 HD
BRANCH  18  21
ATOM     21  O   UNL     1       1.251   2.469  22.283  0.00  0.00    +0.000 OA
ATOM     22  H   UNL     1       1.312   2.881  23.165  0.00  0.00    +0.000 HD
ENDBRANCH  18  21
ENDBRANCH  17  18
ENDBRANCH  16  17
ENDBRANCH   4  16
TORSDOF 5
ENDMDL
MODEL 2
REMARK VINA RESULT:      -7.1      1.998      2.293
REMARK  Name = 
REMARK  6 active torsions:
REMARK  status: ('A' for Active; 'I' for Inactive)
REMARK    1  A    between atoms: C_1  and  C_2
REMARK    2  A    between atoms: N_4  and  C_5
REMARK    3  A    between atoms: C_8  and  C_9
REMARK    4  A    between atoms: C_9  and  C_10
REMARK    5  A    between atoms: C_10  and  P_11
REMARK    6  A    between atoms: P_11  and  O_13
REMARK                            x       y       z     vdW  Elec       q    Type
REMARK                         _______ _______ _______ _____ _____    ______ ____
ROOT
ATOM      1  C   UNL     1       4.149   5.670  19.578  0.00  0.00    +0.000 C 
ATOM      2  C   UNL     1       3.034   6.578  19.188  0.00  0.00    +0.000 C 
ATOM      3  C   UNL     1       1.882   6.106  19.663  0.00  0.00    +0.000 C 
ATOM      4  C   UNL     1       2.127   4.833  20.396  0.00  0.00    +0.000 C 
ATOM      5  O   UNL     1       3.481   4.487  20.067  0.00  0.00    +0.000 OA
ENDROOT
BRANCH   1   9
ATOM      6  C   UNL     1       5.262   4.855  14.753  0.00  0.00    +0.000 C 
ATOM      7  C   UNL     1       5.579   4.883  16.211  0.00  0.00    +0.000 A 
ATOM      8  C   UNL     1       4.704   5.188  17.179  0.00  0.00    +0.000 A 
ATOM      9  N   UNL     1       5.063   5.277  18.513  0.00  0.00    +0.000 N 
ATOM     10  C   UNL     1       6.371   5.029  18.922  0.00  0.00    +0.000 A 
ATOM     11  O   UNL     1       6.791   5.183  20.068  0.00  0.00    +0.000 OA
ATOM     12  N   UNL     1       7.232   4.612  17.942  0.00  0.00    +0.000 N 
ATOM     13  C   UNL     1       6.972   4.566  16.607  0.00  0.00    +0.000 A 
ATOM     14  O   UNL     1       7.834   4.296  15.780  0.00  0.00    +0.000 OA
ATOM     15  H   UNL     1       8.179   4.426  18.232  0.00  0.00    +0.000 HD
ENDBRANCH   1   9
BRANCH   4  16
ATOM     16  C   UNL     1       1.195   3.731  19.922  0.00  0.00    +0.000 C 
BRANCH  16  17
ATOM     17  C   UNL     1       1.851   2.355  19.821  0.00  0.00    +0.000 C 
BRANCH  17  18
ATOM     18  P   UNL     1       2.267   2.036  18.082  0.00  0.00    +0.000 P 
ATOM     19  O   UNL     1       3.757   1.912  17.919  0.00  0.00    +0.000 OA
ATOM     20  H   UNL     1       1.408   1.094  17.479  0.00  0.00    +0.000 HD
BRANCH  18  21
ATOM     21  O   UNL     1       1.821   3.427  17.378  0.00  0.00    +0.000 OA
ATOM     22  H   UNL     1       2.563   3.842  16.896  0.00  0.00    +0.000 HD
ENDBRANCH  18  21
ENDBRANCH  17  18
ENDBRANCH  16  17
ENDBRANCH   4  16
TORSDOF 5
ENDMDL
MODEL 3
REMARK VINA RESULT:      -7.0      1.209      1.301
REMARK  Name = 
REMARK  6 active torsions:
REMARK  status: ('A' for Active; 'I' for Inactive)
REMARK    1  A    between atoms: C_1  and  C_2
REMARK    2  A    between atoms: N_4  and  C_5
REMARK    3  A    between atoms: C_8  and  C_9
REMARK    4  A    between atoms: C_9  and  C_10
REMARK    5  A    between atoms: C_10  and  P_11
REMARK    6  A    between atoms: P_11  and  O_13
REMARK                            x       y       z     vdW  Elec       q    Type
REMARK                         _______ _______ _______ _____ _____    ______ ____
ROOT
ATOM      1  C   UNL     1       5.276   5.445  17.534  0.00  0.00    +0.000 C 
ATOM      2  C   UNL     1       4.108   6.370  17.566  0.00  0.00    +0.000 C 
ATOM      3  C   UNL     1       3.124   5.826  18.282  0.00  0.00    +0.000 C 
ATOM      4  C   UNL     1       3.544   4.485  18.774  0.00  0.00    +0.000 C 
ATOM      5  O   UNL     1       4.752   4.203  18.052  0.00  0.00    +0.000 OA
ENDROOT
BRANCH   1   9
ATOM      6  C   UNL     1       5.137   3.491  12.914  0.00  0.00    +0.000 C 
ATOM      7  C   UNL     1       5.785   4.244  14.027  0.00  0.00    +0.000 A 
ATOM      8  C   UNL     1       5.256   4.416  15.246  0.00  0.00    +0.000 A 
ATOM      9  N   UNL     1       5.859   5.188  16.224  0.00  0.00    +0.000 N 
ATOM     10  C   UNL     1       7.077   5.821  15.988  0.00  0.00    +0.000 A 
ATOM     11  O   UNL     1       7.627   6.601  16.763  0.00  0.00    +0.000 OA
ATOM     12  N   UNL     1       7.663   5.552  14.779  0.00  0.00    +0.000 N 
ATOM     13  C   UNL     1       7.104   4.862  13.748  0.00  0.00    +0.000 A 
ATOM     14  O   UNL     1       7.644   4.767  12.653  0.00  0.00    +0.000 OA
ATOM     15  H   UNL     1       8.547   6.002  14.604  0.00  0.00    +0.000 HD
ENDBRANCH   1   9
BRANCH   4  16
ATOM     16  C   UNL     1       2.505   3.425  18.454  0.00  0.00    +0.000 C 
BRANCH  16  17
ATOM     17  C   UNL     1       2.439   2.285  19.468  0.00  0.00    +0.000 C 
BRANCH  17  18
ATOM     18  P   UNL     1       1.437   2.823  20.884  0.00  0.00    +0.000 P 
ATOM     19  O   UNL     1       0.924   4.219  20.656  0.00  0.00    +0.000 OA
ATOM     20  H   UNL     1       0.567   1.817  21.352  0.00  0.00    +0.000 HD
BRANCH  18  21
ATOM     21  O   UNL     1       2.550   2.908  22.061  0.00  0.00    +0.000 OA
ATOM     22  H   UNL     1       3.412   3.216  21.721  0.00  0.00    +0.000 HD
ENDBRANCH  18  21
ENDBRANCH  17  18
ENDBRANCH  16  17
ENDBRANCH   4  16
TORSDOF 5
ENDMDL
MODEL 4
REMARK VINA RESULT:      -7.0      1.965      3.110
REMARK  Name = 
REMARK  6 active torsions:
REMARK  status: ('A' for Active; 'I' for Inactive)
REMARK    1  A    between atoms: C_1  and  C_2
REMARK    2  A    between atoms: N_4  and  C_5
REMARK    3  A    between atoms: C_8  and  C_9
REMARK    4  A    between atoms: C_9  and  C_10
REMARK    5  A    between atoms: C_10  and  P_11
REMARK    6  A    between atoms: P_11  and  O_13
REMARK                            x       y       z     vdW  Elec       q    Type
REMARK                         _______ _______ _______ _____ _____    ______ ____
ROOT
ATOM      1  C   UNL     1       4.327   4.527  16.780  0.00  0.00    +0.000 C 
ATOM      2  C   UNL     1       4.352   3.103  17.216  0.00  0.00    +0.000 C 
ATOM      3  C   UNL     1       3.151   2.753  17.678  0.00  0.00    +0.000 C 
ATOM      4  C   UNL     1       2.228   3.918  17.604  0.00  0.00    +0.000 C 
ATOM      5  O   UNL     1       3.083   5.033  17.309  0.00  0.00    +0.000 OA
ENDROOT
BRANCH   1   9
ATOM      6  C   UNL     1       8.102   5.534  19.929  0.00  0.00    +0.000 C 
ATOM      7  C   UNL     1       7.203   5.843  18.779  0.00  0.00    +0.000 A 
ATOM      8  C   UNL     1       6.171   5.083  18.387  0.00  0.00    +0.000 A 
ATOM      9  N   UNL     1       5.412   5.370  17.266  0.00  0.00    +0.000 N 
ATOM     10  C   UNL     1       5.677   6.494  16.489  0.00  0.00    +0.000 A 
ATOM     11  O   UNL     1       5.117   6.765  15.428  0.00  0.00    +0.000 OA
ATOM     12  N   UNL     1       6.661   7.323  16.957  0.00  0.00    +0.000 N 
ATOM     13  C   UNL     1       7.491   7.076  18.007  0.00  0.00    +0.000 A 
ATOM     14  O   UNL     1       8.428   7.813  18.291  0.00  0.00    +0.000 OA
ATOM     15  H   UNL     1       6.855   8.142  16.402  0.00  0.00    +0.000 HD
ENDBRANCH   1   9
BRANCH   4  16
ATOM     16  C   UNL     1       1.527   4.156  18.931  0.00  0.00    +0.000 C 
BRANCH  16  17
ATOM     17  C   UNL     1       1.283   2.888  19.748  0.00  0.00    +0.000 C 
BRANCH  17  18
ATOM     18  P   UNL     1       2.201   3.018  21.310  0.00  0.00    +0.000 P 
ATOM     19  O   UNL     1       1.336   2.572  22.457  0.00  0.00    +0.000 OA
ATOM     20  H   UNL     1       3.529   2.557  21.203  0.00  0.00    +0.000 HD
BRANCH  18  21
ATOM     21  O   UNL     1       2.390   4.623  21.446  0.00  0.00    +0.000 OA
ATOM     22  H   UNL     1       3.217   4.851  21.913  0.00  0.00    +0.000 HD
ENDBRANCH  18  21
ENDBRANCH  17  18
ENDBRANCH  16  17
ENDBRANCH   4  16
TORSDOF 5
ENDMDL
MODEL 5
REMARK VINA RESULT:      -7.0      1.615      1.870
REMARK  Name = 
REMARK  6 active torsions:
REMARK  status: ('A' for Active; 'I' for Inactive)
REMARK    1  A    between atoms: C_1  and  C_2
REMARK    2  A    between atoms: N_4  and  C_5
REMARK    3  A    between atoms: C_8  and  C_9
REMARK    4  A    between atoms: C_9  and  C_10
REMARK    5  A    between atoms: C_10  and  P_11
REMARK    6  A    between atoms: P_11  and  O_13
REMARK                            x       y       z     vdW  Elec       q    Type
REMARK                         _______ _______ _______ _____ _____    ______ ____
ROOT
ATOM      1  C   UNL     1       4.440   6.436  18.144  0.00  0.00    +0.000 C 
ATOM      2  C   UNL     1       2.979   6.392  17.854  0.00  0.00    +0.000 C 
ATOM      3  C   UNL     1       2.343   5.771  18.847  0.00  0.00    +0.000 C 
ATOM      4  C   UNL     1       3.326   5.332  19.875  0.00  0.00    +0.000 C 
ATOM      5  O   UNL     1       4.604   5.524  19.251  0.00  0.00    +0.000 OA
ENDROOT
BRANCH   1   9
ATOM      6  C   UNL     1       5.405   3.895  13.926  0.00  0.00    +0.000 C 
ATOM      7  C   UNL     1       5.774   4.793  15.058  0.00  0.00    +0.000 A 
ATOM      8  C   UNL     1       4.964   5.117  16.075  0.00  0.00    +0.000 A 
ATOM      9  N   UNL     1       5.324   6.016  17.064  0.00  0.00    +0.000 N 
ATOM     10  C   UNL     1       6.577   6.622  17.060  0.00  0.00    +0.000 A 
ATOM     11  O   UNL     1       6.937   7.501  17.842  0.00  0.00    +0.000 OA
ATOM     12  N   UNL     1       7.438   6.203  16.081  0.00  0.00    +0.000 N 
ATOM     13  C   UNL     1       7.136   5.380  15.041  0.00  0.00    +0.000 A 
ATOM     14  O   UNL     1       7.929   5.147  14.136  0.00  0.00    +0.000 OA
ATOM     15  H   UNL     1       8.350   6.634  16.076  0.00  0.00    +0.000 HD
ENDBRANCH   1   9
BRANCH   4  16
ATOM     16  C   UNL     1       3.149   3.864  20.223  0.00  0.00    +0.000 C 
BRANCH  16  17
ATOM     17  C   UNL     1       4.194   2.941  19.597  0.00  0.00    +0.000 C 
BRANCH  17  18
ATOM     18  P   UNL     1       3.445   2.094  18.176  0.00  0.00    +0.000 P 
ATOM     19  O   UNL     1       1.952   2.016  18.347  0.00  0.00    +0.000 OA
ATOM     20  H   UNL     1       3.996   2.503  16.945  0.00  0.00    +0.000 HD
BRANCH  18  21
ATOM     21  O   UNL     1       4.027   0.590  18.346  0.00  0.00    +0.000 OA
ATOM     22  H   UNL     1       4.109   0.340  19.286  0.00  0.00    +0.000 HD
ENDBRANCH  18  21
ENDBRANCH  17  18
ENDBRANCH  16  17
ENDBRANCH   4  16
TORSDOF 5
ENDMDL
MODEL 6
REMARK VINA RESULT:      -7.0      3.029      6.149
REMARK  Name = 
REMARK  6 active torsions:
REMARK  status: ('A' for Active; 'I' for Inactive)
REMARK    1  A    between atoms: C_1  and  C_2
REMARK    2  A    between atoms: N_4  and  C_5
REMARK    3  A    between atoms: C_8  and  C_9
REMARK    4  A    between atoms: C_9  and  C_10
REMARK    5  A    between atoms: C_10  and  P_11
REMARK    6  A    between atoms: P_11  and  O_13
REMARK                            x       y       z     vdW  Elec       q    Type
REMARK                         _______ _______ _______ _____ _____    ______ ____
ROOT
ATOM      1  C   UNL     1       2.822   4.284  18.832  0.00  0.00    +0.000 C 
ATOM      2  C   UNL     1       2.085   3.712  17.670  0.00  0.00    +0.000 C 
ATOM      3  C   UNL     1       2.950   3.183  16.805  0.00  0.00    +0.000 C 
ATOM      4  C   UNL     1       4.338   3.371  17.307  0.00  0.00    +0.000 C 
ATOM      5  O   UNL     1       4.200   4.289  18.402  0.00  0.00    +0.000 OA
ENDROOT
BRANCH   1   9
ATOM      6  C   UNL     1       2.071   9.146  17.843  0.00  0.00    +0.000 C 
ATOM      7  C   UNL     1       2.110   7.956  18.742  0.00  0.00    +0.000 A 
ATOM      8  C   UNL     1       2.510   6.731  18.375  0.00  0.00    +0.000 A 
ATOM      9  N   UNL     1       2.457   5.639  19.224  0.00  0.00    +0.000 N 
ATOM     10  C   UNL     1       1.994   5.768  20.531  0.00  0.00    +0.000 A 
ATOM     11  O   UNL     1       1.823   4.835  21.313  0.00  0.00    +0.000 OA
ATOM     12  N   UNL     1       1.692   7.042  20.931  0.00  0.00    +0.000 N 
ATOM     13  C   UNL     1       1.655   8.149  20.140  0.00  0.00    +0.000 A 
ATOM     14  O   UNL     1       1.257   9.234  20.547  0.00  0.00    +0.000 OA
ATOM     15  H   UNL     1       1.362   7.144  21.878  0.00  0.00    +0.000 HD
ENDBRANCH   1   9
BRANCH   4  16
ATOM     16  C   UNL     1       5.235   3.984  16.245  0.00  0.00    +0.000 C 
BRANCH  16  17
ATOM     17  C   UNL     1       5.434   5.492  16.385  0.00  0.00    +0.000 C 
BRANCH  17  18
ATOM     18  P   UNL     1       7.044   5.796  17.167  0.00  0.00    +0.000 P 
ATOM     19  O   UNL     1       7.721   6.974  16.520  0.00  0.00    +0.000 OA
ATOM     20  H   UNL     1       6.998   5.691  18.572  0.00  0.00    +0.000 HD
BRANCH  18  21
ATOM     21  O   UNL     1       7.873   4.470  16.737  0.00  0.00    +0.000 OA
ATOM     22  H   UNL     1       7.928   4.378  15.767  0.00  0.00    +0.000 HD
ENDBRANCH  18  21
ENDBRANCH  17  18
ENDBRANCH  16  17
ENDBRANCH   4  16
TORSDOF 5
ENDMDL
MODEL 7
REMARK VINA RESULT:      -6.9      1.303      1.619
REMARK  Name = 
REMARK  6 active torsions:
REMARK  status: ('A' for Active; 'I' for Inactive)
REMARK    1  A    between atoms: C_1  and  C_2
REMARK    2  A    between atoms: N_4  and  C_5
REMARK    3  A    between atoms: C_8  and  C_9
REMARK    4  A    between atoms: C_9  and  C_10
REMARK    5  A    between atoms: C_10  and  P_11
REMARK    6  A    between atoms: P_11  and  O_13
REMARK                            x       y       z     vdW  Elec       q    Type
REMARK                         _______ _______ _______ _____ _____    ______ ____
ROOT
ATOM      1  C   UNL     1       5.137   5.929  17.535  0.00  0.00    +0.000 C 
ATOM      2  C   UNL     1       4.171   7.060  17.443  0.00  0.00    +0.000 C 
ATOM      3  C   UNL     1       3.045   6.743  18.082  0.00  0.00    +0.000 C 
ATOM      4  C   UNL     1       3.157   5.368  18.640  0.00  0.00    +0.000 C 
ATOM      5  O   UNL     1       4.343   4.831  18.034  0.00  0.00    +0.000 OA
ENDROOT
BRANCH   1   9
ATOM      6  C   UNL     1       5.071   3.619  13.081  0.00  0.00    +0.000 C 
ATOM      7  C   UNL     1       5.724   4.402  14.170  0.00  0.00    +0.000 A 
ATOM      8  C   UNL     1       5.147   4.720  15.337  0.00  0.00    +0.000 A 
ATOM      9  N   UNL     1       5.765   5.514  16.288  0.00  0.00    +0.000 N 
ATOM     10  C   UNL     1       7.048   6.014  16.080  0.00  0.00    +0.000 A 
ATOM     11  O   UNL     1       7.625   6.803  16.826  0.00  0.00    +0.000 OA
ATOM     12  N   UNL     1       7.672   5.595  14.935  0.00  0.00    +0.000 N 
ATOM     13  C   UNL     1       7.108   4.874  13.927  0.00  0.00    +0.000 A 
ATOM     14  O   UNL     1       7.697   4.641  12.879  0.00  0.00    +0.000 OA
ATOM     15  H   UNL     1       8.603   5.948  14.781  0.00  0.00    +0.000 HD
ENDBRANCH   1   9
BRANCH   4  16
ATOM     16  C   UNL     1       1.962   4.512  18.255  0.00  0.00    +0.000 C 
BRANCH  16  17
ATOM     17  C   UNL     1       2.322   3.241  17.488  0.00  0.00    +0.000 C 
BRANCH  17  18
ATOM     18  P   UNL     1       2.608   1.903  18.682  0.00  0.00    +0.000 P 
ATOM     19  O   UNL     1       2.000   2.256  20.012  0.00  0.00    +0.000 OA
ATOM     20  H   UNL     1       2.403   0.623  18.127  0.00  0.00    +0.000 HD
BRANCH  18  21
ATOM     21  O   UNL     1       4.219   1.961  18.860  0.00  0.00    +0.000 OA
ATOM     22  H   UNL     1       4.619   1.072  18.819  0.00  0.00    +0.000 HD
ENDBRANCH  18  21
ENDBRANCH  17  18
ENDBRANCH  16  17
ENDBRANCH   4  16
TORSDOF 5
ENDMDL
MODEL 8
REMARK VINA RESULT:      -6.8      1.921      2.929
REMARK  Name = 
REMARK  6 active torsions:
REMARK  status: ('A' for Active; 'I' for Inactive)
REMARK    1  A    between atoms: C_1  and  C_2
REMARK    2  A    between atoms: N_4  and  C_5
REMARK    3  A    between atoms: C_8  and  C_9
REMARK    4  A    between atoms: C_9  and  C_10
REMARK    5  A    between atoms: C_10  and  P_11
REMARK    6  A    between atoms: P_11  and  O_13
REMARK                            x       y       z     vdW  Elec       q    Type
REMARK                         _______ _______ _______ _____ _____    ______ ____
ROOT
ATOM      1  C   UNL     1       1.938   4.934  18.108  0.00  0.00    +0.000 C 
ATOM      2  C   UNL     1       1.297   3.709  17.553  0.00  0.00    +0.000 C 
ATOM      3  C   UNL     1       0.834   2.953  18.550  0.00  0.00    +0.000 C 
ATOM      4  C   UNL     1       1.141   3.602  19.854  0.00  0.00    +0.000 C 
ATOM      5  O   UNL     1       2.054   4.659  19.521  0.00  0.00    +0.000 OA
ENDROOT
BRANCH   1   9
ATOM      6  C   UNL     1       6.099   3.825  15.532  0.00  0.00    +0.000 C 
ATOM      7  C   UNL     1       5.244   4.716  16.368  0.00  0.00    +0.000 A 
ATOM      8  C   UNL     1       4.055   4.374  16.885  0.00  0.00    +0.000 A 
ATOM      9  N   UNL     1       3.261   5.260  17.592  0.00  0.00    +0.000 N 
ATOM     10  C   UNL     1       3.675   6.570  17.819  0.00  0.00    +0.000 A 
ATOM     11  O   UNL     1       2.989   7.443  18.348  0.00  0.00    +0.000 OA
ATOM     12  N   UNL     1       4.935   6.880  17.383  0.00  0.00    +0.000 N 
ATOM     13  C   UNL     1       5.744   6.088  16.627  0.00  0.00    +0.000 A 
ATOM     14  O   UNL     1       6.812   6.483  16.174  0.00  0.00    +0.000 OA
ATOM     15  H   UNL     1       5.244   7.825  17.550  0.00  0.00    +0.000 HD
ENDBRANCH   1   9
BRANCH   4  16
ATOM     16  C   UNL     1       1.817   2.634  20.810  0.00  0.00    +0.000 C 
BRANCH  16  17
ATOM     17  C   UNL     1       3.229   3.046  21.225  0.00  0.00    +0.000 C 
BRANCH  17  18
ATOM     18  P   UNL     1       4.423   1.991  20.353  0.00  0.00    +0.000 P 
ATOM     19  O   UNL     1       5.359   1.344  21.338  0.00  0.00    +0.000 OA
ATOM     20  H   UNL     1       3.828   1.223  19.332  0.00  0.00    +0.000 HD
BRANCH  18  21
ATOM     21  O   UNL     1       5.282   3.087  19.522  0.00  0.00    +0.000 OA
ATOM     22  H   UNL     1       6.141   2.726  19.231  0.00  0.00    +0.000 HD
ENDBRANCH  18  21
ENDBRANCH  17  18
ENDBRANCH  16  17
ENDBRANCH   4  16
TORSDOF 5
ENDMDL
MODEL 9
REMARK VINA RESULT:      -6.8      1.368      1.662
REMARK  Name = 
REMARK  6 active torsions:
REMARK  status: ('A' for Active; 'I' for Inactive)
REMARK    1  A    between atoms: C_1  and  C_2
REMARK    2  A    between atoms: N_4  and  C_5
REMARK    3  A    between atoms: C_8  and  C_9
REMARK    4  A    between atoms: C_9  and  C_10
REMARK    5  A    between atoms: C_10  and  P_11
REMARK    6  A    between atoms: P_11  and  O_13
REMARK                            x       y       z     vdW  Elec       q    Type
REMARK                         _______ _______ _______ _____ _____    ______ ____
ROOT
ATOM      1  C   UNL     1       4.631   6.733  18.091  0.00  0.00    +0.000 C 
ATOM      2  C   UNL     1       3.395   7.459  17.683  0.00  0.00    +0.000 C 
ATOM      3  C   UNL     1       2.353   6.997  18.373  0.00  0.00    +0.000 C 
ATOM      4  C   UNL     1       2.801   5.911  19.288  0.00  0.00    +0.000 C 
ATOM      5  O   UNL     1       4.141   5.617  18.863  0.00  0.00    +0.000 OA
ENDROOT
BRANCH   1   9
ATOM      6  C   UNL     1       5.316   4.053  13.904  0.00  0.00    +0.000 C 
ATOM      7  C   UNL     1       5.778   4.929  15.020  0.00  0.00    +0.000 A 
ATOM      8  C   UNL     1       5.010   5.342  16.038  0.00  0.00    +0.000 A 
ATOM      9  N   UNL     1       5.462   6.217  17.011  0.00  0.00    +0.000 N 
ATOM     10  C   UNL     1       6.765   6.705  16.987  0.00  0.00    +0.000 A 
ATOM     11  O   UNL     1       7.212   7.558  17.752  0.00  0.00    +0.000 OA
ATOM     12  N   UNL     1       7.575   6.194  16.007  0.00  0.00    +0.000 N 
ATOM     13  C   UNL     1       7.188   5.387  14.982  0.00  0.00    +0.000 A 
ATOM     14  O   UNL     1       7.947   5.068  14.075  0.00  0.00    +0.000 OA
ATOM     15  H   UNL     1       8.522   6.539  15.988  0.00  0.00    +0.000 HD
ENDBRANCH   1   9
BRANCH   4  16
ATOM     16  C   UNL     1       1.940   4.669  19.140  0.00  0.00    +0.000 C 
BRANCH  16  17
ATOM     17  C   UNL     1       2.004   4.022  17.757  0.00  0.00    +0.000 C 
BRANCH  17  18
ATOM     18  P   UNL     1       2.702   2.354  17.927  0.00  0.00    +0.000 P 
ATOM     19  O   UNL     1       2.162   1.690  19.164  0.00  0.00    +0.000 OA
ATOM     20  H   UNL     1       2.741   1.651  16.706  0.00  0.00    +0.000 HD
BRANCH  18  21
ATOM     21  O   UNL     1       4.267   2.680  18.201  0.00  0.00    +0.000 OA
ATOM     22  H   UNL     1       4.522   3.552  17.845  0.00  0.00    +0.000 HD
ENDBRANCH  18  21
ENDBRANCH  17  18
ENDBRANCH  16  17
ENDBRANCH   4  16
TORSDOF 5
ENDMDL
