MODEL 1
REMARK VINA RESULT:      -8.7      0.000      0.000
REMARK  Name = 
REMARK  6 active torsions:
REMARK  status: ('A' for Active; 'I' for Inactive)
REMARK    1  A    between atoms: C_1  and  O_2
REMARK    2  A    between atoms: O_2  and  C_3
REMARK    3  A    between atoms: N_11  and  S_12
REMARK    4  A    between atoms: S_12  and  C_15
REMARK    5  A    between atoms: C_17  and  N_18
REMARK    6  A    between atoms: C_19  and  C_21
REMARK                            x       y       z     vdW  Elec       q    Type
REMARK                         _______ _______ _______ _____ _____    ______ ____
ROOT
ATOM      1  S   UNL     1       4.357   3.435  19.102  0.00  0.00    +0.000 S 
ATOM      2  O   UNL     1       5.171   3.237  20.284  0.00  0.00    +0.000 OA
ATOM      3  O   UNL     1       3.534   2.356  18.599  0.00  0.00    +0.000 OA
ENDROOT
BRANCH   1  12
ATOM      4  C   UNL     1       1.533   9.354  19.424  0.00  0.00    +0.000 A 
ATOM      5  C   UNL     1       2.017   9.289  18.140  0.00  0.00    +0.000 A 
ATOM      6  C   UNL     1       2.452   8.054  17.741  0.00  0.00    +0.000 A 
ATOM      7  N   UNL     1       2.437   6.977  18.545  0.00  0.00    +0.000 NA
ATOM      8  C   UNL     1       1.940   7.149  19.784  0.00  0.00    +0.000 A 
ATOM      9  N   UNL     1       1.931   6.087  20.667  0.00  0.00    +0.000 N 
ATOM     10  C   UNL     1       2.585   4.900  20.546  0.00  0.00    +0.000 C 
ATOM     11  O   UNL     1       2.481   4.055  21.426  0.00  0.00    +0.000 OA
ATOM     12  N   UNL     1       3.359   4.707  19.413  0.00  0.00    +0.000 N 
ATOM     13  N   UNL     1       1.457   8.300  20.257  0.00  0.00    +0.000 NA
ATOM     14  H   UNL     1       1.472   6.252  21.548  0.00  0.00    +0.000 HD
ATOM     15  H   UNL     1       3.284   5.383  18.653  0.00  0.00    +0.000 HD
BRANCH   4  17
ATOM     16  C   UNL     1       0.525  10.582  21.146  0.00  0.00    +0.000 C 
ATOM     17  O   UNL     1       1.120  10.600  19.852  0.00  0.00    +0.000 OA
ENDBRANCH   4  17
ENDBRANCH   1  12
BRANCH   1  18
ATOM     18  C   UNL     1       5.421   4.014  17.818  0.00  0.00    +0.000 A 
ATOM     19  C   UNL     1       5.197   3.528  16.521  0.00  0.00    +0.000 A 
ATOM     20  C   UNL     1       5.981   3.952  15.447  0.00  0.00    +0.000 A 
ATOM     21  C   UNL     1       6.981   4.899  15.683  0.00  0.00    +0.000 A 
ATOM     22  C   UNL     1       7.215   5.376  16.982  0.00  0.00    +0.000 A 
ATOM     23  C   UNL     1       6.437   4.936  18.058  0.00  0.00    +0.000 A 
ATOM     24 CL   UNL     1       6.792   5.606  19.608  0.00  0.00    +0.000 Cl
BRANCH  20  25
ATOM     25  N   UNL     1       5.800   3.469  14.129  0.00  0.00    +0.000 N 
ATOM     26  C   UNL     1       6.494   3.907  13.015  0.00  0.00    +0.000 C 
ATOM     27  O   UNL     1       7.321   4.809  12.990  0.00  0.00    +0.000 OA
ATOM     28  H   UNL     1       5.039   2.825  13.974  0.00  0.00    +0.000 HD
BRANCH  26  29
ATOM     29  C   UNL     1       6.167   3.281  11.704  0.00  0.00    +0.000 C 
ATOM     30  C   UNL     1       5.722   1.871  11.439  0.00  0.00    +0.000 C 
ATOM     31  C   UNL     1       4.722   2.989  11.370  0.00  0.00    +0.000 C 
ENDBRANCH  26  29
ENDBRANCH  20  25
ENDBRANCH   1  18
TORSDOF 5
ENDMDL
MODEL 2
REMARK VINA RESULT:      -8.6      1.004      1.092
REMARK  Name = 
REMARK  6 active torsions:
REMARK  status: ('A' for Active; 'I' for Inactive)
REMARK    1  A    between atoms: C_1  and  O_2
REMARK    2  A    between atoms: O_2  and  C_3
REMARK    3  A    between atoms: N_11  and  S_12
REMARK    4  A    between atoms: S_12  and  C_15
REMARK    5  A    between atoms: C_17  and  N_18
REMARK    6  A    between atoms: C_19  and  C_21
REMARK                            x       y       z     vdW  Elec       q    Type
REMARK                         _______ _______ _______ _____ _____    ______ ____
ROOT
ATOM      1  S   UNL     1       4.352   3.382  18.345  0.00  0.00    +0.000 S 
ATOM      2  O   UNL     1       5.185   2.998  19.466  0.00  0.00    +0.000 OA
ATOM      3  O   UNL     1       3.491   2.406  17.714  0.00  0.00    +0.000 OA
ENDROOT
BRANCH   1  12
ATOM      4  C   UNL     1       1.602   9.242  19.449  0.00  0.00    +0.000 A 
ATOM      5  C   UNL     1       1.961   9.290  18.123  0.00  0.00    +0.000 A 
ATOM      6  C   UNL     1       2.349   8.097  17.579  0.00  0.00    +0.000 A 
ATOM      7  N   UNL     1       2.406   6.953  18.284  0.00  0.00    +0.000 NA
ATOM      8  C   UNL     1       2.030   7.015  19.575  0.00  0.00    +0.000 A 
ATOM      9  N   UNL     1       2.100   5.880  20.360  0.00  0.00    +0.000 N 
ATOM     10  C   UNL     1       2.733   4.711  20.074  0.00  0.00    +0.000 C 
ATOM     11  O   UNL     1       2.709   3.791  20.882  0.00  0.00    +0.000 OA
ATOM     12  N   UNL     1       3.395   4.619  18.860  0.00  0.00    +0.000 N 
ATOM     13  N   UNL     1       1.600   8.119  20.191  0.00  0.00    +0.000 NA
ATOM     14  H   UNL     1       1.728   5.967  21.291  0.00  0.00    +0.000 HD
ATOM     15  H   UNL     1       3.251   5.359  18.172  0.00  0.00    +0.000 HD
BRANCH   4  17
ATOM     16  C   UNL     1       0.861  11.431  19.065  0.00  0.00    +0.000 C 
ATOM     17  O   UNL     1       1.238  10.444  20.021  0.00  0.00    +0.000 OA
ENDBRANCH   4  17
ENDBRANCH   1  12
BRANCH   1  18
ATOM     18  C   UNL     1       5.404   4.115  17.131  0.00  0.00    +0.000 A 
ATOM     19  C   UNL     1       5.548   3.445  15.908  0.00  0.00    +0.000 A 
ATOM     20  C   UNL     1       6.345   3.967  14.888  0.00  0.00    +0.000 A 
ATOM     21  C   UNL     1       6.978   5.195  15.099  0.00  0.00    +0.000 A 
ATOM     22  C   UNL     1       6.845   5.861  16.328  0.00  0.00    +0.000 A 
ATOM     23  C   UNL     1       6.057   5.325  17.352  0.00  0.00    +0.000 A 
ATOM     24 CL   UNL     1       5.943   6.237  18.812  0.00  0.00    +0.000 Cl
BRANCH  20  25
ATOM     25  N   UNL     1       6.532   3.311  13.649  0.00  0.00    +0.000 N 
ATOM     26  C   UNL     1       5.635   3.321  12.596  0.00  0.00    +0.000 C 
ATOM     27  O   UNL     1       4.529   3.846  12.597  0.00  0.00    +0.000 OA
ATOM     28  H   UNL     1       7.338   2.710  13.561  0.00  0.00    +0.000 HD
BRANCH  26  29
ATOM     29  C   UNL     1       6.002   2.570  11.363  0.00  0.00    +0.000 C 
ATOM     30  C   UNL     1       7.263   1.797  11.094  0.00  0.00    +0.000 C 
ATOM     31  C   UNL     1       5.990   1.059  11.394  0.00  0.00    +0.000 C 
ENDBRANCH  26  29
ENDBRANCH  20  25
ENDBRANCH   1  18
TORSDOF 5
ENDMDL
MODEL 3
REMARK VINA RESULT:      -8.1      8.060     11.555
REMARK  Name = 
REMARK  6 active torsions:
REMARK  status: ('A' for Active; 'I' for Inactive)
REMARK    1  A    between atoms: C_1  and  O_2
REMARK    2  A    between atoms: O_2  and  C_3
REMARK    3  A    between atoms: N_11  and  S_12
REMARK    4  A    between atoms: S_12  and  C_15
REMARK    5  A    between atoms: C_17  and  N_18
REMARK    6  A    between atoms: C_19  and  C_21
REMARK                            x       y       z     vdW  Elec       q    Type
REMARK                         _______ _______ _______ _____ _____    ______ ____
ROOT
ATOM      1  S   UNL     1      -5.707  12.724  20.875  0.00  0.00    +0.000 S 
ATOM      2  O   UNL     1      -6.086  14.107  20.669  0.00  0.00    +0.000 OA
ATOM      3  O   UNL     1      -6.586  11.832  21.598  0.00  0.00    +0.000 OA
ENDROOT
BRANCH   1  12
ATOM      4  C   UNL     1      -3.090  10.284  15.368  0.00  0.00    +0.000 A 
ATOM      5  C   UNL     1      -2.270   9.807  16.363  0.00  0.00    +0.000 A 
ATOM      6  C   UNL     1      -2.735   9.983  17.638  0.00  0.00    +0.000 A 
ATOM      7  N   UNL     1      -3.897  10.599  17.916  0.00  0.00    +0.000 NA
ATOM      8  C   UNL     1      -4.625  11.026  16.868  0.00  0.00    +0.000 A 
ATOM      9  N   UNL     1      -5.812  11.698  17.092  0.00  0.00    +0.000 N 
ATOM     10  C   UNL     1      -6.264  12.215  18.266  0.00  0.00    +0.000 C 
ATOM     11  O   UNL     1      -7.343  12.793  18.301  0.00  0.00    +0.000 OA
ATOM     12  N   UNL     1      -5.461  12.066  19.385  0.00  0.00    +0.000 N 
ATOM     13  N   UNL     1      -4.281  10.871  15.588  0.00  0.00    +0.000 NA
ATOM     14  H   UNL     1      -6.353  11.918  16.273  0.00  0.00    +0.000 HD
ATOM     15  H   UNL     1      -4.651  11.449  19.323  0.00  0.00    +0.000 HD
BRANCH   4  17
ATOM     16  C   UNL     1      -3.643   9.833  13.137  0.00  0.00    +0.000 C 
ATOM     17  O   UNL     1      -2.620  10.143  14.078  0.00  0.00    +0.000 OA
ENDBRANCH   4  17
ENDBRANCH   1  12
BRANCH   1  18
ATOM     18  C   UNL     1      -4.110  12.720  21.627  0.00  0.00    +0.000 A 
ATOM     19  C   UNL     1      -3.026  12.293  20.846  0.00  0.00    +0.000 A 
ATOM     20  C   UNL     1      -1.728  12.278  21.359  0.00  0.00    +0.000 A 
ATOM     21  C   UNL     1      -1.522  12.730  22.666  0.00  0.00    +0.000 A 
ATOM     22  C   UNL     1      -2.607  13.145  23.453  0.00  0.00    +0.000 A 
ATOM     23  C   UNL     1      -3.908  13.143  22.938  0.00  0.00    +0.000 A 
ATOM     24 CL   UNL     1      -5.165  13.698  23.982  0.00  0.00    +0.000 Cl
BRANCH  20  25
ATOM     25  N   UNL     1      -0.613  11.834  20.610  0.00  0.00    +0.000 N 
ATOM     26  C   UNL     1      -0.132  10.537  20.584  0.00  0.00    +0.000 C 
ATOM     27  O   UNL     1      -0.558   9.598  21.244  0.00  0.00    +0.000 OA
ATOM     28  H   UNL     1      -0.068  12.537  20.132  0.00  0.00    +0.000 HD
BRANCH  26  29
ATOM     29  C   UNL     1       1.058  10.255  19.735  0.00  0.00    +0.000 C 
ATOM     30  C   UNL     1       1.525   8.925  19.212  0.00  0.00    +0.000 C 
ATOM     31  C   UNL     1       0.853   9.894  18.281  0.00  0.00    +0.000 C 
ENDBRANCH  26  29
ENDBRANCH  20  25
ENDBRANCH   1  18
TORSDOF 5
ENDMDL
MODEL 4
REMARK VINA RESULT:      -7.9      1.440      2.010
REMARK  Name = 
REMARK  6 active torsions:
REMARK  status: ('A' for Active; 'I' for Inactive)
REMARK    1  A    between atoms: C_1  and  O_2
REMARK    2  A    between atoms: O_2  and  C_3
REMARK    3  A    between atoms: N_11  and  S_12
REMARK    4  A    between atoms: S_12  and  C_15
REMARK    5  A    between atoms: C_17  and  N_18
REMARK    6  A    between atoms: C_19  and  C_21
REMARK                            x       y       z     vdW  Elec       q    Type
REMARK                         _______ _______ _______ _____ _____    ______ ____
ROOT
ATOM      1  S   UNL     1       3.491   4.286  18.432  0.00  0.00    +0.000 S 
ATOM      2  O   UNL     1       3.779   3.754  19.748  0.00  0.00    +0.000 OA
ATOM      3  O   UNL     1       2.468   3.678  17.611  0.00  0.00    +0.000 OA
ENDROOT
BRANCH   1  12
ATOM      4  C   UNL     1       0.552   9.917  20.099  0.00  0.00    +0.000 A 
ATOM      5  C   UNL     1       0.410   9.128  21.215  0.00  0.00    +0.000 A 
ATOM      6  C   UNL     1       1.145   7.973  21.212  0.00  0.00    +0.000 A 
ATOM      7  N   UNL     1       1.934   7.610  20.186  0.00  0.00    +0.000 NA
ATOM      8  C   UNL     1       2.004   8.456  19.142  0.00  0.00    +0.000 A 
ATOM      9  N   UNL     1       2.771   8.121  18.043  0.00  0.00    +0.000 N 
ATOM     10  C   UNL     1       3.311   6.908  17.747  0.00  0.00    +0.000 C 
ATOM     11  O   UNL     1       3.967   6.767  16.723  0.00  0.00    +0.000 OA
ATOM     12  N   UNL     1       3.080   5.869  18.633  0.00  0.00    +0.000 N 
ATOM     13  N   UNL     1       1.358   9.622  19.063  0.00  0.00    +0.000 NA
ATOM     14  H   UNL     1       2.852   8.828  17.332  0.00  0.00    +0.000 HD
ATOM     15  H   UNL     1       2.656   6.085  19.536  0.00  0.00    +0.000 HD
BRANCH   4  17
ATOM     16  C   UNL     1      -0.056  11.869  21.242  0.00  0.00    +0.000 C 
ATOM     17  O   UNL     1      -0.208  11.069  20.074  0.00  0.00    +0.000 OA
ENDBRANCH   4  17
ENDBRANCH   1  12
BRANCH   1  18
ATOM     18  C   UNL     1       5.013   4.338  17.538  0.00  0.00    +0.000 A 
ATOM     19  C   UNL     1       5.002   3.882  16.211  0.00  0.00    +0.000 A 
ATOM     20  C   UNL     1       6.157   3.908  15.430  0.00  0.00    +0.000 A 
ATOM     21  C   UNL     1       7.329   4.428  15.988  0.00  0.00    +0.000 A 
ATOM     22  C   UNL     1       7.345   4.872  17.319  0.00  0.00    +0.000 A 
ATOM     23  C   UNL     1       6.187   4.830  18.103  0.00  0.00    +0.000 A 
ATOM     24 CL   UNL     1       6.311   5.424  19.718  0.00  0.00    +0.000 Cl
BRANCH  20  25
ATOM     25  N   UNL     1       6.191   3.438  14.096  0.00  0.00    +0.000 N 
ATOM     26  C   UNL     1       6.801   4.085  13.036  0.00  0.00    +0.000 C 
ATOM     27  O   UNL     1       7.348   5.179  13.078  0.00  0.00    +0.000 OA
ATOM     28  H   UNL     1       5.646   2.616  13.882  0.00  0.00    +0.000 HD
BRANCH  26  29
ATOM     29  C   UNL     1       6.733   3.438  11.696  0.00  0.00    +0.000 C 
ATOM     30  C   UNL     1       7.265   2.091  11.293  0.00  0.00    +0.000 C 
ATOM     31  C   UNL     1       5.787   2.277  11.488  0.00  0.00    +0.000 C 
ENDBRANCH  26  29
ENDBRANCH  20  25
ENDBRANCH   1  18
TORSDOF 5
ENDMDL
MODEL 5
REMARK VINA RESULT:      -7.9      4.342      7.317
REMARK  Name = 
REMARK  6 active torsions:
REMARK  status: ('A' for Active; 'I' for Inactive)
REMARK    1  A    between atoms: C_1  and  O_2
REMARK    2  A    between atoms: O_2  and  C_3
REMARK    3  A    between atoms: N_11  and  S_12
REMARK    4  A    between atoms: S_12  and  C_15
REMARK    5  A    between atoms: C_17  and  N_18
REMARK    6  A    between atoms: C_19  and  C_21
REMARK                            x       y       z     vdW  Elec       q    Type
REMARK                         _______ _______ _______ _____ _____    ______ ____
ROOT
ATOM      1  S   UNL     1       7.406   5.337  18.928  0.00  0.00    +0.000 S 
ATOM      2  O   UNL     1       8.085   4.421  18.035  0.00  0.00    +0.000 OA
ATOM      3  O   UNL     1       7.656   5.280  20.352  0.00  0.00    +0.000 OA
ENDROOT
BRANCH   1  12
ATOM      4  C   UNL     1       8.797  11.746  18.596  0.00  0.00    +0.000 A 
ATOM      5  C   UNL     1       9.455  11.324  19.725  0.00  0.00    +0.000 A 
ATOM      6  C   UNL     1       9.517   9.967  19.894  0.00  0.00    +0.000 A 
ATOM      7  N   UNL     1       8.955   9.096  19.036  0.00  0.00    +0.000 NA
ATOM      8  C   UNL     1       8.337   9.615  17.960  0.00  0.00    +0.000 A 
ATOM      9  N   UNL     1       7.711   8.772  17.062  0.00  0.00    +0.000 N 
ATOM     10  C   UNL     1       7.418   7.454  17.227  0.00  0.00    +0.000 C 
ATOM     11  O   UNL     1       6.850   6.839  16.332  0.00  0.00    +0.000 OA
ATOM     12  N   UNL     1       7.777   6.861  18.427  0.00  0.00    +0.000 N 
ATOM     13  N   UNL     1       8.253  10.919  17.684  0.00  0.00    +0.000 NA
ATOM     14  H   UNL     1       7.339   9.209  16.235  0.00  0.00    +0.000 HD
ATOM     15  H   UNL     1       8.377   7.384  19.066  0.00  0.00    +0.000 HD
BRANCH   4  17
ATOM     16  C   UNL     1       7.704  13.494  17.482  0.00  0.00    +0.000 C 
ATOM     17  O   UNL     1       8.698  13.113  18.429  0.00  0.00    +0.000 OA
ENDBRANCH   4  17
ENDBRANCH   1  12
BRANCH   1  18
ATOM     18  C   UNL     1       5.674   5.184  18.626  0.00  0.00    +0.000 A 
ATOM     19  C   UNL     1       4.799   5.784  19.544  0.00  0.00    +0.000 A 
ATOM     20  C   UNL     1       3.416   5.726  19.367  0.00  0.00    +0.000 A 
ATOM     21  C   UNL     1       2.915   5.081  18.233  0.00  0.00    +0.000 A 
ATOM     22  C   UNL     1       3.788   4.469  17.320  0.00  0.00    +0.000 A 
ATOM     23  C   UNL     1       5.173   4.517  17.511  0.00  0.00    +0.000 A 
ATOM     24 CL   UNL     1       6.156   3.754  16.315  0.00  0.00    +0.000 Cl
BRANCH  20  25
ATOM     25  N   UNL     1       2.502   6.300  20.282  0.00  0.00    +0.000 N 
ATOM     26  C   UNL     1       1.921   7.549  20.153  0.00  0.00    +0.000 C 
ATOM     27  O   UNL     1       2.151   8.364  19.269  0.00  0.00    +0.000 OA
ATOM     28  H   UNL     1       2.334   5.801  21.143  0.00  0.00    +0.000 HD
BRANCH  26  29
ATOM     29  C   UNL     1       0.979   7.989  21.219  0.00  0.00    +0.000 C 
ATOM     30  C   UNL     1       1.026   9.255  22.029  0.00  0.00    +0.000 C 
ATOM     31  C   UNL     1       0.014   9.116  20.928  0.00  0.00    +0.000 C 
ENDBRANCH  26  29
ENDBRANCH  20  25
ENDBRANCH   1  18
TORSDOF 5
ENDMDL
MODEL 6
REMARK VINA RESULT:      -7.7      2.736      4.490
REMARK  Name = 
REMARK  6 active torsions:
REMARK  status: ('A' for Active; 'I' for Inactive)
REMARK    1  A    between atoms: C_1  and  O_2
REMARK    2  A    between atoms: O_2  and  C_3
REMARK    3  A    between atoms: N_11  and  S_12
REMARK    4  A    between atoms: S_12  and  C_15
REMARK    5  A    between atoms: C_17  and  N_18
REMARK    6  A    between atoms: C_19  and  C_21
REMARK                            x       y       z     vdW  Elec       q    Type
REMARK                         _______ _______ _______ _____ _____    ______ ____
ROOT
ATOM      1  S   UNL     1       4.383   3.967  18.536  0.00  0.00    +0.000 S 
ATOM      2  O   UNL     1       5.160   3.548  19.684  0.00  0.00    +0.000 OA
ATOM      3  O   UNL     1       3.604   2.998  17.796  0.00  0.00    +0.000 OA
ENDROOT
BRANCH   1  12
ATOM      4  C   UNL     1       1.273   9.628  19.715  0.00  0.00    +0.000 A 
ATOM      5  C   UNL     1       1.657   9.731  18.400  0.00  0.00    +0.000 A 
ATOM      6  C   UNL     1       2.126   8.576  17.836  0.00  0.00    +0.000 A 
ATOM      7  N   UNL     1       2.234   7.420  18.515  0.00  0.00    +0.000 NA
ATOM      8  C   UNL     1       1.827   7.427  19.798  0.00  0.00    +0.000 A 
ATOM      9  N   UNL     1       1.946   6.279  20.557  0.00  0.00    +0.000 N 
ATOM     10  C   UNL     1       2.652   5.156  20.258  0.00  0.00    +0.000 C 
ATOM     11  O   UNL     1       2.665   4.217  21.043  0.00  0.00    +0.000 OA
ATOM     12  N   UNL     1       3.344   5.133  19.057  0.00  0.00    +0.000 N 
ATOM     13  N   UNL     1       1.320   8.489  20.430  0.00  0.00    +0.000 NA
ATOM     14  H   UNL     1       1.549   6.321  21.481  0.00  0.00    +0.000 HD
ATOM     15  H   UNL     1       3.173   5.880  18.384  0.00  0.00    +0.000 HD
BRANCH   4  17
ATOM     16  C   UNL     1       0.605  11.848  19.376  0.00  0.00    +0.000 C 
ATOM     17  O   UNL     1       0.827  10.793  20.307  0.00  0.00    +0.000 OA
ENDBRANCH   4  17
ENDBRANCH   1  12
BRANCH   1  18
ATOM     18  C   UNL     1       5.476   4.811  17.437  0.00  0.00    +0.000 A 
ATOM     19  C   UNL     1       5.876   6.109  17.788  0.00  0.00    +0.000 A 
ATOM     20  C   UNL     1       6.754   6.836  16.984  0.00  0.00    +0.000 A 
ATOM     21  C   UNL     1       7.257   6.232  15.828  0.00  0.00    +0.000 A 
ATOM     22  C   UNL     1       6.848   4.938  15.468  0.00  0.00    +0.000 A 
ATOM     23  C   UNL     1       5.955   4.219  16.270  0.00  0.00    +0.000 A 
ATOM     24 CL   UNL     1       5.539   2.628  15.748  0.00  0.00    +0.000 Cl
BRANCH  20  25
ATOM     25  N   UNL     1       7.163   8.155  17.294  0.00  0.00    +0.000 N 
ATOM     26  C   UNL     1       8.141   8.493  18.211  0.00  0.00    +0.000 C 
ATOM     27  O   UNL     1       8.754   7.716  18.930  0.00  0.00    +0.000 OA
ATOM     28  H   UNL     1       6.634   8.911  16.884  0.00  0.00    +0.000 HD
BRANCH  26  29
ATOM     29  C   UNL     1       8.438   9.940  18.407  0.00  0.00    +0.000 C 
ATOM     30  C   UNL     1       9.428  10.559  19.353  0.00  0.00    +0.000 C 
ATOM     31  C   UNL     1       9.743  10.498  17.886  0.00  0.00    +0.000 C 
ENDBRANCH  26  29
ENDBRANCH  20  25
ENDBRANCH   1  18
TORSDOF 5
ENDMDL
MODEL 7
REMARK VINA RESULT:      -7.7      8.870     12.074
REMARK  Name = 
REMARK  6 active torsions:
REMARK  status: ('A' for Active; 'I' for Inactive)
REMARK    1  A    between atoms: C_1  and  O_2
REMARK    2  A    between atoms: O_2  and  C_3
REMARK    3  A    between atoms: N_11  and  S_12
REMARK    4  A    between atoms: S_12  and  C_15
REMARK    5  A    between atoms: C_17  and  N_18
REMARK    6  A    between atoms: C_19  and  C_21
REMARK                            x       y       z     vdW  Elec       q    Type
REMARK                         _______ _______ _______ _____ _____    ______ ____
ROOT
ATOM      1  S   UNL     1      -5.666  13.829  20.439  0.00  0.00    +0.000 S 
ATOM      2  O   UNL     1      -5.411  15.205  20.064  0.00  0.00    +0.000 OA
ATOM      3  O   UNL     1      -6.953  13.451  20.980  0.00  0.00    +0.000 OA
ENDROOT
BRANCH   1  12
ATOM      4  C   UNL     1      -3.024  10.369  15.522  0.00  0.00    +0.000 A 
ATOM      5  C   UNL     1      -2.244  10.048  16.608  0.00  0.00    +0.000 A 
ATOM      6  C   UNL     1      -2.729  10.462  17.819  0.00  0.00    +0.000 A 
ATOM      7  N   UNL     1      -3.874  11.156  17.951  0.00  0.00    +0.000 NA
ATOM      8  C   UNL     1      -4.562  11.415  16.825  0.00  0.00    +0.000 A 
ATOM      9  N   UNL     1      -5.727  12.154  16.894  0.00  0.00    +0.000 N 
ATOM     10  C   UNL     1      -6.185  12.886  17.945  0.00  0.00    +0.000 C 
ATOM     11  O   UNL     1      -7.242  13.497  17.849  0.00  0.00    +0.000 OA
ATOM     12  N   UNL     1      -5.412  12.910  19.095  0.00  0.00    +0.000 N 
ATOM     13  N   UNL     1      -4.196  11.025  15.602  0.00  0.00    +0.000 NA
ATOM     14  H   UNL     1      -6.242  12.245  16.034  0.00  0.00    +0.000 HD
ATOM     15  H   UNL     1      -4.625  12.265  19.165  0.00  0.00    +0.000 HD
BRANCH   4  17
ATOM     16  C   UNL     1      -3.543   9.847  13.298  0.00  0.00    +0.000 C 
ATOM     17  O   UNL     1      -2.531   9.987  14.291  0.00  0.00    +0.000 OA
ENDBRANCH   4  17
ENDBRANCH   1  12
BRANCH   1  18
ATOM     18  C   UNL     1      -4.389  13.339  21.554  0.00  0.00    +0.000 A 
ATOM     19  C   UNL     1      -3.298  12.635  21.023  0.00  0.00    +0.000 A 
ATOM     20  C   UNL     1      -2.237  12.229  21.833  0.00  0.00    +0.000 A 
ATOM     21  C   UNL     1      -2.266  12.566  23.190  0.00  0.00    +0.000 A 
ATOM     22  C   UNL     1      -3.363  13.259  23.725  0.00  0.00    +0.000 A 
ATOM     23  C   UNL     1      -4.431  13.650  22.911  0.00  0.00    +0.000 A 
ATOM     24 CL   UNL     1      -5.716  14.520  23.666  0.00  0.00    +0.000 Cl
BRANCH  20  25
ATOM     25  N   UNL     1      -1.131  11.499  21.339  0.00  0.00    +0.000 N 
ATOM     26  C   UNL     1      -0.181  11.986  20.458  0.00  0.00    +0.000 C 
ATOM     27  O   UNL     1      -0.186  13.091  19.932  0.00  0.00    +0.000 OA
ATOM     28  H   UNL     1      -1.083  10.518  21.572  0.00  0.00    +0.000 HD
BRANCH  26  29
ATOM     29  C   UNL     1       0.917  11.069  20.045  0.00  0.00    +0.000 C 
ATOM     30  C   UNL     1       0.838   9.590  19.787  0.00  0.00    +0.000 C 
ATOM     31  C   UNL     1       0.940  10.541  18.629  0.00  0.00    +0.000 C 
ENDBRANCH  26  29
ENDBRANCH  20  25
ENDBRANCH   1  18
TORSDOF 5
ENDMDL
MODEL 8
REMARK VINA RESULT:      -7.7      3.221      7.319
REMARK  Name = 
REMARK  6 active torsions:
REMARK  status: ('A' for Active; 'I' for Inactive)
REMARK    1  A    between atoms: C_1  and  O_2
REMARK    2  A    between atoms: O_2  and  C_3
REMARK    3  A    between atoms: N_11  and  S_12
REMARK    4  A    between atoms: S_12  and  C_15
REMARK    5  A    between atoms: C_17  and  N_18
REMARK    6  A    between atoms: C_19  and  C_21
REMARK                            x       y       z     vdW  Elec       q    Type
REMARK                         _______ _______ _______ _____ _____    ______ ____
ROOT
ATOM      1  S   UNL     1       4.366   2.609  19.194  0.00  0.00    +0.000 S 
ATOM      2  O   UNL     1       4.087   1.578  18.216  0.00  0.00    +0.000 OA
ATOM      3  O   UNL     1       5.137   2.295  20.377  0.00  0.00    +0.000 OA
ENDROOT
BRANCH   1  12
ATOM      4  C   UNL     1       7.791   7.989  17.630  0.00  0.00    +0.000 A 
ATOM      5  C   UNL     1       8.429   7.505  18.747  0.00  0.00    +0.000 A 
ATOM      6  C   UNL     1       8.049   6.250  19.140  0.00  0.00    +0.000 A 
ATOM      7  N   UNL     1       7.101   5.539  18.503  0.00  0.00    +0.000 NA
ATOM      8  C   UNL     1       6.541   6.104  17.418  0.00  0.00    +0.000 A 
ATOM      9  N   UNL     1       5.538   5.436  16.744  0.00  0.00    +0.000 N 
ATOM     10  C   UNL     1       4.841   4.345  17.161  0.00  0.00    +0.000 C 
ATOM     11  O   UNL     1       3.970   3.868  16.445  0.00  0.00    +0.000 OA
ATOM     12  N   UNL     1       5.154   3.820  18.404  0.00  0.00    +0.000 N 
ATOM     13  N   UNL     1       6.866   7.304  16.932  0.00  0.00    +0.000 NA
ATOM     14  H   UNL     1       5.216   5.870  15.894  0.00  0.00    +0.000 HD
ATOM     15  H   UNL     1       5.986   4.168  18.883  0.00  0.00    +0.000 HD
BRANCH   4  17
ATOM     16  C   UNL     1       8.796  10.007  18.266  0.00  0.00    +0.000 C 
ATOM     17  O   UNL     1       8.140   9.267  17.241  0.00  0.00    +0.000 OA
ENDBRANCH   4  17
ENDBRANCH   1  12
BRANCH   1  18
ATOM     18  C   UNL     1       2.822   3.322  19.666  0.00  0.00    +0.000 A 
ATOM     19  C   UNL     1       2.851   4.583  20.281  0.00  0.00    +0.000 A 
ATOM     20  C   UNL     1       1.673   5.225  20.666  0.00  0.00    +0.000 A 
ATOM     21  C   UNL     1       0.453   4.598  20.399  0.00  0.00    +0.000 A 
ATOM     22  C   UNL     1       0.423   3.331  19.796  0.00  0.00    +0.000 A 
ATOM     23  C   UNL     1       1.608   2.685  19.426  0.00  0.00    +0.000 A 
ATOM     24 CL   UNL     1       1.456   1.142  18.669  0.00  0.00    +0.000 Cl
BRANCH  20  25
ATOM     25  N   UNL     1       1.663   6.486  21.307  0.00  0.00    +0.000 N 
ATOM     26  C   UNL     1       1.667   7.710  20.662  0.00  0.00    +0.000 C 
ATOM     27  O   UNL     1       1.739   7.888  19.453  0.00  0.00    +0.000 OA
ATOM     28  H   UNL     1       1.756   6.495  22.312  0.00  0.00    +0.000 HD
BRANCH  26  29
ATOM     29  C   UNL     1       1.654   8.939  21.505  0.00  0.00    +0.000 C 
ATOM     30  C   UNL     1       0.866  10.200  21.287  0.00  0.00    +0.000 C 
ATOM     31  C   UNL     1       0.440   9.233  22.355  0.00  0.00    +0.000 C 
ENDBRANCH  26  29
ENDBRANCH  20  25
ENDBRANCH   1  18
TORSDOF 5
ENDMDL
MODEL 9
REMARK VINA RESULT:      -7.6      2.230      7.165
REMARK  Name = 
REMARK  6 active torsions:
REMARK  status: ('A' for Active; 'I' for Inactive)
REMARK    1  A    between atoms: C_1  and  O_2
REMARK    2  A    between atoms: O_2  and  C_3
REMARK    3  A    between atoms: N_11  and  S_12
REMARK    4  A    between atoms: S_12  and  C_15
REMARK    5  A    between atoms: C_17  and  N_18
REMARK    6  A    between atoms: C_19  and  C_21
REMARK                            x       y       z     vdW  Elec       q    Type
REMARK                         _______ _______ _______ _____ _____    ______ ____
ROOT
ATOM      1  S   UNL     1       4.318   2.600  18.909  0.00  0.00    +0.000 S 
ATOM      2  O   UNL     1       3.573   1.667  18.088  0.00  0.00    +0.000 OA
ATOM      3  O   UNL     1       5.248   2.109  19.902  0.00  0.00    +0.000 OA
ENDROOT
BRANCH   1  12
ATOM      4  C   UNL     1       7.581   5.120  13.797  0.00  0.00    +0.000 A 
ATOM      5  C   UNL     1       6.563   4.402  13.217  0.00  0.00    +0.000 A 
ATOM      6  C   UNL     1       5.593   3.964  14.077  0.00  0.00    +0.000 A 
ATOM      7  N   UNL     1       5.632   4.189  15.403  0.00  0.00    +0.000 NA
ATOM      8  C   UNL     1       6.672   4.905  15.867  0.00  0.00    +0.000 A 
ATOM      9  N   UNL     1       6.785   5.139  17.224  0.00  0.00    +0.000 N 
ATOM     10  C   UNL     1       6.097   4.537  18.231  0.00  0.00    +0.000 C 
ATOM     11  O   UNL     1       6.317   4.852  19.394  0.00  0.00    +0.000 OA
ATOM     12  N   UNL     1       5.166   3.571  17.883  0.00  0.00    +0.000 N 
ATOM     13  N   UNL     1       7.649   5.410  15.110  0.00  0.00    +0.000 NA
ATOM     14  H   UNL     1       7.535   5.750  17.503  0.00  0.00    +0.000 HD
ATOM     15  H   UNL     1       4.923   3.463  16.899  0.00  0.00    +0.000 HD
BRANCH   4  17
ATOM     16  C   UNL     1       8.094   6.191  11.778  0.00  0.00    +0.000 C 
ATOM     17  O   UNL     1       8.583   5.541  12.947  0.00  0.00    +0.000 OA
ENDBRANCH   4  17
ENDBRANCH   1  12
BRANCH   1  18
ATOM     18  C   UNL     1       3.151   3.680  19.674  0.00  0.00    +0.000 A 
ATOM     19  C   UNL     1       2.849   4.881  19.016  0.00  0.00    +0.000 A 
ATOM     20  C   UNL     1       1.922   5.781  19.544  0.00  0.00    +0.000 A 
ATOM     21  C   UNL     1       1.272   5.446  20.735  0.00  0.00    +0.000 A 
ATOM     22  C   UNL     1       1.582   4.250  21.402  0.00  0.00    +0.000 A 
ATOM     23  C   UNL     1       2.523   3.360  20.876  0.00  0.00    +0.000 A 
ATOM     24 CL   UNL     1       2.810   1.908  21.763  0.00  0.00    +0.000 Cl
BRANCH  20  25
ATOM     25  N   UNL     1       1.608   7.011  18.921  0.00  0.00    +0.000 N 
ATOM     26  C   UNL     1       2.473   7.755  18.139  0.00  0.00    +0.000 C 
ATOM     27  O   UNL     1       3.648   7.495  17.917  0.00  0.00    +0.000 OA
ATOM     28  H   UNL     1       0.714   7.426  19.141  0.00  0.00    +0.000 HD
BRANCH  26  29
ATOM     29  C   UNL     1       1.965   9.031  17.563  0.00  0.00    +0.000 C 
ATOM     30  C   UNL     1       0.718   9.783  17.939  0.00  0.00    +0.000 C 
ATOM     31  C   UNL     1       2.057  10.297  18.385  0.00  0.00    +0.000 C 
ENDBRANCH  26  29
ENDBRANCH  20  25
ENDBRANCH   1  18
TORSDOF 5
ENDMDL
