MODEL 1
REMARK VINA RESULT:      -8.2      0.000      0.000
REMARK  Name = 
REMARK  3 active torsions:
REMARK  status: ('A' for Active; 'I' for Inactive)
REMARK    1  A    between atoms: C_2  and  C_4
REMARK    2  A    between atoms: C_7  and  N_8
REMARK    3  A    between atoms: N_11  and  C_12
REMARK                            x       y       z     vdW  Elec       q    Type
REMARK                         _______ _______ _______ _____ _____    ______ ____
ROOT
ATOM      1  C   UNL     1       5.261   5.161  16.876  0.00  0.00    +0.000 A 
ATOM      2  C   UNL     1       5.360   6.543  17.045  0.00  0.00    +0.000 A 
ATOM      3  C   UNL     1       4.338   7.243  17.674  0.00  0.00    +0.000 A 
ATOM      4  C   UNL     1       3.161   6.603  18.103  0.00  0.00    +0.000 A 
ATOM      5  C   UNL     1       3.062   5.188  17.854  0.00  0.00    +0.000 A 
ATOM      6  C   UNL     1       1.928   4.400  18.085  0.00  0.00    +0.000 A 
ATOM      7  N   UNL     1       1.831   3.066  17.923  0.00  0.00    +0.000 NA
ATOM      8  C   UNL     1       2.923   2.477  17.456  0.00  0.00    +0.000 A 
ATOM      9  N   UNL     1       4.058   3.109  17.122  0.00  0.00    +0.000 NA
ATOM     10  C   UNL     1       4.128   4.453  17.289  0.00  0.00    +0.000 A 
ENDROOT
BRANCH   4  11
ATOM     11  N   UNL     1       2.206   7.358  18.768  0.00  0.00    +0.000 N 
ATOM     12  C   UNL     1       1.745   7.068  20.143  0.00  0.00    +0.000 C 
ATOM     13  C   UNL     1       1.726   8.328  21.032  0.00  0.00    +0.000 C 
ATOM     14  N   UNL     1       0.989   9.407  20.365  0.00  0.00    +0.000 N 
ATOM     15  C   UNL     1       1.500   9.742  19.024  0.00  0.00    +0.000 C 
ATOM     16  C   UNL     1       1.493   8.487  18.121  0.00  0.00    +0.000 C 
BRANCH  14  17
ATOM     17  C   UNL     1       0.049  10.169  21.021  0.00  0.00    +0.000 A 
ATOM     18  C   UNL     1      -0.641  11.210  20.381  0.00  0.00    +0.000 A 
ATOM     19  C   UNL     1      -1.564  12.014  21.062  0.00  0.00    +0.000 A 
ATOM     20  C   UNL     1      -1.809  11.786  22.409  0.00  0.00    +0.000 A 
ATOM     21 CL   UNL     1      -2.935  12.774  23.255  0.00  0.00    +0.000 Cl
ATOM     22  C   UNL     1      -1.145  10.765  23.076  0.00  0.00    +0.000 A 
ATOM     23  C   UNL     1      -0.227   9.969  22.383  0.00  0.00    +0.000 A 
ENDBRANCH  14  17
ENDBRANCH   4  11
BRANCH   1  25
ATOM     24  N   UNL     1       6.163   3.777  15.075  0.00  0.00    +0.000 N 
ATOM     25  C   UNL     1       6.415   4.505  16.201  0.00  0.00    +0.000 C 
ATOM     26  O   UNL     1       7.552   4.596  16.651  0.00  0.00    +0.000 OA
ATOM     27  H   UNL     1       6.959   3.467  14.535  0.00  0.00    +0.000 HD
ATOM     28  H   UNL     1       5.277   3.905  14.596  0.00  0.00    +0.000 HD
ENDBRANCH   1  25
TORSDOF 3
ENDMDL
MODEL 2
REMARK VINA RESULT:      -7.9      1.526      1.627
REMARK  Name = 
REMARK  3 active torsions:
REMARK  status: ('A' for Active; 'I' for Inactive)
REMARK    1  A    between atoms: C_2  and  C_4
REMARK    2  A    between atoms: C_7  and  N_8
REMARK    3  A    between atoms: N_11  and  C_12
REMARK                            x       y       z     vdW  Elec       q    Type
REMARK                         _______ _______ _______ _____ _____    ______ ____
ROOT
ATOM      1  C   UNL     1       5.872   5.349  17.615  0.00  0.00    +0.000 A 
ATOM      2  C   UNL     1       5.630   6.607  17.061  0.00  0.00    +0.000 A 
ATOM      3  C   UNL     1       4.490   7.317  17.414  0.00  0.00    +0.000 A 
ATOM      4  C   UNL     1       3.525   6.777  18.285  0.00  0.00    +0.000 A 
ATOM      5  C   UNL     1       3.772   5.450  18.787  0.00  0.00    +0.000 A 
ATOM      6  C   UNL     1       2.878   4.693  19.554  0.00  0.00    +0.000 A 
ATOM      7  N   UNL     1       3.110   3.479  20.091  0.00  0.00    +0.000 NA
ATOM      8  C   UNL     1       4.297   2.960  19.810  0.00  0.00    +0.000 A 
ATOM      9  N   UNL     1       5.226   3.534  19.032  0.00  0.00    +0.000 NA
ATOM     10  C   UNL     1       4.966   4.753  18.499  0.00  0.00    +0.000 A 
ENDROOT
BRANCH   4  11
ATOM     11  N   UNL     1       2.437   7.564  18.631  0.00  0.00    +0.000 N 
ATOM     12  C   UNL     1       1.780   7.517  19.955  0.00  0.00    +0.000 C 
ATOM     13  C   UNL     1       1.551   8.922  20.547  0.00  0.00    +0.000 C 
ATOM     14  N   UNL     1       0.872   9.779  19.568  0.00  0.00    +0.000 N 
ATOM     15  C   UNL     1       1.570   9.882  18.274  0.00  0.00    +0.000 C 
ATOM     16  C   UNL     1       1.774   8.475  17.665  0.00  0.00    +0.000 C 
BRANCH  14  17
ATOM     17  C   UNL     1      -0.201  10.572  19.906  0.00  0.00    +0.000 A 
ATOM     18  C   UNL     1      -1.189  10.924  18.972  0.00  0.00    +0.000 A 
ATOM     19  C   UNL     1      -2.254  11.769  19.307  0.00  0.00    +0.000 A 
ATOM     20  C   UNL     1      -2.346  12.282  20.593  0.00  0.00    +0.000 A 
ATOM     21 CL   UNL     1      -3.647  13.326  21.009  0.00  0.00    +0.000 Cl
ATOM     22  C   UNL     1      -1.387  11.956  21.543  0.00  0.00    +0.000 A 
ATOM     23  C   UNL     1      -0.329  11.109  21.197  0.00  0.00    +0.000 A 
ENDBRANCH  14  17
ENDBRANCH   4  11
BRANCH   1  25
ATOM     24  N   UNL     1       7.988   4.249  18.149  0.00  0.00    +0.000 N 
ATOM     25  C   UNL     1       7.128   4.677  17.181  0.00  0.00    +0.000 C 
ATOM     26  O   UNL     1       7.393   4.531  15.993  0.00  0.00    +0.000 OA
ATOM     27  H   UNL     1       8.755   3.659  17.860  0.00  0.00    +0.000 HD
ATOM     28  H   UNL     1       7.650   4.167  19.103  0.00  0.00    +0.000 HD
ENDBRANCH   1  25
TORSDOF 3
ENDMDL
MODEL 3
REMARK VINA RESULT:      -7.7      1.017      1.017
REMARK  Name = 
REMARK  3 active torsions:
REMARK  status: ('A' for Active; 'I' for Inactive)
REMARK    1  A    between atoms: C_2  and  C_4
REMARK    2  A    between atoms: C_7  and  N_8
REMARK    3  A    between atoms: N_11  and  C_12
REMARK                            x       y       z     vdW  Elec       q    Type
REMARK                         _______ _______ _______ _____ _____    ______ ____
ROOT
ATOM      1  C   UNL     1       5.223   5.220  17.322  0.00  0.00    +0.000 A 
ATOM      2  C   UNL     1       4.889   6.496  16.866  0.00  0.00    +0.000 A 
ATOM      3  C   UNL     1       3.861   7.206  17.473  0.00  0.00    +0.000 A 
ATOM      4  C   UNL     1       3.095   6.650  18.514  0.00  0.00    +0.000 A 
ATOM      5  C   UNL     1       3.422   5.306  18.916  0.00  0.00    +0.000 A 
ATOM      6  C   UNL     1       2.700   4.535  19.835  0.00  0.00    +0.000 A 
ATOM      7  N   UNL     1       3.022   3.303  20.277  0.00  0.00    +0.000 NA
ATOM      8  C   UNL     1       4.113   2.781  19.736  0.00  0.00    +0.000 A 
ATOM      9  N   UNL     1       4.865   3.370  18.794  0.00  0.00    +0.000 NA
ATOM     10  C   UNL     1       4.517   4.606  18.362  0.00  0.00    +0.000 A 
ENDROOT
BRANCH   4  11
ATOM     11  N   UNL     1       2.118   7.436  19.105  0.00  0.00    +0.000 N 
ATOM     12  C   UNL     1       1.614   7.223  20.479  0.00  0.00    +0.000 C 
ATOM     13  C   UNL     1       1.564   8.530  21.295  0.00  0.00    +0.000 C 
ATOM     14  N   UNL     1       0.846   9.567  20.545  0.00  0.00    +0.000 N 
ATOM     15  C   UNL     1       1.397   9.828  19.204  0.00  0.00    +0.000 C 
ATOM     16  C   UNL     1       1.422   8.524  18.373  0.00  0.00    +0.000 C 
BRANCH  14  17
ATOM     17  C   UNL     1      -0.116  10.361  21.127  0.00  0.00    +0.000 A 
ATOM     18  C   UNL     1      -0.819  11.333  20.398  0.00  0.00    +0.000 A 
ATOM     19  C   UNL     1      -1.765  12.170  21.002  0.00  0.00    +0.000 A 
ATOM     20  C   UNL     1      -2.022  12.047  22.361  0.00  0.00    +0.000 A 
ATOM     21 CL   UNL     1      -3.176  13.077  23.112  0.00  0.00    +0.000 Cl
ATOM     22  C   UNL     1      -1.345  11.097  23.114  0.00  0.00    +0.000 A 
ATOM     23  C   UNL     1      -0.405  10.265  22.498  0.00  0.00    +0.000 A 
ENDBRANCH  14  17
ENDBRANCH   4  11
BRANCH   1  25
ATOM     24  N   UNL     1       6.063   3.430  15.885  0.00  0.00    +0.000 N 
ATOM     25  C   UNL     1       6.347   4.550  16.611  0.00  0.00    +0.000 C 
ATOM     26  O   UNL     1       7.495   4.974  16.691  0.00  0.00    +0.000 OA
ATOM     27  H   UNL     1       6.790   3.072  15.282  0.00  0.00    +0.000 HD
ATOM     28  H   UNL     1       5.097   3.235  15.643  0.00  0.00    +0.000 HD
ENDBRANCH   1  25
TORSDOF 3
ENDMDL
MODEL 4
REMARK VINA RESULT:      -7.7      1.754      2.008
REMARK  Name = 
REMARK  3 active torsions:
REMARK  status: ('A' for Active; 'I' for Inactive)
REMARK    1  A    between atoms: C_2  and  C_4
REMARK    2  A    between atoms: C_7  and  N_8
REMARK    3  A    between atoms: N_11  and  C_12
REMARK                            x       y       z     vdW  Elec       q    Type
REMARK                         _______ _______ _______ _____ _____    ______ ____
ROOT
ATOM      1  C   UNL     1       4.238   5.325  18.076  0.00  0.00    +0.000 A 
ATOM      2  C   UNL     1       4.100   6.617  17.566  0.00  0.00    +0.000 A 
ATOM      3  C   UNL     1       3.218   7.510  18.160  0.00  0.00    +0.000 A 
ATOM      4  C   UNL     1       2.404   7.133  19.243  0.00  0.00    +0.000 A 
ATOM      5  C   UNL     1       2.522   5.773  19.703  0.00  0.00    +0.000 A 
ATOM      6  C   UNL     1       1.713   5.171  20.675  0.00  0.00    +0.000 A 
ATOM      7  N   UNL     1       1.845   3.924  21.169  0.00  0.00    +0.000 NA
ATOM      8  C   UNL     1       2.822   3.209  20.631  0.00  0.00    +0.000 A 
ATOM      9  N   UNL     1       3.631   3.625  19.644  0.00  0.00    +0.000 NA
ATOM     10  C   UNL     1       3.474   4.881  19.160  0.00  0.00    +0.000 A 
ENDROOT
BRANCH   4  11
ATOM     11  N   UNL     1       1.584   8.093  19.816  0.00  0.00    +0.000 N 
ATOM     12  C   UNL     1       1.091   8.024  21.209  0.00  0.00    +0.000 C 
ATOM     13  C   UNL     1       1.276   9.356  21.963  0.00  0.00    +0.000 C 
ATOM     14  N   UNL     1       0.714  10.463  21.180  0.00  0.00    +0.000 N 
ATOM     15  C   UNL     1       1.264  10.572  19.817  0.00  0.00    +0.000 C 
ATOM     16  C   UNL     1       1.053   9.247  19.049  0.00  0.00    +0.000 C 
BRANCH  14  17
ATOM     17  C   UNL     1      -0.090  11.427  21.744  0.00  0.00    +0.000 A 
ATOM     18  C   UNL     1       0.111  12.795  21.504  0.00  0.00    +0.000 A 
ATOM     19  C   UNL     1      -0.680  13.776  22.115  0.00  0.00    +0.000 A 
ATOM     20  C   UNL     1      -1.693  13.398  22.985  0.00  0.00    +0.000 A 
ATOM     21 CL   UNL     1      -2.663  14.597  23.745  0.00  0.00    +0.000 Cl
ATOM     22  C   UNL     1      -1.920  12.054  23.247  0.00  0.00    +0.000 A 
ATOM     23  C   UNL     1      -1.124  11.083  22.629  0.00  0.00    +0.000 A 
ENDBRANCH  14  17
ENDBRANCH   4  11
BRANCH   1  25
ATOM     24  N   UNL     1       6.333   4.067  18.062  0.00  0.00    +0.000 N 
ATOM     25  C   UNL     1       5.218   4.450  17.375  0.00  0.00    +0.000 C 
ATOM     26  O   UNL     1       5.044   4.101  16.213  0.00  0.00    +0.000 OA
ATOM     27  H   UNL     1       6.912   3.352  17.643  0.00  0.00    +0.000 HD
ATOM     28  H   UNL     1       6.345   4.166  19.072  0.00  0.00    +0.000 HD
ENDBRANCH   1  25
TORSDOF 3
ENDMDL
MODEL 5
REMARK VINA RESULT:      -7.7      1.352      1.644
REMARK  Name = 
REMARK  3 active torsions:
REMARK  status: ('A' for Active; 'I' for Inactive)
REMARK    1  A    between atoms: C_2  and  C_4
REMARK    2  A    between atoms: C_7  and  N_8
REMARK    3  A    between atoms: N_11  and  C_12
REMARK                            x       y       z     vdW  Elec       q    Type
REMARK                         _______ _______ _______ _____ _____    ______ ____
ROOT
ATOM      1  C   UNL     1       5.108   5.277  17.690  0.00  0.00    +0.000 A 
ATOM      2  C   UNL     1       4.852   6.565  17.216  0.00  0.00    +0.000 A 
ATOM      3  C   UNL     1       3.820   7.317  17.763  0.00  0.00    +0.000 A 
ATOM      4  C   UNL     1       2.974   6.794  18.758  0.00  0.00    +0.000 A 
ATOM      5  C   UNL     1       3.223   5.440  19.179  0.00  0.00    +0.000 A 
ATOM      6  C   UNL     1       2.419   4.700  20.055  0.00  0.00    +0.000 A 
ATOM      7  N   UNL     1       2.665   3.458  20.515  0.00  0.00    +0.000 NA
ATOM      8  C   UNL     1       3.764   2.891  20.037  0.00  0.00    +0.000 A 
ATOM      9  N   UNL     1       4.592   3.446  19.140  0.00  0.00    +0.000 NA
ATOM     10  C   UNL     1       4.319   4.695  18.688  0.00  0.00    +0.000 A 
ENDROOT
BRANCH   4  11
ATOM     11  N   UNL     1       1.997   7.621  19.292  0.00  0.00    +0.000 N 
ATOM     12  C   UNL     1       1.467   7.481  20.666  0.00  0.00    +0.000 C 
ATOM     13  C   UNL     1       1.420   8.827  21.416  0.00  0.00    +0.000 C 
ATOM     14  N   UNL     1       0.729   9.836  20.604  0.00  0.00    +0.000 N 
ATOM     15  C   UNL     1       1.308  10.024  19.262  0.00  0.00    +0.000 C 
ATOM     16  C   UNL     1       1.329   8.681  18.496  0.00  0.00    +0.000 C 
BRANCH  14  17
ATOM     17  C   UNL     1      -0.233  10.669  21.129  0.00  0.00    +0.000 A 
ATOM     18  C   UNL     1      -0.552  10.667  22.496  0.00  0.00    +0.000 A 
ATOM     19  C   UNL     1      -1.563  11.483  23.019  0.00  0.00    +0.000 A 
ATOM     20  C   UNL     1      -2.278  12.319  22.173  0.00  0.00    +0.000 A 
ATOM     21 CL   UNL     1      -3.526  13.317  22.808  0.00  0.00    +0.000 Cl
ATOM     22  C   UNL     1      -1.990  12.347  20.815  0.00  0.00    +0.000 A 
ATOM     23  C   UNL     1      -0.977  11.529  20.305  0.00  0.00    +0.000 A 
ENDBRANCH  14  17
ENDBRANCH   4  11
BRANCH   1  25
ATOM     24  N   UNL     1       7.359   4.333  17.796  0.00  0.00    +0.000 N 
ATOM     25  C   UNL     1       6.243   4.560  17.046  0.00  0.00    +0.000 C 
ATOM     26  O   UNL     1       6.188   4.203  15.874  0.00  0.00    +0.000 OA
ATOM     27  H   UNL     1       8.059   3.714  17.410  0.00  0.00    +0.000 HD
ATOM     28  H   UNL     1       7.298   4.422  18.805  0.00  0.00    +0.000 HD
ENDBRANCH   1  25
TORSDOF 3
ENDMDL
MODEL 6
REMARK VINA RESULT:      -7.6      1.636      2.195
REMARK  Name = 
REMARK  3 active torsions:
REMARK  status: ('A' for Active; 'I' for Inactive)
REMARK    1  A    between atoms: C_2  and  C_4
REMARK    2  A    between atoms: C_7  and  N_8
REMARK    3  A    between atoms: N_11  and  C_12
REMARK                            x       y       z     vdW  Elec       q    Type
REMARK                         _______ _______ _______ _____ _____    ______ ____
ROOT
ATOM      1  C   UNL     1       4.137   5.417  17.792  0.00  0.00    +0.000 A 
ATOM      2  C   UNL     1       4.068   6.693  17.231  0.00  0.00    +0.000 A 
ATOM      3  C   UNL     1       3.294   7.678  17.832  0.00  0.00    +0.000 A 
ATOM      4  C   UNL     1       2.519   7.411  18.975  0.00  0.00    +0.000 A 
ATOM      5  C   UNL     1       2.560   6.067  19.491  0.00  0.00    +0.000 A 
ATOM      6  C   UNL     1       1.767   5.572  20.533  0.00  0.00    +0.000 A 
ATOM      7  N   UNL     1       1.833   4.341  21.076  0.00  0.00    +0.000 NA
ATOM      8  C   UNL     1       2.718   3.528  20.517  0.00  0.00    +0.000 A 
ATOM      9  N   UNL     1       3.496   3.837  19.469  0.00  0.00    +0.000 NA
ATOM     10  C   UNL     1       3.406   5.081  18.937  0.00  0.00    +0.000 A 
ENDROOT
BRANCH   4  11
ATOM     11  N   UNL     1       1.811   8.457  19.549  0.00  0.00    +0.000 N 
ATOM     12  C   UNL     1       1.371   9.655  18.802  0.00  0.00    +0.000 C 
ATOM     13  C   UNL     1      -0.109  10.000  19.065  0.00  0.00    +0.000 C 
ATOM     14  N   UNL     1      -0.364  10.064  20.509  0.00  0.00    +0.000 N 
ATOM     15  C   UNL     1       0.008   8.838  21.239  0.00  0.00    +0.000 C 
ATOM     16  C   UNL     1       1.499   8.506  20.999  0.00  0.00    +0.000 C 
BRANCH  14  17
ATOM     17  C   UNL     1      -1.076  11.091  21.085  0.00  0.00    +0.000 A 
ATOM     18  C   UNL     1      -1.777  12.033  20.315  0.00  0.00    +0.000 A 
ATOM     19  C   UNL     1      -2.463  13.103  20.901  0.00  0.00    +0.000 A 
ATOM     20  C   UNL     1      -2.456  13.250  22.281  0.00  0.00    +0.000 A 
ATOM     21 CL   UNL     1      -3.289  14.567  23.008  0.00  0.00    +0.000 Cl
ATOM     22  C   UNL     1      -1.773  12.338  23.075  0.00  0.00    +0.000 A 
ATOM     23  C   UNL     1      -1.093  11.272  22.477  0.00  0.00    +0.000 A 
ENDBRANCH  14  17
ENDBRANCH   4  11
BRANCH   1  25
ATOM     24  N   UNL     1       6.126   4.000  17.717  0.00  0.00    +0.000 N 
ATOM     25  C   UNL     1       5.003   4.439  17.078  0.00  0.00    +0.000 C 
ATOM     26  O   UNL     1       4.732   4.055  15.946  0.00  0.00    +0.000 OA
ATOM     27  H   UNL     1       6.623   3.225  17.300  0.00  0.00    +0.000 HD
ATOM     28  H   UNL     1       6.207   4.141  18.719  0.00  0.00    +0.000 HD
ENDBRANCH   1  25
TORSDOF 3
ENDMDL
MODEL 7
REMARK VINA RESULT:      -7.6      2.144      3.279
REMARK  Name = 
REMARK  3 active torsions:
REMARK  status: ('A' for Active; 'I' for Inactive)
REMARK    1  A    between atoms: C_2  and  C_4
REMARK    2  A    between atoms: C_7  and  N_8
REMARK    3  A    between atoms: N_11  and  C_12
REMARK                            x       y       z     vdW  Elec       q    Type
REMARK                         _______ _______ _______ _____ _____    ______ ____
ROOT
ATOM      1  C   UNL     1       3.307   3.838  19.160  0.00  0.00    +0.000 A 
ATOM      2  C   UNL     1       2.491   4.263  20.210  0.00  0.00    +0.000 A 
ATOM      3  C   UNL     1       2.101   5.593  20.294  0.00  0.00    +0.000 A 
ATOM      4  C   UNL     1       2.554   6.555  19.372  0.00  0.00    +0.000 A 
ATOM      5  C   UNL     1       3.448   6.096  18.340  0.00  0.00    +0.000 A 
ATOM      6  C   UNL     1       4.106   6.913  17.414  0.00  0.00    +0.000 A 
ATOM      7  N   UNL     1       4.894   6.505  16.399  0.00  0.00    +0.000 NA
ATOM      8  C   UNL     1       5.076   5.194  16.325  0.00  0.00    +0.000 A 
ATOM      9  N   UNL     1       4.570   4.294  17.181  0.00  0.00    +0.000 NA
ATOM     10  C   UNL     1       3.786   4.732  18.197  0.00  0.00    +0.000 A 
ENDROOT
BRANCH   4  11
ATOM     11  N   UNL     1       2.082   7.853  19.490  0.00  0.00    +0.000 N 
ATOM     12  C   UNL     1       2.049   8.818  18.369  0.00  0.00    +0.000 C 
ATOM     13  C   UNL     1       0.689   9.535  18.253  0.00  0.00    +0.000 C 
ATOM     14  N   UNL     1       0.307  10.106  19.550  0.00  0.00    +0.000 N 
ATOM     15  C   UNL     1       0.269   9.126  20.650  0.00  0.00    +0.000 C 
ATOM     16  C   UNL     1       1.641   8.425  20.787  0.00  0.00    +0.000 C 
BRANCH  14  17
ATOM     17  C   UNL     1      -0.174  11.390  19.674  0.00  0.00    +0.000 A 
ATOM     18  C   UNL     1       0.028  12.359  18.679  0.00  0.00    +0.000 A 
ATOM     19  C   UNL     1      -0.422  13.676  18.829  0.00  0.00    +0.000 A 
ATOM     20  C   UNL     1      -1.086  14.048  19.990  0.00  0.00    +0.000 A 
ATOM     21 CL   UNL     1      -1.635  15.666  20.184  0.00  0.00    +0.000 Cl
ATOM     22  C   UNL     1      -1.304  13.116  20.996  0.00  0.00    +0.000 A 
ATOM     23  C   UNL     1      -0.851  11.803  20.833  0.00  0.00    +0.000 A 
ENDBRANCH  14  17
ENDBRANCH   4  11
BRANCH   1  25
ATOM     24  N   UNL     1       4.869   2.028  19.669  0.00  0.00    +0.000 N 
ATOM     25  C   UNL     1       3.658   2.390  19.155  0.00  0.00    +0.000 C 
ATOM     26  O   UNL     1       2.896   1.552  18.686  0.00  0.00    +0.000 OA
ATOM     27  H   UNL     1       5.036   1.041  19.809  0.00  0.00    +0.000 HD
ATOM     28  H   UNL     1       5.371   2.689  20.254  0.00  0.00    +0.000 HD
ENDBRANCH   1  25
TORSDOF 3
ENDMDL
MODEL 8
REMARK VINA RESULT:      -7.4      0.988      1.674
REMARK  Name = 
REMARK  3 active torsions:
REMARK  status: ('A' for Active; 'I' for Inactive)
REMARK    1  A    between atoms: C_2  and  C_4
REMARK    2  A    between atoms: C_7  and  N_8
REMARK    3  A    between atoms: N_11  and  C_12
REMARK                            x       y       z     vdW  Elec       q    Type
REMARK                         _______ _______ _______ _____ _____    ______ ____
ROOT
ATOM      1  C   UNL     1       4.550   5.195  16.563  0.00  0.00    +0.000 A 
ATOM      2  C   UNL     1       4.824   6.562  16.510  0.00  0.00    +0.000 A 
ATOM      3  C   UNL     1       4.088   7.451  17.285  0.00  0.00    +0.000 A 
ATOM      4  C   UNL     1       3.022   7.016  18.093  0.00  0.00    +0.000 A 
ATOM      5  C   UNL     1       2.722   5.608  18.074  0.00  0.00    +0.000 A 
ATOM      6  C   UNL     1       1.627   5.002  18.701  0.00  0.00    +0.000 A 
ATOM      7  N   UNL     1       1.362   3.681  18.754  0.00  0.00    +0.000 NA
ATOM      8  C   UNL     1       2.220   2.911  18.101  0.00  0.00    +0.000 A 
ATOM      9  N   UNL     1       3.273   3.353  17.396  0.00  0.00    +0.000 NA
ATOM     10  C   UNL     1       3.515   4.686  17.354  0.00  0.00    +0.000 A 
ENDROOT
BRANCH   4  11
ATOM     11  N   UNL     1       2.366   7.954  18.876  0.00  0.00    +0.000 N 
ATOM     12  C   UNL     1       1.966   9.293  18.390  0.00  0.00    +0.000 C 
ATOM     13  C   UNL     1       0.506   9.634  18.749  0.00  0.00    +0.000 C 
ATOM     14  N   UNL     1       0.274   9.421  20.183  0.00  0.00    +0.000 N 
ATOM     15  C   UNL     1       0.605   8.062  20.648  0.00  0.00    +0.000 C 
ATOM     16  C   UNL     1       2.077   7.727  20.314  0.00  0.00    +0.000 C 
BRANCH  14  17
ATOM     17  C   UNL     1      -0.387  10.340  20.965  0.00  0.00    +0.000 A 
ATOM     18  C   UNL     1      -0.510  10.182  22.354  0.00  0.00    +0.000 A 
ATOM     19  C   UNL     1      -1.222  11.095  23.142  0.00  0.00    +0.000 A 
ATOM     20  C   UNL     1      -1.830  12.189  22.544  0.00  0.00    +0.000 A 
ATOM     21 CL   UNL     1      -2.713  13.310  23.503  0.00  0.00    +0.000 Cl
ATOM     22  C   UNL     1      -1.730  12.378  21.172  0.00  0.00    +0.000 A 
ATOM     23  C   UNL     1      -1.014  11.460  20.396  0.00  0.00    +0.000 A 
ENDBRANCH  14  17
ENDBRANCH   4  11
BRANCH   1  25
ATOM     24  N   UNL     1       6.300   3.506  16.322  0.00  0.00    +0.000 N 
ATOM     25  C   UNL     1       5.403   4.327  15.704  0.00  0.00    +0.000 C 
ATOM     26  O   UNL     1       5.319   4.362  14.481  0.00  0.00    +0.000 OA
ATOM     27  H   UNL     1       6.761   2.811  15.751  0.00  0.00    +0.000 HD
ATOM     28  H   UNL     1       6.193   3.321  17.314  0.00  0.00    +0.000 HD
ENDBRANCH   1  25
TORSDOF 3
ENDMDL
MODEL 9
REMARK VINA RESULT:      -7.3      0.893      1.318
REMARK  Name = 
REMARK  3 active torsions:
REMARK  status: ('A' for Active; 'I' for Inactive)
REMARK    1  A    between atoms: C_2  and  C_4
REMARK    2  A    between atoms: C_7  and  N_8
REMARK    3  A    between atoms: N_11  and  C_12
REMARK                            x       y       z     vdW  Elec       q    Type
REMARK                         _______ _______ _______ _____ _____    ______ ____
ROOT
ATOM      1  C   UNL     1       4.743   5.095  16.318  0.00  0.00    +0.000 A 
ATOM      2  C   UNL     1       4.979   6.469  16.271  0.00  0.00    +0.000 A 
ATOM      3  C   UNL     1       4.243   7.332  17.073  0.00  0.00    +0.000 A 
ATOM      4  C   UNL     1       3.210   6.863  17.906  0.00  0.00    +0.000 A 
ATOM      5  C   UNL     1       2.947   5.447  17.882  0.00  0.00    +0.000 A 
ATOM      6  C   UNL     1       1.886   4.808  18.534  0.00  0.00    +0.000 A 
ATOM      7  N   UNL     1       1.656   3.481  18.582  0.00  0.00    +0.000 NA
ATOM      8  C   UNL     1       2.516   2.738  17.898  0.00  0.00    +0.000 A 
ATOM      9  N   UNL     1       3.537   3.213  17.169  0.00  0.00    +0.000 NA
ATOM     10  C   UNL     1       3.743   4.552  17.132  0.00  0.00    +0.000 A 
ENDROOT
BRANCH   4  11
ATOM     11  N   UNL     1       2.552   7.777  18.715  0.00  0.00    +0.000 N 
ATOM     12  C   UNL     1       2.110   9.110  18.254  0.00  0.00    +0.000 C 
ATOM     13  C   UNL     1       0.651   9.414  18.652  0.00  0.00    +0.000 C 
ATOM     14  N   UNL     1       0.460   9.180  20.088  0.00  0.00    +0.000 N 
ATOM     15  C   UNL     1       0.833   7.824  20.530  0.00  0.00    +0.000 C 
ATOM     16  C   UNL     1       2.305   7.528  20.157  0.00  0.00    +0.000 C 
BRANCH  14  17
ATOM     17  C   UNL     1      -0.203  10.075  20.897  0.00  0.00    +0.000 A 
ATOM     18  C   UNL     1      -0.766  11.257  20.391  0.00  0.00    +0.000 A 
ATOM     19  C   UNL     1      -1.400  12.188  21.223  0.00  0.00    +0.000 A 
ATOM     20  C   UNL     1      -1.477  11.949  22.588  0.00  0.00    +0.000 A 
ATOM     21 CL   UNL     1      -2.246  13.092  23.617  0.00  0.00    +0.000 Cl
ATOM     22  C   UNL     1      -0.930  10.791  23.124  0.00  0.00    +0.000 A 
ATOM     23  C   UNL     1      -0.302   9.867  22.282  0.00  0.00    +0.000 A 
ENDBRANCH  14  17
ENDBRANCH   4  11
BRANCH   1  25
ATOM     24  N   UNL     1       6.205   3.167  15.975  0.00  0.00    +0.000 N 
ATOM     25  C   UNL     1       5.594   4.257  15.429  0.00  0.00    +0.000 C 
ATOM     26  O   UNL     1       5.759   4.546  14.248  0.00  0.00    +0.000 OA
ATOM     27  H   UNL     1       6.649   2.517  15.341  0.00  0.00    +0.000 HD
ATOM     28  H   UNL     1       5.876   2.817  16.870  0.00  0.00    +0.000 HD
ENDBRANCH   1  25
TORSDOF 3
ENDMDL
