MODEL 1
REMARK VINA RESULT:      -8.9      0.000      0.000
REMARK  Name = 
REMARK  10 active torsions:
REMARK  status: ('A' for Active; 'I' for Inactive)
REMARK    1  A    between atoms: C_1  and  C_2
REMARK    2  A    between atoms: C_5  and  N_6
REMARK    3  A    between atoms: N_6  and  C_7
REMARK    4  A    between atoms: C_7  and  C_8
REMARK    5  A    between atoms: C_7  and  C_18
REMARK    6  A    between atoms: C_8  and  C_10
REMARK    7  A    between atoms: C_10  and  C_11
REMARK    8  A    between atoms: C_11  and  C_12
REMARK    9  A    between atoms: C_23  and  C_24
REMARK   10  A    between atoms: C_25  and  C_26
REMARK                            x       y       z     vdW  Elec       q    Type
REMARK                         _______ _______ _______ _____ _____    ______ ____
ROOT
ATOM      1  C   UNL     1       2.964   5.965  18.593  0.00  0.00    +0.000 C 
ENDROOT
BRANCH   1   2
ATOM      2  C   UNL     1       2.410   4.798  19.408  0.00  0.00    +0.000 A 
ATOM      3  C   UNL     1       2.745   4.670  20.772  0.00  0.00    +0.000 A 
ATOM      4  C   UNL     1       2.155   3.700  21.580  0.00  0.00    +0.000 A 
ATOM      5  C   UNL     1       1.201   2.845  21.050  0.00  0.00    +0.000 A 
ATOM      6  C   UNL     1       0.874   2.929  19.699  0.00  0.00    +0.000 A 
ATOM      7  C   UNL     1       1.489   3.872  18.856  0.00  0.00    +0.000 A 
ATOM      8  C   UNL     1       1.062   3.881  17.410  0.00  0.00    +0.000 C 
ENDBRANCH   1   2
BRANCH   1   9
ATOM      9  N   UNL     1       4.445   5.957  18.542  0.00  0.00    +0.000 N 
ATOM     10  H   UNL     1       4.924   6.226  19.399  0.00  0.00    +0.000 HD
BRANCH   9  15
ATOM     11  C   UNL     1       7.278   4.732  13.808  0.00  0.00    +0.000 C 
ATOM     12  C   UNL     1       6.594   4.766  15.136  0.00  0.00    +0.000 A 
ATOM     13  C   UNL     1       5.231   4.508  15.234  0.00  0.00    +0.000 A 
ATOM     14  C   UNL     1       4.546   4.791  16.417  0.00  0.00    +0.000 A 
ATOM     15  C   UNL     1       5.182   5.345  17.535  0.00  0.00    +0.000 A 
ATOM     16  C   UNL     1       6.589   5.423  17.500  0.00  0.00    +0.000 A 
ATOM     17  C   UNL     1       7.274   5.171  16.288  0.00  0.00    +0.000 A 
BRANCH  16  18
ATOM     18  C   UNL     1       7.440   5.761  18.700  0.00  0.00    +0.000 C 
ATOM     19  F   UNL     1       6.801   5.647  19.901  0.00  0.00    +0.000 F 
ATOM     20  F   UNL     1       8.539   4.955  18.798  0.00  0.00    +0.000 F 
ATOM     21  F   UNL     1       7.928   7.034  18.660  0.00  0.00    +0.000 F 
ENDBRANCH  16  18
ENDBRANCH   9  15
ENDBRANCH   1   9
BRANCH   1  22
ATOM     22  C   UNL     1       2.465   7.334  19.114  0.00  0.00    +0.000 C 
ATOM     23  O   UNL     1       2.019   7.507  20.253  0.00  0.00    +0.000 OA
BRANCH  22  24
ATOM     24  C   UNL     1       2.540   8.525  18.170  0.00  0.00    +0.000 C 
BRANCH  24  25
ATOM     25  C   UNL     1       1.201   8.980  17.598  0.00  0.00    +0.000 C 
BRANCH  25  26
ATOM     26  C   UNL     1       0.411   9.991  18.402  0.00  0.00    +0.000 A 
ATOM     27  C   UNL     1       0.978  10.793  19.393  0.00  0.00    +0.000 A 
ATOM     28  C   UNL     1       0.176  11.720  20.049  0.00  0.00    +0.000 A 
ATOM     29  N   UNL     1      -1.130  11.913  19.777  0.00  0.00    +0.000 NA
ATOM     30  C   UNL     1      -1.658  11.153  18.798  0.00  0.00    +0.000 A 
ATOM     31  C   UNL     1      -0.941  10.198  18.090  0.00  0.00    +0.000 A 
ENDBRANCH  25  26
ENDBRANCH  24  25
ENDBRANCH  22  24
ENDBRANCH   1  22
TORSDOF 8
ENDMDL
MODEL 2
REMARK VINA RESULT:      -8.8      1.168      1.612
REMARK  Name = 
REMARK  10 active torsions:
REMARK  status: ('A' for Active; 'I' for Inactive)
REMARK    1  A    between atoms: C_1  and  C_2
REMARK    2  A    between atoms: C_5  and  N_6
REMARK    3  A    between atoms: N_6  and  C_7
REMARK    4  A    between atoms: C_7  and  C_8
REMARK    5  A    between atoms: C_7  and  C_18
REMARK    6  A    between atoms: C_8  and  C_10
REMARK    7  A    between atoms: C_10  and  C_11
REMARK    8  A    between atoms: C_11  and  C_12
REMARK    9  A    between atoms: C_23  and  C_24
REMARK   10  A    between atoms: C_25  and  C_26
REMARK                            x       y       z     vdW  Elec       q    Type
REMARK                         _______ _______ _______ _____ _____    ______ ____
ROOT
ATOM      1  C   UNL     1       3.093   5.825  18.496  0.00  0.00    +0.000 C 
ENDROOT
BRANCH   1   2
ATOM      2  C   UNL     1       2.483   4.719  19.356  0.00  0.00    +0.000 A 
ATOM      3  C   UNL     1       2.835   4.611  20.717  0.00  0.00    +0.000 A 
ATOM      4  C   UNL     1       2.201   3.704  21.565  0.00  0.00    +0.000 A 
ATOM      5  C   UNL     1       1.187   2.894  21.076  0.00  0.00    +0.000 A 
ATOM      6  C   UNL     1       0.840   2.958  19.729  0.00  0.00    +0.000 A 
ATOM      7  C   UNL     1       1.496   3.837  18.848  0.00  0.00    +0.000 A 
ATOM      8  C   UNL     1       1.044   3.829  17.409  0.00  0.00    +0.000 C 
ENDBRANCH   1   2
BRANCH   1   9
ATOM      9  N   UNL     1       4.573   5.771  18.486  0.00  0.00    +0.000 N 
ATOM     10  H   UNL     1       5.035   5.978  19.369  0.00  0.00    +0.000 HD
BRANCH   9  15
ATOM     11  C   UNL     1       6.640   4.048  13.516  0.00  0.00    +0.000 C 
ATOM     12  C   UNL     1       6.325   4.340  14.947  0.00  0.00    +0.000 A 
ATOM     13  C   UNL     1       5.399   3.566  15.637  0.00  0.00    +0.000 A 
ATOM     14  C   UNL     1       4.914   3.988  16.876  0.00  0.00    +0.000 A 
ATOM     15  C   UNL     1       5.320   5.191  17.467  0.00  0.00    +0.000 A 
ATOM     16  C   UNL     1       6.396   5.873  16.862  0.00  0.00    +0.000 A 
ATOM     17  C   UNL     1       6.857   5.461  15.590  0.00  0.00    +0.000 A 
BRANCH  16  18
ATOM     18  C   UNL     1       7.112   7.040  17.496  0.00  0.00    +0.000 C 
ATOM     19  F   UNL     1       8.167   7.520  16.775  0.00  0.00    +0.000 F 
ATOM     20  F   UNL     1       6.286   8.111  17.686  0.00  0.00    +0.000 F 
ATOM     21  F   UNL     1       7.611   6.745  18.731  0.00  0.00    +0.000 F 
ENDBRANCH  16  18
ENDBRANCH   9  15
ENDBRANCH   1   9
BRANCH   1  22
ATOM     22  C   UNL     1       2.623   7.233  18.931  0.00  0.00    +0.000 C 
ATOM     23  O   UNL     1       2.215   7.494  20.068  0.00  0.00    +0.000 OA
BRANCH  22  24
ATOM     24  C   UNL     1       2.676   8.352  17.901  0.00  0.00    +0.000 C 
BRANCH  24  25
ATOM     25  C   UNL     1       1.448   9.256  17.866  0.00  0.00    +0.000 C 
BRANCH  25  26
ATOM     26  C   UNL     1       1.544  10.584  18.586  0.00  0.00    +0.000 A 
ATOM     27  C   UNL     1       2.247  11.680  18.080  0.00  0.00    +0.000 A 
ATOM     28  C   UNL     1       2.242  12.871  18.798  0.00  0.00    +0.000 A 
ATOM     29  N   UNL     1       1.582  13.048  19.959  0.00  0.00    +0.000 NA
ATOM     30  C   UNL     1       0.884  11.992  20.421  0.00  0.00    +0.000 A 
ATOM     31  C   UNL     1       0.831  10.762  19.780  0.00  0.00    +0.000 A 
ENDBRANCH  25  26
ENDBRANCH  24  25
ENDBRANCH  22  24
ENDBRANCH   1  22
TORSDOF 8
ENDMDL
MODEL 3
REMARK VINA RESULT:      -8.7      0.863      1.310
REMARK  Name = 
REMARK  10 active torsions:
REMARK  status: ('A' for Active; 'I' for Inactive)
REMARK    1  A    between atoms: C_1  and  C_2
REMARK    2  A    between atoms: C_5  and  N_6
REMARK    3  A    between atoms: N_6  and  C_7
REMARK    4  A    between atoms: C_7  and  C_8
REMARK    5  A    between atoms: C_7  and  C_18
REMARK    6  A    between atoms: C_8  and  C_10
REMARK    7  A    between atoms: C_10  and  C_11
REMARK    8  A    between atoms: C_11  and  C_12
REMARK    9  A    between atoms: C_23  and  C_24
REMARK   10  A    between atoms: C_25  and  C_26
REMARK                            x       y       z     vdW  Elec       q    Type
REMARK                         _______ _______ _______ _____ _____    ______ ____
ROOT
ATOM      1  C   UNL     1       2.944   5.953  18.409  0.00  0.00    +0.000 C 
ENDROOT
BRANCH   1   2
ATOM      2  C   UNL     1       2.406   4.831  19.295  0.00  0.00    +0.000 A 
ATOM      3  C   UNL     1       2.759   4.781  20.660  0.00  0.00    +0.000 A 
ATOM      4  C   UNL     1       2.184   3.856  21.529  0.00  0.00    +0.000 A 
ATOM      5  C   UNL     1       1.229   2.968  21.060  0.00  0.00    +0.000 A 
ATOM      6  C   UNL     1       0.883   2.974  19.710  0.00  0.00    +0.000 A 
ATOM      7  C   UNL     1       1.483   3.872  18.808  0.00  0.00    +0.000 A 
ATOM      8  C   UNL     1       1.038   3.797  17.369  0.00  0.00    +0.000 C 
ENDBRANCH   1   2
BRANCH   1   9
ATOM      9  N   UNL     1       4.425   5.977  18.376  0.00  0.00    +0.000 N 
ATOM     10  H   UNL     1       4.887   6.298  19.223  0.00  0.00    +0.000 HD
BRANCH   9  15
ATOM     11  C   UNL     1       6.641   4.039  13.552  0.00  0.00    +0.000 C 
ATOM     12  C   UNL     1       6.270   4.376  14.959  0.00  0.00    +0.000 A 
ATOM     13  C   UNL     1       5.264   3.672  15.611  0.00  0.00    +0.000 A 
ATOM     14  C   UNL     1       4.741   4.146  16.815  0.00  0.00    +0.000 A 
ATOM     15  C   UNL     1       5.188   5.334  17.407  0.00  0.00    +0.000 A 
ATOM     16  C   UNL     1       6.332   5.939  16.850  0.00  0.00    +0.000 A 
ATOM     17  C   UNL     1       6.835   5.476  15.611  0.00  0.00    +0.000 A 
BRANCH  16  18
ATOM     18  C   UNL     1       7.083   7.074  17.503  0.00  0.00    +0.000 C 
ATOM     19  F   UNL     1       6.339   8.196  17.723  0.00  0.00    +0.000 F 
ATOM     20  F   UNL     1       7.582   6.726  18.726  0.00  0.00    +0.000 F 
ATOM     21  F   UNL     1       8.162   7.481  16.776  0.00  0.00    +0.000 F 
ENDBRANCH  16  18
ENDBRANCH   9  15
ENDBRANCH   1   9
BRANCH   1  22
ATOM     22  C   UNL     1       2.407   7.342  18.830  0.00  0.00    +0.000 C 
ATOM     23  O   UNL     1       2.235   7.677  20.007  0.00  0.00    +0.000 OA
BRANCH  22  24
ATOM     24  C   UNL     1       2.084   8.344  17.732  0.00  0.00    +0.000 C 
BRANCH  24  25
ATOM     25  C   UNL     1       2.134   9.808  18.158  0.00  0.00    +0.000 C 
BRANCH  25  26
ATOM     26  C   UNL     1       0.815  10.492  18.448  0.00  0.00    +0.000 A 
ATOM     27  C   UNL     1      -0.423   9.931  18.132  0.00  0.00    +0.000 A 
ATOM     28  C   UNL     1      -1.581  10.620  18.476  0.00  0.00    +0.000 A 
ATOM     29  N   UNL     1      -1.589  11.804  19.119  0.00  0.00    +0.000 NA
ATOM     30  C   UNL     1      -0.388  12.320  19.444  0.00  0.00    +0.000 A 
ATOM     31  C   UNL     1       0.821  11.711  19.140  0.00  0.00    +0.000 A 
ENDBRANCH  25  26
ENDBRANCH  24  25
ENDBRANCH  22  24
ENDBRANCH   1  22
TORSDOF 8
ENDMDL
MODEL 4
REMARK VINA RESULT:      -8.6      1.596      1.960
REMARK  Name = 
REMARK  10 active torsions:
REMARK  status: ('A' for Active; 'I' for Inactive)
REMARK    1  A    between atoms: C_1  and  C_2
REMARK    2  A    between atoms: C_5  and  N_6
REMARK    3  A    between atoms: N_6  and  C_7
REMARK    4  A    between atoms: C_7  and  C_8
REMARK    5  A    between atoms: C_7  and  C_18
REMARK    6  A    between atoms: C_8  and  C_10
REMARK    7  A    between atoms: C_10  and  C_11
REMARK    8  A    between atoms: C_11  and  C_12
REMARK    9  A    between atoms: C_23  and  C_24
REMARK   10  A    between atoms: C_25  and  C_26
REMARK                            x       y       z     vdW  Elec       q    Type
REMARK                         _______ _______ _______ _____ _____    ______ ____
ROOT
ATOM      1  C   UNL     1       2.990   5.948  18.576  0.00  0.00    +0.000 C 
ENDROOT
BRANCH   1   2
ATOM      2  C   UNL     1       2.431   4.795  19.408  0.00  0.00    +0.000 A 
ATOM      3  C   UNL     1       2.798   4.661  20.763  0.00  0.00    +0.000 A 
ATOM      4  C   UNL     1       2.207   3.706  21.588  0.00  0.00    +0.000 A 
ATOM      5  C   UNL     1       1.221   2.872  21.084  0.00  0.00    +0.000 A 
ATOM      6  C   UNL     1       0.860   2.962  19.742  0.00  0.00    +0.000 A 
ATOM      7  C   UNL     1       1.475   3.890  18.882  0.00  0.00    +0.000 A 
ATOM      8  C   UNL     1       1.011   3.906  17.447  0.00  0.00    +0.000 C 
ENDBRANCH   1   2
BRANCH   1   9
ATOM      9  N   UNL     1       4.471   5.927  18.518  0.00  0.00    +0.000 N 
ATOM     10  H   UNL     1       4.956   6.210  19.366  0.00  0.00    +0.000 HD
BRANCH   9  15
ATOM     11  C   UNL     1       6.505   4.007  13.608  0.00  0.00    +0.000 C 
ATOM     12  C   UNL     1       6.187   4.339  15.029  0.00  0.00    +0.000 A 
ATOM     13  C   UNL     1       5.208   3.631  15.716  0.00  0.00    +0.000 A 
ATOM     14  C   UNL     1       4.730   4.101  16.941  0.00  0.00    +0.000 A 
ATOM     15  C   UNL     1       5.197   5.288  17.519  0.00  0.00    +0.000 A 
ATOM     16  C   UNL     1       6.319   5.897  16.920  0.00  0.00    +0.000 A 
ATOM     17  C   UNL     1       6.774   5.438  15.662  0.00  0.00    +0.000 A 
BRANCH  16  18
ATOM     18  C   UNL     1       7.092   7.031  17.548  0.00  0.00    +0.000 C 
ATOM     19  F   UNL     1       7.624   6.747  18.773  0.00  0.00    +0.000 F 
ATOM     20  F   UNL     1       8.149   7.424  16.777  0.00  0.00    +0.000 F 
ATOM     21  F   UNL     1       6.337   8.152  17.724  0.00  0.00    +0.000 F 
ENDBRANCH  16  18
ENDBRANCH   9  15
ENDBRANCH   1   9
BRANCH   1  22
ATOM     22  C   UNL     1       2.506   7.327  19.084  0.00  0.00    +0.000 C 
ATOM     23  O   UNL     1       2.448   8.333  18.370  0.00  0.00    +0.000 OA
BRANCH  22  24
ATOM     24  C   UNL     1       2.072   7.438  20.538  0.00  0.00    +0.000 C 
BRANCH  24  25
ATOM     25  C   UNL     1       0.600   7.777  20.749  0.00  0.00    +0.000 C 
BRANCH  25  26
ATOM     26  C   UNL     1       0.281   9.104  21.404  0.00  0.00    +0.000 A 
ATOM     27  C   UNL     1       0.571  10.337  20.817  0.00  0.00    +0.000 A 
ATOM     28  C   UNL     1       0.201  11.502  21.481  0.00  0.00    +0.000 A 
ATOM     29  N   UNL     1      -0.443  11.522  22.664  0.00  0.00    +0.000 NA
ATOM     30  C   UNL     1      -0.743  10.326  23.206  0.00  0.00    +0.000 A 
ATOM     31  C   UNL     1      -0.412   9.110  22.623  0.00  0.00    +0.000 A 
ENDBRANCH  25  26
ENDBRANCH  24  25
ENDBRANCH  22  24
ENDBRANCH   1  22
TORSDOF 8
ENDMDL
MODEL 5
REMARK VINA RESULT:      -8.6      0.712      1.121
REMARK  Name = 
REMARK  10 active torsions:
REMARK  status: ('A' for Active; 'I' for Inactive)
REMARK    1  A    between atoms: C_1  and  C_2
REMARK    2  A    between atoms: C_5  and  N_6
REMARK    3  A    between atoms: N_6  and  C_7
REMARK    4  A    between atoms: C_7  and  C_8
REMARK    5  A    between atoms: C_7  and  C_18
REMARK    6  A    between atoms: C_8  and  C_10
REMARK    7  A    between atoms: C_10  and  C_11
REMARK    8  A    between atoms: C_11  and  C_12
REMARK    9  A    between atoms: C_23  and  C_24
REMARK   10  A    between atoms: C_25  and  C_26
REMARK                            x       y       z     vdW  Elec       q    Type
REMARK                         _______ _______ _______ _____ _____    ______ ____
ROOT
ATOM      1  C   UNL     1       2.887   6.065  18.560  0.00  0.00    +0.000 C 
ENDROOT
BRANCH   1   2
ATOM      2  C   UNL     1       2.377   4.875  19.371  0.00  0.00    +0.000 A 
ATOM      3  C   UNL     1       2.719   4.753  20.733  0.00  0.00    +0.000 A 
ATOM      4  C   UNL     1       2.165   3.759  21.538  0.00  0.00    +0.000 A 
ATOM      5  C   UNL     1       1.243   2.873  21.006  0.00  0.00    +0.000 A 
ATOM      6  C   UNL     1       0.909   2.951  19.656  0.00  0.00    +0.000 A 
ATOM      7  C   UNL     1       1.488   3.920  18.817  0.00  0.00    +0.000 A 
ATOM      8  C   UNL     1       1.058   3.919  17.371  0.00  0.00    +0.000 C 
ENDBRANCH   1   2
BRANCH   1   9
ATOM      9  N   UNL     1       4.366   6.095  18.482  0.00  0.00    +0.000 N 
ATOM     10  H   UNL     1       4.852   6.424  19.313  0.00  0.00    +0.000 HD
BRANCH   9  15
ATOM     11  C   UNL     1       7.237   4.720  13.813  0.00  0.00    +0.000 C 
ATOM     12  C   UNL     1       6.535   4.793  15.129  0.00  0.00    +0.000 A 
ATOM     13  C   UNL     1       5.165   4.571  15.210  0.00  0.00    +0.000 A 
ATOM     14  C   UNL     1       4.470   4.891  16.378  0.00  0.00    +0.000 A 
ATOM     15  C   UNL     1       5.103   5.447  17.496  0.00  0.00    +0.000 A 
ATOM     16  C   UNL     1       6.511   5.490  17.482  0.00  0.00    +0.000 A 
ATOM     17  C   UNL     1       7.208   5.200  16.285  0.00  0.00    +0.000 A 
BRANCH  16  18
ATOM     18  C   UNL     1       7.352   5.827  18.689  0.00  0.00    +0.000 C 
ATOM     19  F   UNL     1       8.446   5.029  18.861  0.00  0.00    +0.000 F 
ATOM     20  F   UNL     1       7.839   7.102  18.639  0.00  0.00    +0.000 F 
ATOM     21  F   UNL     1       6.653   5.753  19.857  0.00  0.00    +0.000 F 
ENDBRANCH  16  18
ENDBRANCH   9  15
ENDBRANCH   1   9
BRANCH   1  22
ATOM     22  C   UNL     1       2.364   7.415  19.106  0.00  0.00    +0.000 C 
ATOM     23  O   UNL     1       2.240   7.659  20.311  0.00  0.00    +0.000 OA
BRANCH  22  24
ATOM     24  C   UNL     1       1.994   8.496  18.101  0.00  0.00    +0.000 C 
BRANCH  24  25
ATOM     25  C   UNL     1       1.560   9.824  18.712  0.00  0.00    +0.000 C 
BRANCH  25  26
ATOM     26  C   UNL     1       0.190  10.347  18.334  0.00  0.00    +0.000 A 
ATOM     27  C   UNL     1      -0.248  11.636  18.642  0.00  0.00    +0.000 A 
ATOM     28  C   UNL     1      -1.510  12.037  18.216  0.00  0.00    +0.000 A 
ATOM     29  N   UNL     1      -2.345  11.259  17.500  0.00  0.00    +0.000 NA
ATOM     30  C   UNL     1      -1.898  10.028  17.184  0.00  0.00    +0.000 A 
ATOM     31  C   UNL     1      -0.658   9.536  17.567  0.00  0.00    +0.000 A 
ENDBRANCH  25  26
ENDBRANCH  24  25
ENDBRANCH  22  24
ENDBRANCH   1  22
TORSDOF 8
ENDMDL
MODEL 6
REMARK VINA RESULT:      -8.6      1.369      1.825
REMARK  Name = 
REMARK  10 active torsions:
REMARK  status: ('A' for Active; 'I' for Inactive)
REMARK    1  A    between atoms: C_1  and  C_2
REMARK    2  A    between atoms: C_5  and  N_6
REMARK    3  A    between atoms: N_6  and  C_7
REMARK    4  A    between atoms: C_7  and  C_8
REMARK    5  A    between atoms: C_7  and  C_18
REMARK    6  A    between atoms: C_8  and  C_10
REMARK    7  A    between atoms: C_10  and  C_11
REMARK    8  A    between atoms: C_11  and  C_12
REMARK    9  A    between atoms: C_23  and  C_24
REMARK   10  A    between atoms: C_25  and  C_26
REMARK                            x       y       z     vdW  Elec       q    Type
REMARK                         _______ _______ _______ _____ _____    ______ ____
ROOT
ATOM      1  C   UNL     1       2.911   5.934  18.618  0.00  0.00    +0.000 C 
ENDROOT
BRANCH   1   2
ATOM      2  C   UNL     1       2.401   4.758  19.447  0.00  0.00    +0.000 A 
ATOM      3  C   UNL     1       2.769   4.639  20.803  0.00  0.00    +0.000 A 
ATOM      4  C   UNL     1       2.218   3.658  21.626  0.00  0.00    +0.000 A 
ATOM      5  C   UNL     1       1.271   2.782  21.119  0.00  0.00    +0.000 A 
ATOM      6  C   UNL     1       0.911   2.857  19.775  0.00  0.00    +0.000 A 
ATOM      7  C   UNL     1       1.487   3.812  18.918  0.00  0.00    +0.000 A 
ATOM      8  C   UNL     1       1.027   3.809  17.482  0.00  0.00    +0.000 C 
ENDBRANCH   1   2
BRANCH   1   9
ATOM      9  N   UNL     1       4.391   5.970  18.552  0.00  0.00    +0.000 N 
ATOM     10  H   UNL     1       4.870   6.275  19.397  0.00  0.00    +0.000 HD
BRANCH   9  15
ATOM     11  C   UNL     1       7.234   4.720  13.831  0.00  0.00    +0.000 C 
ATOM     12  C   UNL     1       6.553   4.763  15.160  0.00  0.00    +0.000 A 
ATOM     13  C   UNL     1       5.195   4.483  15.265  0.00  0.00    +0.000 A 
ATOM     14  C   UNL     1       4.508   4.773  16.445  0.00  0.00    +0.000 A 
ATOM     15  C   UNL     1       5.137   5.355  17.552  0.00  0.00    +0.000 A 
ATOM     16  C   UNL     1       6.542   5.457  17.513  0.00  0.00    +0.000 A 
ATOM     17  C   UNL     1       7.228   5.198  16.303  0.00  0.00    +0.000 A 
BRANCH  16  18
ATOM     18  C   UNL     1       7.389   5.829  18.705  0.00  0.00    +0.000 C 
ATOM     19  F   UNL     1       7.888   7.099  18.674  0.00  0.00    +0.000 F 
ATOM     20  F   UNL     1       6.696   5.742  19.879  0.00  0.00    +0.000 F 
ATOM     21  F   UNL     1       8.469   5.011  18.862  0.00  0.00    +0.000 F 
ENDBRANCH  16  18
ENDBRANCH   9  15
ENDBRANCH   1   9
BRANCH   1  22
ATOM     22  C   UNL     1       2.378   7.292  19.135  0.00  0.00    +0.000 C 
ATOM     23  O   UNL     1       2.672   8.378  18.625  0.00  0.00    +0.000 OA
BRANCH  22  24
ATOM     24  C   UNL     1       1.435   7.278  20.330  0.00  0.00    +0.000 C 
BRANCH  24  25
ATOM     25  C   UNL     1       1.737   8.320  21.402  0.00  0.00    +0.000 C 
BRANCH  25  26
ATOM     26  C   UNL     1       0.666   9.350  21.691  0.00  0.00    +0.000 A 
ATOM     27  C   UNL     1       0.022   9.459  22.924  0.00  0.00    +0.000 A 
ATOM     28  C   UNL     1      -0.921  10.465  23.105  0.00  0.00    +0.000 A 
ATOM     29  N   UNL     1      -1.250  11.366  22.158  0.00  0.00    +0.000 NA
ATOM     30  C   UNL     1      -0.601  11.268  20.982  0.00  0.00    +0.000 A 
ATOM     31  C   UNL     1       0.352  10.297  20.706  0.00  0.00    +0.000 A 
ENDBRANCH  25  26
ENDBRANCH  24  25
ENDBRANCH  22  24
ENDBRANCH   1  22
TORSDOF 8
ENDMDL
MODEL 7
REMARK VINA RESULT:      -8.5      1.218      1.593
REMARK  Name = 
REMARK  10 active torsions:
REMARK  status: ('A' for Active; 'I' for Inactive)
REMARK    1  A    between atoms: C_1  and  C_2
REMARK    2  A    between atoms: C_5  and  N_6
REMARK    3  A    between atoms: N_6  and  C_7
REMARK    4  A    between atoms: C_7  and  C_8
REMARK    5  A    between atoms: C_7  and  C_18
REMARK    6  A    between atoms: C_8  and  C_10
REMARK    7  A    between atoms: C_10  and  C_11
REMARK    8  A    between atoms: C_11  and  C_12
REMARK    9  A    between atoms: C_23  and  C_24
REMARK   10  A    between atoms: C_25  and  C_26
REMARK                            x       y       z     vdW  Elec       q    Type
REMARK                         _______ _______ _______ _____ _____    ______ ____
ROOT
ATOM      1  C   UNL     1       2.962   5.977  18.486  0.00  0.00    +0.000 C 
ENDROOT
BRANCH   1   2
ATOM      2  C   UNL     1       2.420   4.828  19.333  0.00  0.00    +0.000 A 
ATOM      3  C   UNL     1       2.778   4.727  20.694  0.00  0.00    +0.000 A 
ATOM      4  C   UNL     1       2.199   3.775  21.531  0.00  0.00    +0.000 A 
ATOM      5  C   UNL     1       1.236   2.911  21.034  0.00  0.00    +0.000 A 
ATOM      6  C   UNL     1       0.885   2.968  19.687  0.00  0.00    +0.000 A 
ATOM      7  C   UNL     1       1.488   3.894  18.816  0.00  0.00    +0.000 A 
ATOM      8  C   UNL     1       1.036   3.875  17.377  0.00  0.00    +0.000 C 
ENDBRANCH   1   2
BRANCH   1   9
ATOM      9  N   UNL     1       4.443   5.982  18.433  0.00  0.00    +0.000 N 
ATOM     10  H   UNL     1       4.920   6.300  19.273  0.00  0.00    +0.000 HD
BRANCH   9  15
ATOM     11  C   UNL     1       6.555   3.976  13.590  0.00  0.00    +0.000 C 
ATOM     12  C   UNL     1       6.214   4.333  15.000  0.00  0.00    +0.000 A 
ATOM     13  C   UNL     1       5.221   3.638  15.682  0.00  0.00    +0.000 A 
ATOM     14  C   UNL     1       4.724   4.130  16.891  0.00  0.00    +0.000 A 
ATOM     15  C   UNL     1       5.184   5.325  17.458  0.00  0.00    +0.000 A 
ATOM     16  C   UNL     1       6.318   5.921  16.868  0.00  0.00    +0.000 A 
ATOM     17  C   UNL     1       6.793   5.441  15.625  0.00  0.00    +0.000 A 
BRANCH  16  18
ATOM     18  C   UNL     1       7.084   7.063  17.490  0.00  0.00    +0.000 C 
ATOM     19  F   UNL     1       7.594   6.798  18.728  0.00  0.00    +0.000 F 
ATOM     20  F   UNL     1       8.155   7.440  16.731  0.00  0.00    +0.000 F 
ATOM     21  F   UNL     1       6.328   8.189  17.634  0.00  0.00    +0.000 F 
ENDBRANCH  16  18
ENDBRANCH   9  15
ENDBRANCH   1   9
BRANCH   1  22
ATOM     22  C   UNL     1       2.451   7.356  18.970  0.00  0.00    +0.000 C 
ATOM     23  O   UNL     1       2.141   7.593  20.143  0.00  0.00    +0.000 OA
BRANCH  22  24
ATOM     24  C   UNL     1       2.335   8.473  17.944  0.00  0.00    +0.000 C 
BRANCH  24  25
ATOM     25  C   UNL     1       1.048   9.288  18.019  0.00  0.00    +0.000 C 
BRANCH  25  26
ATOM     26  C   UNL     1       1.180  10.772  18.288  0.00  0.00    +0.000 A 
ATOM     27  C   UNL     1       0.163  11.540  18.856  0.00  0.00    +0.000 A 
ATOM     28  C   UNL     1       0.395  12.889  19.101  0.00  0.00    +0.000 A 
ATOM     29  N   UNL     1       1.561  13.512  18.836  0.00  0.00    +0.000 NA
ATOM     30  C   UNL     1       2.543  12.753  18.314  0.00  0.00    +0.000 A 
ATOM     31  C   UNL     1       2.406  11.401  18.031  0.00  0.00    +0.000 A 
ENDBRANCH  25  26
ENDBRANCH  24  25
ENDBRANCH  22  24
ENDBRANCH   1  22
TORSDOF 8
ENDMDL
MODEL 8
REMARK VINA RESULT:      -8.5      1.537      1.750
REMARK  Name = 
REMARK  10 active torsions:
REMARK  status: ('A' for Active; 'I' for Inactive)
REMARK    1  A    between atoms: C_1  and  C_2
REMARK    2  A    between atoms: C_5  and  N_6
REMARK    3  A    between atoms: N_6  and  C_7
REMARK    4  A    between atoms: C_7  and  C_8
REMARK    5  A    between atoms: C_7  and  C_18
REMARK    6  A    between atoms: C_8  and  C_10
REMARK    7  A    between atoms: C_10  and  C_11
REMARK    8  A    between atoms: C_11  and  C_12
REMARK    9  A    between atoms: C_23  and  C_24
REMARK   10  A    between atoms: C_25  and  C_26
REMARK                            x       y       z     vdW  Elec       q    Type
REMARK                         _______ _______ _______ _____ _____    ______ ____
ROOT
ATOM      1  C   UNL     1       3.045   6.164  18.035  0.00  0.00    +0.000 C 
ENDROOT
BRANCH   1   2
ATOM      2  C   UNL     1       2.459   5.178  19.044  0.00  0.00    +0.000 A 
ATOM      3  C   UNL     1       2.807   5.274  20.407  0.00  0.00    +0.000 A 
ATOM      4  C   UNL     1       2.192   4.481  21.374  0.00  0.00    +0.000 A 
ATOM      5  C   UNL     1       1.201   3.585  21.006  0.00  0.00    +0.000 A 
ATOM      6  C   UNL     1       0.858   3.447  19.662  0.00  0.00    +0.000 A 
ATOM      7  C   UNL     1       1.497   4.207  18.666  0.00  0.00    +0.000 A 
ATOM      8  C   UNL     1       1.052   3.983  17.242  0.00  0.00    +0.000 C 
ENDBRANCH   1   2
BRANCH   1   9
ATOM      9  N   UNL     1       4.527   6.153  18.040  0.00  0.00    +0.000 N 
ATOM     10  H   UNL     1       4.974   6.442  18.907  0.00  0.00    +0.000 HD
BRANCH   9  15
ATOM     11  C   UNL     1       7.598   4.835  13.483  0.00  0.00    +0.000 C 
ATOM     12  C   UNL     1       6.834   4.890  14.766  0.00  0.00    +0.000 A 
ATOM     13  C   UNL     1       5.458   4.692  14.775  0.00  0.00    +0.000 A 
ATOM     14  C   UNL     1       4.712   4.997  15.915  0.00  0.00    +0.000 A 
ATOM     15  C   UNL     1       5.299   5.516  17.076  0.00  0.00    +0.000 A 
ATOM     16  C   UNL     1       6.708   5.533  17.130  0.00  0.00    +0.000 A 
ATOM     17  C   UNL     1       7.456   5.258  15.962  0.00  0.00    +0.000 A 
BRANCH  16  18
ATOM     18  C   UNL     1       7.495   5.827  18.384  0.00  0.00    +0.000 C 
ATOM     19  F   UNL     1       6.758   5.815  19.533  0.00  0.00    +0.000 F 
ATOM     20  F   UNL     1       8.497   4.922  18.589  0.00  0.00    +0.000 F 
ATOM     21  F   UNL     1       8.108   7.044  18.350  0.00  0.00    +0.000 F 
ENDBRANCH  16  18
ENDBRANCH   9  15
ENDBRANCH   1   9
BRANCH   1  22
ATOM     22  C   UNL     1       2.532   7.607  18.260  0.00  0.00    +0.000 C 
ATOM     23  O   UNL     1       2.701   8.524  17.449  0.00  0.00    +0.000 OA
BRANCH  22  24
ATOM     24  C   UNL     1       1.774   7.901  19.546  0.00  0.00    +0.000 C 
BRANCH  24  25
ATOM     25  C   UNL     1       1.108   9.272  19.603  0.00  0.00    +0.000 C 
BRANCH  25  26
ATOM     26  C   UNL     1       0.504   9.696  20.925  0.00  0.00    +0.000 A 
ATOM     27  C   UNL     1       0.680   8.981  22.111  0.00  0.00    +0.000 A 
ATOM     28  C   UNL     1       0.117   9.473  23.283  0.00  0.00    +0.000 A 
ATOM     29  N   UNL     1      -0.585  10.621  23.357  0.00  0.00    +0.000 NA
ATOM     30  C   UNL     1      -0.723  11.316  22.211  0.00  0.00    +0.000 A 
ATOM     31  C   UNL     1      -0.203  10.905  20.992  0.00  0.00    +0.000 A 
ENDBRANCH  25  26
ENDBRANCH  24  25
ENDBRANCH  22  24
ENDBRANCH   1  22
TORSDOF 8
ENDMDL
MODEL 9
REMARK VINA RESULT:      -8.2      2.940      6.968
REMARK  Name = 
REMARK  10 active torsions:
REMARK  status: ('A' for Active; 'I' for Inactive)
REMARK    1  A    between atoms: C_1  and  C_2
REMARK    2  A    between atoms: C_5  and  N_6
REMARK    3  A    between atoms: N_6  and  C_7
REMARK    4  A    between atoms: C_7  and  C_8
REMARK    5  A    between atoms: C_7  and  C_18
REMARK    6  A    between atoms: C_8  and  C_10
REMARK    7  A    between atoms: C_10  and  C_11
REMARK    8  A    between atoms: C_11  and  C_12
REMARK    9  A    between atoms: C_23  and  C_24
REMARK   10  A    between atoms: C_25  and  C_26
REMARK                            x       y       z     vdW  Elec       q    Type
REMARK                         _______ _______ _______ _____ _____    ______ ____
ROOT
ATOM      1  C   UNL     1       3.206   6.229  17.799  0.00  0.00    +0.000 C 
ENDROOT
BRANCH   1   2
ATOM      2  C   UNL     1       4.708   5.999  17.953  0.00  0.00    +0.000 A 
ATOM      3  C   UNL     1       5.232   5.571  19.190  0.00  0.00    +0.000 A 
ATOM      4  C   UNL     1       6.573   5.221  19.333  0.00  0.00    +0.000 A 
ATOM      5  C   UNL     1       7.422   5.274  18.238  0.00  0.00    +0.000 A 
ATOM      6  C   UNL     1       6.939   5.722  17.011  0.00  0.00    +0.000 A 
ATOM      7  C   UNL     1       5.598   6.120  16.856  0.00  0.00    +0.000 A 
ATOM      8  C   UNL     1       5.176   6.588  15.486  0.00  0.00    +0.000 C 
ENDBRANCH   1   2
BRANCH   1   9
ATOM      9  N   UNL     1       2.613   6.865  18.998  0.00  0.00    +0.000 N 
ATOM     10  H   UNL     1       2.803   6.409  19.888  0.00  0.00    +0.000 HD
BRANCH   9  15
ATOM     11  C   UNL     1      -0.529  11.503  18.250  0.00  0.00    +0.000 C 
ATOM     12  C   UNL     1       0.484  10.465  18.608  0.00  0.00    +0.000 A 
ATOM     13  C   UNL     1       1.522  10.163  17.733  0.00  0.00    +0.000 A 
ATOM     14  C   UNL     1       2.308   9.028  17.941  0.00  0.00    +0.000 A 
ATOM     15  C   UNL     1       2.089   8.153  19.013  0.00  0.00    +0.000 A 
ATOM     16  C   UNL     1       1.169   8.563  19.999  0.00  0.00    +0.000 A 
ATOM     17  C   UNL     1       0.350   9.693  19.765  0.00  0.00    +0.000 A 
BRANCH  16  18
ATOM     18  C   UNL     1       0.997   7.866  21.326  0.00  0.00    +0.000 C 
ATOM     19  F   UNL     1       1.326   6.541  21.320  0.00  0.00    +0.000 F 
ATOM     20  F   UNL     1       1.766   8.425  22.307  0.00  0.00    +0.000 F 
ATOM     21  F   UNL     1      -0.283   7.927  21.793  0.00  0.00    +0.000 F 
ENDBRANCH  16  18
ENDBRANCH   9  15
ENDBRANCH   1   9
BRANCH   1  22
ATOM     22  C   UNL     1       2.443   4.924  17.467  0.00  0.00    +0.000 C 
ATOM     23  O   UNL     1       1.210   4.837  17.468  0.00  0.00    +0.000 OA
BRANCH  22  24
ATOM     24  C   UNL     1       3.262   3.690  17.116  0.00  0.00    +0.000 C 
BRANCH  24  25
ATOM     25  C   UNL     1       2.814   2.402  17.799  0.00  0.00    +0.000 C 
BRANCH  25  26
ATOM     26  C   UNL     1       2.586   2.453  19.295  0.00  0.00    +0.000 A 
ATOM     27  C   UNL     1       3.624   2.417  20.228  0.00  0.00    +0.000 A 
ATOM     28  C   UNL     1       3.315   2.510  21.581  0.00  0.00    +0.000 A 
ATOM     29  N   UNL     1       2.063   2.650  22.060  0.00  0.00    +0.000 NA
ATOM     30  C   UNL     1       1.074   2.712  21.148  0.00  0.00    +0.000 A 
ATOM     31  C   UNL     1       1.281   2.624  19.778  0.00  0.00    +0.000 A 
ENDBRANCH  25  26
ENDBRANCH  24  25
ENDBRANCH  22  24
ENDBRANCH   1  22
TORSDOF 8
ENDMDL
