MODEL 1
REMARK VINA RESULT:      -8.4      0.000      0.000
REMARK  Name = 
REMARK  6 active torsions:
REMARK  status: ('A' for Active; 'I' for Inactive)
REMARK    1  A    between atoms: N_11  and  C_12
REMARK    2  A    between atoms: C_12  and  C_13
REMARK    3  A    between atoms: C_16  and  S_17
REMARK    4  A    between atoms: S_17  and  N_20
REMARK    5  A    between atoms: N_20  and  C_21
REMARK    6  A    between atoms: C_21  and  C_22
REMARK                            x       y       z     vdW  Elec       q    Type
REMARK                         _______ _______ _______ _____ _____    ______ ____
ROOT
ATOM      1  C   UNL     1       2.421   6.217  19.764  0.00  0.00    +0.000 A 
ATOM      2  C   UNL     1       1.721   6.688  20.885  0.00  0.00    +0.000 A 
ATOM      3  C   UNL     1       1.238   7.998  20.918  0.00  0.00    +0.000 A 
ATOM      4  C   UNL     1       1.432   8.841  19.820  0.00  0.00    +0.000 A 
ATOM      5  C   UNL     1       2.060   8.358  18.670  0.00  0.00    +0.000 A 
ATOM      6  C   UNL     1       2.562   7.054  18.648  0.00  0.00    +0.000 A 
ENDROOT
BRANCH   4   7
ATOM      7  S   UNL     1       0.830  10.517  19.886  0.00  0.00    +0.000 S 
ATOM      8  O   UNL     1       1.132  11.030  21.204  0.00  0.00    +0.000 OA
ATOM      9  O   UNL     1       1.287  11.178  18.685  0.00  0.00    +0.000 OA
BRANCH   7  10
ATOM     10  N   UNL     1      -0.850  10.361  19.726  0.00  0.00    +0.000 NA
ATOM     11  H   UNL     1      -1.304  10.121  20.606  0.00  0.00    +0.000 HD
BRANCH  10  12
ATOM     12  C   UNL     1      -1.513  11.464  19.015  0.00  0.00    +0.000 C 
BRANCH  12  13
ATOM     13  C   UNL     1      -2.269  10.939  17.849  0.00  0.00    +0.000 A 
ATOM     14  C   UNL     1      -2.018   9.935  16.937  0.00  0.00    +0.000 A 
ATOM     15  C   UNL     1      -3.037  10.020  15.959  0.00  0.00    +0.000 A 
ATOM     16  C   UNL     1      -3.862  11.048  16.352  0.00  0.00    +0.000 A 
ATOM     17  O   UNL     1      -3.410  11.606  17.505  0.00  0.00    +0.000 OA
ENDBRANCH  12  13
ENDBRANCH  10  12
ENDBRANCH   7  10
ENDBRANCH   4   7
BRANCH   1  18
ATOM     18  C   UNL     1       3.030   4.834  19.767  0.00  0.00    +0.000 C 
BRANCH  18  29
ATOM     19  O   UNL     1       2.551   3.825  17.030  0.00  0.00    +0.000 OA
ATOM     20  C   UNL     1       3.635   4.180  17.450  0.00  0.00    +0.000 C 
ATOM     21  C   UNL     1       4.836   4.256  16.631  0.00  0.00    +0.000 A 
ATOM     22  C   UNL     1       5.064   3.979  15.300  0.00  0.00    +0.000 A 
ATOM     23  C   UNL     1       6.348   4.247  14.817  0.00  0.00    +0.000 A 
ATOM     24  C   UNL     1       7.311   4.778  15.688  0.00  0.00    +0.000 A 
ATOM     25  N   UNL     1       7.091   5.051  16.997  0.00  0.00    +0.000 NA
ATOM     26  C   UNL     1       5.844   4.765  17.413  0.00  0.00    +0.000 A 
ATOM     27  C   UNL     1       5.293   5.011  18.755  0.00  0.00    +0.000 C 
ATOM     28  O   UNL     1       5.886   5.492  19.702  0.00  0.00    +0.000 OA
ATOM     29  N   UNL     1       3.977   4.628  18.695  0.00  0.00    +0.000 N 
ENDBRANCH  18  29
ENDBRANCH   1  18
TORSDOF 6
ENDMDL
MODEL 2
REMARK VINA RESULT:      -8.2      3.225      8.205
REMARK  Name = 
REMARK  6 active torsions:
REMARK  status: ('A' for Active; 'I' for Inactive)
REMARK    1  A    between atoms: N_11  and  C_12
REMARK    2  A    between atoms: C_12  and  C_13
REMARK    3  A    between atoms: C_16  and  S_17
REMARK    4  A    between atoms: S_17  and  N_20
REMARK    5  A    between atoms: N_20  and  C_21
REMARK    6  A    between atoms: C_21  and  C_22
REMARK                            x       y       z     vdW  Elec       q    Type
REMARK                         _______ _______ _______ _____ _____    ______ ____
ROOT
ATOM      1  C   UNL     1       2.401   7.761  18.251  0.00  0.00    +0.000 A 
ATOM      2  C   UNL     1       2.489   6.920  19.369  0.00  0.00    +0.000 A 
ATOM      3  C   UNL     1       3.543   6.009  19.489  0.00  0.00    +0.000 A 
ATOM      4  C   UNL     1       4.529   5.951  18.499  0.00  0.00    +0.000 A 
ATOM      5  C   UNL     1       4.492   6.837  17.421  0.00  0.00    +0.000 A 
ATOM      6  C   UNL     1       3.425   7.731  17.293  0.00  0.00    +0.000 A 
ENDROOT
BRANCH   4   7
ATOM      7  S   UNL     1       5.854   4.769  18.654  0.00  0.00    +0.000 S 
ATOM      8  O   UNL     1       6.401   4.563  17.331  0.00  0.00    +0.000 OA
ATOM      9  O   UNL     1       6.675   5.198  19.763  0.00  0.00    +0.000 OA
BRANCH   7  10
ATOM     10  N   UNL     1       5.085   3.346  19.162  0.00  0.00    +0.000 NA
ATOM     11  H   UNL     1       4.758   3.403  20.125  0.00  0.00    +0.000 HD
BRANCH  10  12
ATOM     12  C   UNL     1       4.069   2.824  18.236  0.00  0.00    +0.000 C 
BRANCH  12  13
ATOM     13  C   UNL     1       2.744   2.773  18.906  0.00  0.00    +0.000 A 
ATOM     14  C   UNL     1       1.454   2.973  18.461  0.00  0.00    +0.000 A 
ATOM     15  C   UNL     1       0.627   2.947  19.609  0.00  0.00    +0.000 A 
ATOM     16  C   UNL     1       1.459   2.702  20.676  0.00  0.00    +0.000 A 
ATOM     17  O   UNL     1       2.747   2.584  20.258  0.00  0.00    +0.000 OA
ENDBRANCH  12  13
ENDBRANCH  10  12
ENDBRANCH   7  10
ENDBRANCH   4   7
BRANCH   1  18
ATOM     18  C   UNL     1       1.211   8.674  18.071  0.00  0.00    +0.000 C 
BRANCH  18  29
ATOM     19  O   UNL     1       2.565  11.216  17.405  0.00  0.00    +0.000 OA
ATOM     20  C   UNL     1       1.936  11.022  18.426  0.00  0.00    +0.000 C 
ATOM     21  C   UNL     1       1.672  12.049  19.424  0.00  0.00    +0.000 A 
ATOM     22  C   UNL     1       2.020  13.381  19.491  0.00  0.00    +0.000 A 
ATOM     23  C   UNL     1       1.518  14.104  20.577  0.00  0.00    +0.000 A 
ATOM     24  C   UNL     1       0.702  13.455  21.515  0.00  0.00    +0.000 A 
ATOM     25  N   UNL     1       0.358  12.145  21.453  0.00  0.00    +0.000 NA
ATOM     26  C   UNL     1       0.876  11.494  20.395  0.00  0.00    +0.000 A 
ATOM     27  C   UNL     1       0.629  10.090  20.029  0.00  0.00    +0.000 C 
ATOM     28  O   UNL     1      -0.064   9.295  20.637  0.00  0.00    +0.000 OA
ATOM     29  N   UNL     1       1.302   9.888  18.851  0.00  0.00    +0.000 N 
ENDBRANCH  18  29
ENDBRANCH   1  18
TORSDOF 6
ENDMDL
MODEL 3
REMARK VINA RESULT:      -8.0      1.214      1.570
REMARK  Name = 
REMARK  6 active torsions:
REMARK  status: ('A' for Active; 'I' for Inactive)
REMARK    1  A    between atoms: N_11  and  C_12
REMARK    2  A    between atoms: C_12  and  C_13
REMARK    3  A    between atoms: C_16  and  S_17
REMARK    4  A    between atoms: S_17  and  N_20
REMARK    5  A    between atoms: N_20  and  C_21
REMARK    6  A    between atoms: C_21  and  C_22
REMARK                            x       y       z     vdW  Elec       q    Type
REMARK                         _______ _______ _______ _____ _____    ______ ____
ROOT
ATOM      1  C   UNL     1       2.854   5.192  19.800  0.00  0.00    +0.000 A 
ATOM      2  C   UNL     1       1.915   5.254  20.840  0.00  0.00    +0.000 A 
ATOM      3  C   UNL     1       1.292   6.463  21.159  0.00  0.00    +0.000 A 
ATOM      4  C   UNL     1       1.587   7.615  20.424  0.00  0.00    +0.000 A 
ATOM      5  C   UNL     1       2.462   7.547  19.338  0.00  0.00    +0.000 A 
ATOM      6  C   UNL     1       3.101   6.341  19.035  0.00  0.00    +0.000 A 
ENDROOT
BRANCH   4   7
ATOM      7  S   UNL     1       0.801   9.155  20.858  0.00  0.00    +0.000 S 
ATOM      8  O   UNL     1      -0.606   8.878  21.052  0.00  0.00    +0.000 OA
ATOM      9  O   UNL     1       1.610   9.766  21.888  0.00  0.00    +0.000 OA
BRANCH   7  10
ATOM     10  N   UNL     1       0.989  10.120  19.478  0.00  0.00    +0.000 NA
ATOM     11  H   UNL     1       0.975   9.575  18.617  0.00  0.00    +0.000 HD
BRANCH  10  12
ATOM     12  C   UNL     1       0.121  11.306  19.425  0.00  0.00    +0.000 C 
BRANCH  12  13
ATOM     13  C   UNL     1      -0.954  11.109  18.419  0.00  0.00    +0.000 A 
ATOM     14  C   UNL     1      -2.095  11.818  18.107  0.00  0.00    +0.000 A 
ATOM     15  C   UNL     1      -2.804  11.039  17.162  0.00  0.00    +0.000 A 
ATOM     16  C   UNL     1      -2.036   9.922  16.933  0.00  0.00    +0.000 A 
ATOM     17  O   UNL     1      -0.904   9.960  17.684  0.00  0.00    +0.000 OA
ENDBRANCH  12  13
ENDBRANCH  10  12
ENDBRANCH   7  10
ENDBRANCH   4   7
BRANCH   1  18
ATOM     18  C   UNL     1       3.602   3.909  19.518  0.00  0.00    +0.000 C 
BRANCH  18  29
ATOM     19  O   UNL     1       2.902   3.467  16.681  0.00  0.00    +0.000 OA
ATOM     20  C   UNL     1       4.005   3.791  17.071  0.00  0.00    +0.000 C 
ATOM     21  C   UNL     1       5.117   4.110  16.188  0.00  0.00    +0.000 A 
ATOM     22  C   UNL     1       5.228   4.131  14.814  0.00  0.00    +0.000 A 
ATOM     23  C   UNL     1       6.446   4.572  14.291  0.00  0.00    +0.000 A 
ATOM     24  C   UNL     1       7.467   4.966  15.169  0.00  0.00    +0.000 A 
ATOM     25  N   UNL     1       7.363   4.947  16.520  0.00  0.00    +0.000 NA
ATOM     26  C   UNL     1       6.174   4.504  16.971  0.00  0.00    +0.000 A 
ATOM     27  C   UNL     1       5.746   4.431  18.377  0.00  0.00    +0.000 C 
ATOM     28  O   UNL     1       6.408   4.740  19.351  0.00  0.00    +0.000 OA
ATOM     29  N   UNL     1       4.448   3.990  18.349  0.00  0.00    +0.000 N 
ENDBRANCH  18  29
ENDBRANCH   1  18
TORSDOF 6
ENDMDL
MODEL 4
REMARK VINA RESULT:      -8.0      2.436      3.214
REMARK  Name = 
REMARK  6 active torsions:
REMARK  status: ('A' for Active; 'I' for Inactive)
REMARK    1  A    between atoms: N_11  and  C_12
REMARK    2  A    between atoms: C_12  and  C_13
REMARK    3  A    between atoms: C_16  and  S_17
REMARK    4  A    between atoms: S_17  and  N_20
REMARK    5  A    between atoms: N_20  and  C_21
REMARK    6  A    between atoms: C_21  and  C_22
REMARK                            x       y       z     vdW  Elec       q    Type
REMARK                         _______ _______ _______ _____ _____    ______ ____
ROOT
ATOM      1  C   UNL     1       2.599   6.056  19.676  0.00  0.00    +0.000 A 
ATOM      2  C   UNL     1       2.711   6.954  18.604  0.00  0.00    +0.000 A 
ATOM      3  C   UNL     1       2.105   8.212  18.668  0.00  0.00    +0.000 A 
ATOM      4  C   UNL     1       1.401   8.589  19.815  0.00  0.00    +0.000 A 
ATOM      5  C   UNL     1       1.349   7.733  20.917  0.00  0.00    +0.000 A 
ATOM      6  C   UNL     1       1.938   6.467  20.842  0.00  0.00    +0.000 A 
ENDROOT
BRANCH   4   7
ATOM      7  S   UNL     1       0.615  10.187  19.873  0.00  0.00    +0.000 S 
ATOM      8  O   UNL     1       1.407  11.085  19.061  0.00  0.00    +0.000 OA
ATOM      9  O   UNL     1      -0.793   9.975  19.627  0.00  0.00    +0.000 OA
BRANCH   7  10
ATOM     10  N   UNL     1       0.742  10.654  21.498  0.00  0.00    +0.000 NA
ATOM     11  H   UNL     1       1.098  11.603  21.603  0.00  0.00    +0.000 HD
BRANCH  10  12
ATOM     12  C   UNL     1      -0.450  10.389  22.317  0.00  0.00    +0.000 C 
BRANCH  12  13
ATOM     13  C   UNL     1      -1.052  11.669  22.772  0.00  0.00    +0.000 A 
ATOM     14  C   UNL     1      -2.298  12.004  23.258  0.00  0.00    +0.000 A 
ATOM     15  C   UNL     1      -2.320  13.415  23.365  0.00  0.00    +0.000 A 
ATOM     16  C   UNL     1      -1.077  13.848  22.969  0.00  0.00    +0.000 A 
ATOM     17  O   UNL     1      -0.294  12.794  22.617  0.00  0.00    +0.000 OA
ENDBRANCH  12  13
ENDBRANCH  10  12
ENDBRANCH   7  10
ENDBRANCH   4   7
BRANCH   1  18
ATOM     18  C   UNL     1       3.168   4.661  19.569  0.00  0.00    +0.000 C 
BRANCH  18  29
ATOM     19  O   UNL     1       2.769   3.752  16.784  0.00  0.00    +0.000 OA
ATOM     20  C   UNL     1       3.834   4.118  17.240  0.00  0.00    +0.000 C 
ATOM     21  C   UNL     1       5.049   4.258  16.449  0.00  0.00    +0.000 A 
ATOM     22  C   UNL     1       5.311   4.041  15.114  0.00  0.00    +0.000 A 
ATOM     23  C   UNL     1       6.596   4.363  14.668  0.00  0.00    +0.000 A 
ATOM     24  C   UNL     1       7.527   4.882  15.579  0.00  0.00    +0.000 A 
ATOM     25  N   UNL     1       7.274   5.096  16.893  0.00  0.00    +0.000 NA
ATOM     26  C   UNL     1       6.027   4.761  17.272  0.00  0.00    +0.000 A 
ATOM     27  C   UNL     1       5.444   4.938  18.611  0.00  0.00    +0.000 C 
ATOM     28  O   UNL     1       6.006   5.396  19.589  0.00  0.00    +0.000 OA
ATOM     29  N   UNL     1       4.140   4.523  18.509  0.00  0.00    +0.000 N 
ENDBRANCH  18  29
ENDBRANCH   1  18
TORSDOF 6
ENDMDL
MODEL 5
REMARK VINA RESULT:      -7.9      2.029      2.568
REMARK  Name = 
REMARK  6 active torsions:
REMARK  status: ('A' for Active; 'I' for Inactive)
REMARK    1  A    between atoms: N_11  and  C_12
REMARK    2  A    between atoms: C_12  and  C_13
REMARK    3  A    between atoms: C_16  and  S_17
REMARK    4  A    between atoms: S_17  and  N_20
REMARK    5  A    between atoms: N_20  and  C_21
REMARK    6  A    between atoms: C_21  and  C_22
REMARK                            x       y       z     vdW  Elec       q    Type
REMARK                         _______ _______ _______ _____ _____    ______ ____
ROOT
ATOM      1  C   UNL     1       2.456   8.083  18.363  0.00  0.00    +0.000 A 
ATOM      2  C   UNL     1       2.058   7.792  19.676  0.00  0.00    +0.000 A 
ATOM      3  C   UNL     1       1.323   8.723  20.416  0.00  0.00    +0.000 A 
ATOM      4  C   UNL     1       0.961   9.943  19.838  0.00  0.00    +0.000 A 
ATOM      5  C   UNL     1       1.286  10.210  18.507  0.00  0.00    +0.000 A 
ATOM      6  C   UNL     1       2.040   9.287  17.777  0.00  0.00    +0.000 A 
ENDROOT
BRANCH   4   7
ATOM      7  S   UNL     1       0.044  11.129  20.802  0.00  0.00    +0.000 S 
ATOM      8  O   UNL     1      -0.909  10.388  21.599  0.00  0.00    +0.000 OA
ATOM      9  O   UNL     1       1.008  12.025  21.398  0.00  0.00    +0.000 OA
BRANCH   7  10
ATOM     10  N   UNL     1      -0.794  12.043  19.647  0.00  0.00    +0.000 NA
ATOM     11  H   UNL     1      -0.337  12.034  18.736  0.00  0.00    +0.000 HD
BRANCH  10  12
ATOM     12  C   UNL     1      -2.239  11.777  19.571  0.00  0.00    +0.000 C 
BRANCH  12  13
ATOM     13  C   UNL     1      -2.568  11.105  18.288  0.00  0.00    +0.000 A 
ATOM     14  C   UNL     1      -2.098   9.963  17.674  0.00  0.00    +0.000 A 
ATOM     15  C   UNL     1      -2.684   9.931  16.386  0.00  0.00    +0.000 A 
ATOM     16  C   UNL     1      -3.498  11.037  16.308  0.00  0.00    +0.000 A 
ATOM     17  O   UNL     1      -3.443  11.751  17.463  0.00  0.00    +0.000 OA
ENDBRANCH  12  13
ENDBRANCH  10  12
ENDBRANCH   7  10
ENDBRANCH   4   7
BRANCH   1  18
ATOM     18  C   UNL     1       3.334   7.121  17.598  0.00  0.00    +0.000 C 
BRANCH  18  29
ATOM     19  O   UNL     1       1.345   4.943  17.400  0.00  0.00    +0.000 OA
ATOM     20  C   UNL     1       2.400   4.856  17.996  0.00  0.00    +0.000 C 
ATOM     21  C   UNL     1       2.883   3.629  18.614  0.00  0.00    +0.000 A 
ATOM     22  C   UNL     1       2.346   2.362  18.693  0.00  0.00    +0.000 A 
ATOM     23  C   UNL     1       3.136   1.385  19.304  0.00  0.00    +0.000 A 
ATOM     24  C   UNL     1       4.406   1.734  19.788  0.00  0.00    +0.000 A 
ATOM     25  N   UNL     1       4.938   2.978  19.713  0.00  0.00    +0.000 NA
ATOM     26  C   UNL     1       4.132   3.882  19.125  0.00  0.00    +0.000 A 
ATOM     27  C   UNL     1       4.458   5.290  18.846  0.00  0.00    +0.000 C 
ATOM     28  O   UNL     1       5.498   5.859  19.121  0.00  0.00    +0.000 OA
ATOM     29  N   UNL     1       3.372   5.799  18.181  0.00  0.00    +0.000 N 
ENDBRANCH  18  29
ENDBRANCH   1  18
TORSDOF 6
ENDMDL
MODEL 6
REMARK VINA RESULT:      -7.8      2.154      9.082
REMARK  Name = 
REMARK  6 active torsions:
REMARK  status: ('A' for Active; 'I' for Inactive)
REMARK    1  A    between atoms: N_11  and  C_12
REMARK    2  A    between atoms: C_12  and  C_13
REMARK    3  A    between atoms: C_16  and  S_17
REMARK    4  A    between atoms: S_17  and  N_20
REMARK    5  A    between atoms: N_20  and  C_21
REMARK    6  A    between atoms: C_21  and  C_22
REMARK                            x       y       z     vdW  Elec       q    Type
REMARK                         _______ _______ _______ _____ _____    ______ ____
ROOT
ATOM      1  C   UNL     1       1.817   8.853  18.903  0.00  0.00    +0.000 A 
ATOM      2  C   UNL     1       1.542   8.402  20.202  0.00  0.00    +0.000 A 
ATOM      3  C   UNL     1       1.709   7.055  20.534  0.00  0.00    +0.000 A 
ATOM      4  C   UNL     1       2.176   6.153  19.573  0.00  0.00    +0.000 A 
ATOM      5  C   UNL     1       2.526   6.606  18.300  0.00  0.00    +0.000 A 
ATOM      6  C   UNL     1       2.337   7.950  17.964  0.00  0.00    +0.000 A 
ENDROOT
BRANCH   4   7
ATOM      7  S   UNL     1       2.363   4.434  20.005  0.00  0.00    +0.000 S 
ATOM      8  O   UNL     1       2.193   4.331  21.438  0.00  0.00    +0.000 OA
ATOM      9  O   UNL     1       1.550   3.676  19.082  0.00  0.00    +0.000 OA
BRANCH   7  10
ATOM     10  N   UNL     1       3.973   4.080  19.614  0.00  0.00    +0.000 NA
ATOM     11  H   UNL     1       4.462   3.602  20.370  0.00  0.00    +0.000 HD
BRANCH  10  12
ATOM     12  C   UNL     1       4.170   3.443  18.303  0.00  0.00    +0.000 C 
BRANCH  12  13
ATOM     13  C   UNL     1       5.372   4.005  17.636  0.00  0.00    +0.000 A 
ATOM     14  C   UNL     1       5.705   4.218  16.315  0.00  0.00    +0.000 A 
ATOM     15  C   UNL     1       7.058   4.632  16.305  0.00  0.00    +0.000 A 
ATOM     16  C   UNL     1       7.455   4.676  17.620  0.00  0.00    +0.000 A 
ATOM     17  O   UNL     1       6.435   4.308  18.439  0.00  0.00    +0.000 OA
ENDBRANCH  12  13
ENDBRANCH  10  12
ENDBRANCH   7  10
ENDBRANCH   4   7
BRANCH   1  18
ATOM     18  C   UNL     1       1.543  10.288  18.515  0.00  0.00    +0.000 C 
BRANCH  18  29
ATOM     19  O   UNL     1       1.260  11.885  20.986  0.00  0.00    +0.000 OA
ATOM     20  C   UNL     1       0.336  11.577  20.260  0.00  0.00    +0.000 C 
ATOM     21  C   UNL     1      -1.032  12.038  20.448  0.00  0.00    +0.000 A 
ATOM     22  C   UNL     1      -1.607  12.859  21.394  0.00  0.00    +0.000 A 
ATOM     23  C   UNL     1      -2.960  13.161  21.221  0.00  0.00    +0.000 A 
ATOM     24  C   UNL     1      -3.645  12.632  20.117  0.00  0.00    +0.000 A 
ATOM     25  N   UNL     1      -3.084  11.823  19.185  0.00  0.00    +0.000 NA
ATOM     26  C   UNL     1      -1.783  11.556  19.405  0.00  0.00    +0.000 A 
ATOM     27  C   UNL     1      -0.895  10.765  18.537  0.00  0.00    +0.000 C 
ATOM     28  O   UNL     1      -1.205  10.215  17.497  0.00  0.00    +0.000 OA
ATOM     29  N   UNL     1       0.344  10.821  19.121  0.00  0.00    +0.000 N 
ENDBRANCH  18  29
ENDBRANCH   1  18
TORSDOF 6
ENDMDL
MODEL 7
REMARK VINA RESULT:      -7.8      2.287      2.682
REMARK  Name = 
REMARK  6 active torsions:
REMARK  status: ('A' for Active; 'I' for Inactive)
REMARK    1  A    between atoms: N_11  and  C_12
REMARK    2  A    between atoms: C_12  and  C_13
REMARK    3  A    between atoms: C_16  and  S_17
REMARK    4  A    between atoms: S_17  and  N_20
REMARK    5  A    between atoms: N_20  and  C_21
REMARK    6  A    between atoms: C_21  and  C_22
REMARK                            x       y       z     vdW  Elec       q    Type
REMARK                         _______ _______ _______ _____ _____    ______ ____
ROOT
ATOM      1  C   UNL     1       2.624   6.299  19.708  0.00  0.00    +0.000 A 
ATOM      2  C   UNL     1       1.838   6.757  20.775  0.00  0.00    +0.000 A 
ATOM      3  C   UNL     1       1.239   8.019  20.723  0.00  0.00    +0.000 A 
ATOM      4  C   UNL     1       1.404   8.822  19.591  0.00  0.00    +0.000 A 
ATOM      5  C   UNL     1       2.120   8.344  18.492  0.00  0.00    +0.000 A 
ATOM      6  C   UNL     1       2.736   7.091  18.556  0.00  0.00    +0.000 A 
ENDROOT
BRANCH   4   7
ATOM      7  S   UNL     1       0.653  10.438  19.548  0.00  0.00    +0.000 S 
ATOM      8  O   UNL     1       1.400  11.233  18.598  0.00  0.00    +0.000 OA
ATOM      9  O   UNL     1      -0.773  10.238  19.424  0.00  0.00    +0.000 OA
BRANCH   7  10
ATOM     10  N   UNL     1       0.907  11.055  21.106  0.00  0.00    +0.000 NA
ATOM     11  H   UNL     1       1.853  10.883  21.443  0.00  0.00    +0.000 HD
BRANCH  10  12
ATOM     12  C   UNL     1       0.465  12.443  21.305  0.00  0.00    +0.000 C 
BRANCH  12  13
ATOM     13  C   UNL     1      -0.877  12.466  21.942  0.00  0.00    +0.000 A 
ATOM     14  C   UNL     1      -1.382  11.908  23.098  0.00  0.00    +0.000 A 
ATOM     15  C   UNL     1      -2.777  12.147  23.081  0.00  0.00    +0.000 A 
ATOM     16  C   UNL     1      -3.029  12.862  21.935  0.00  0.00    +0.000 A 
ATOM     17  O   UNL     1      -1.880  13.071  21.240  0.00  0.00    +0.000 OA
ENDBRANCH  12  13
ENDBRANCH  10  12
ENDBRANCH   7  10
ENDBRANCH   4   7
BRANCH   1  18
ATOM     18  C   UNL     1       3.352   4.979  19.804  0.00  0.00    +0.000 C 
BRANCH  18  29
ATOM     19  O   UNL     1       2.710   3.943  17.111  0.00  0.00    +0.000 OA
ATOM     20  C   UNL     1       3.822   4.279  17.469  0.00  0.00    +0.000 C 
ATOM     21  C   UNL     1       4.981   4.315  16.589  0.00  0.00    +0.000 A 
ATOM     22  C   UNL     1       5.135   4.014  15.253  0.00  0.00    +0.000 A 
ATOM     23  C   UNL     1       6.398   4.245  14.701  0.00  0.00    +0.000 A 
ATOM     24  C   UNL     1       7.416   4.765  15.513  0.00  0.00    +0.000 A 
ATOM     25  N   UNL     1       7.269   5.062  16.828  0.00  0.00    +0.000 NA
ATOM     26  C   UNL     1       6.039   4.811  17.311  0.00  0.00    +0.000 A 
ATOM     27  C   UNL     1       5.563   5.089  18.676  0.00  0.00    +0.000 C 
ATOM     28  O   UNL     1       6.215   5.569  19.584  0.00  0.00    +0.000 OA
ATOM     29  N   UNL     1       4.238   4.736  18.688  0.00  0.00    +0.000 N 
ENDBRANCH  18  29
ENDBRANCH   1  18
TORSDOF 6
ENDMDL
MODEL 8
REMARK VINA RESULT:      -7.8      2.199      9.119
REMARK  Name = 
REMARK  6 active torsions:
REMARK  status: ('A' for Active; 'I' for Inactive)
REMARK    1  A    between atoms: N_11  and  C_12
REMARK    2  A    between atoms: C_12  and  C_13
REMARK    3  A    between atoms: C_16  and  S_17
REMARK    4  A    between atoms: S_17  and  N_20
REMARK    5  A    between atoms: N_20  and  C_21
REMARK    6  A    between atoms: C_21  and  C_22
REMARK                            x       y       z     vdW  Elec       q    Type
REMARK                         _______ _______ _______ _____ _____    ______ ____
ROOT
ATOM      1  C   UNL     1       1.288   9.602  18.962  0.00  0.00    +0.000 A 
ATOM      2  C   UNL     1       1.836   8.832  17.926  0.00  0.00    +0.000 A 
ATOM      3  C   UNL     1       2.289   7.534  18.171  0.00  0.00    +0.000 A 
ATOM      4  C   UNL     1       2.175   6.987  19.453  0.00  0.00    +0.000 A 
ATOM      5  C   UNL     1       1.560   7.716  20.473  0.00  0.00    +0.000 A 
ATOM      6  C   UNL     1       1.129   9.023  20.229  0.00  0.00    +0.000 A 
ENDROOT
BRANCH   4   7
ATOM      7  S   UNL     1       2.778   5.337  19.757  0.00  0.00    +0.000 S 
ATOM      8  O   UNL     1       2.432   4.999  21.121  0.00  0.00    +0.000 OA
ATOM      9  O   UNL     1       2.363   4.523  18.638  0.00  0.00    +0.000 OA
BRANCH   7  10
ATOM     10  N   UNL     1       4.462   5.482  19.635  0.00  0.00    +0.000 NA
ATOM     11  H   UNL     1       4.902   5.681  20.532  0.00  0.00    +0.000 HD
BRANCH  10  12
ATOM     12  C   UNL     1       5.127   4.401  18.892  0.00  0.00    +0.000 C 
BRANCH  12  13
ATOM     13  C   UNL     1       5.331   4.804  17.477  0.00  0.00    +0.000 A 
ATOM     14  C   UNL     1       5.419   6.028  16.848  0.00  0.00    +0.000 A 
ATOM     15  C   UNL     1       5.452   5.763  15.459  0.00  0.00    +0.000 A 
ATOM     16  C   UNL     1       5.416   4.395  15.329  0.00  0.00    +0.000 A 
ATOM     17  O   UNL     1       5.353   3.802  16.550  0.00  0.00    +0.000 OA
ENDBRANCH  12  13
ENDBRANCH  10  12
ENDBRANCH   7  10
ENDBRANCH   4   7
BRANCH   1  18
ATOM     18  C   UNL     1       0.890  11.040  18.721  0.00  0.00    +0.000 C 
BRANCH  18  29
ATOM     19  O   UNL     1      -0.326  12.747  20.806  0.00  0.00    +0.000 OA
ATOM     20  C   UNL     1      -0.957  12.133  19.968  0.00  0.00    +0.000 C 
ATOM     21  C   UNL     1      -2.401  12.232  19.808  0.00  0.00    +0.000 A 
ATOM     22  C   UNL     1      -3.356  12.963  20.480  0.00  0.00    +0.000 A 
ATOM     23  C   UNL     1      -4.664  12.877  19.997  0.00  0.00    +0.000 A 
ATOM     24  C   UNL     1      -4.930  12.076  18.877  0.00  0.00    +0.000 A 
ATOM     25  N   UNL     1      -3.994  11.355  18.213  0.00  0.00    +0.000 NA
ATOM     26  C   UNL     1      -2.755  11.465  18.725  0.00  0.00    +0.000 A 
ATOM     27  C   UNL     1      -1.529  10.855  18.185  0.00  0.00    +0.000 C 
ATOM     28  O   UNL     1      -1.451  10.139  17.203  0.00  0.00    +0.000 OA
ATOM     29  N   UNL     1      -0.508  11.295  18.987  0.00  0.00    +0.000 N 
ENDBRANCH  18  29
ENDBRANCH   1  18
TORSDOF 6
ENDMDL
MODEL 9
REMARK VINA RESULT:      -7.8      3.502      8.849
REMARK  Name = 
REMARK  6 active torsions:
REMARK  status: ('A' for Active; 'I' for Inactive)
REMARK    1  A    between atoms: N_11  and  C_12
REMARK    2  A    between atoms: C_12  and  C_13
REMARK    3  A    between atoms: C_16  and  S_17
REMARK    4  A    between atoms: S_17  and  N_20
REMARK    5  A    between atoms: N_20  and  C_21
REMARK    6  A    between atoms: C_21  and  C_22
REMARK                            x       y       z     vdW  Elec       q    Type
REMARK                         _______ _______ _______ _____ _____    ______ ____
ROOT
ATOM      1  C   UNL     1       1.214   9.669  19.049  0.00  0.00    +0.000 A 
ATOM      2  C   UNL     1       1.321   8.803  20.147  0.00  0.00    +0.000 A 
ATOM      3  C   UNL     1       1.956   7.566  20.015  0.00  0.00    +0.000 A 
ATOM      4  C   UNL     1       2.509   7.195  18.785  0.00  0.00    +0.000 A 
ATOM      5  C   UNL     1       2.476   8.081  17.707  0.00  0.00    +0.000 A 
ATOM      6  C   UNL     1       1.821   9.309  17.837  0.00  0.00    +0.000 A 
ENDROOT
BRANCH   4   7
ATOM      7  S   UNL     1       3.296   5.603  18.625  0.00  0.00    +0.000 S 
ATOM      8  O   UNL     1       4.162   5.436  19.772  0.00  0.00    +0.000 OA
ATOM      9  O   UNL     1       2.259   4.650  18.304  0.00  0.00    +0.000 OA
BRANCH   7  10
ATOM     10  N   UNL     1       4.248   5.750  17.231  0.00  0.00    +0.000 NA
ATOM     11  H   UNL     1       4.310   6.712  16.900  0.00  0.00    +0.000 HD
BRANCH  10  12
ATOM     12  C   UNL     1       5.553   5.075  17.295  0.00  0.00    +0.000 C 
BRANCH  12  13
ATOM     13  C   UNL     1       6.620   6.057  17.621  0.00  0.00    +0.000 A 
ATOM     14  C   UNL     1       7.586   6.108  18.604  0.00  0.00    +0.000 A 
ATOM     15  C   UNL     1       8.202   7.377  18.493  0.00  0.00    +0.000 A 
ATOM     16  C   UNL     1       7.596   8.006  17.432  0.00  0.00    +0.000 A 
ATOM     17  O   UNL     1       6.641   7.208  16.887  0.00  0.00    +0.000 OA
ENDBRANCH  12  13
ENDBRANCH  10  12
ENDBRANCH   7  10
ENDBRANCH   4   7
BRANCH   1  18
ATOM     18  C   UNL     1       0.441  10.962  19.165  0.00  0.00    +0.000 C 
BRANCH  18  29
ATOM     19  O   UNL     1       2.483  12.655  17.859  0.00  0.00    +0.000 OA
ATOM     20  C   UNL     1       2.124  12.781  19.013  0.00  0.00    +0.000 C 
ATOM     21  C   UNL     1       2.575  13.852  19.890  0.00  0.00    +0.000 A 
ATOM     22  C   UNL     1       3.439  14.907  19.690  0.00  0.00    +0.000 A 
ATOM     23  C   UNL     1       3.582  15.808  20.748  0.00  0.00    +0.000 A 
ATOM     24  C   UNL     1       2.852  15.601  21.929  0.00  0.00    +0.000 A 
ATOM     25  N   UNL     1       2.002  14.565  22.130  0.00  0.00    +0.000 NA
ATOM     26  C   UNL     1       1.910  13.722  21.085  0.00  0.00    +0.000 A 
ATOM     27  C   UNL     1       1.027  12.549  20.985  0.00  0.00    +0.000 C 
ATOM     28  O   UNL     1       0.258  12.148  21.839  0.00  0.00    +0.000 OA
ATOM     29  N   UNL     1       1.221  12.042  19.725  0.00  0.00    +0.000 N 
ENDBRANCH  18  29
ENDBRANCH   1  18
TORSDOF 6
ENDMDL
