MODEL 1
REMARK VINA RESULT:      -3.8      0.000      0.000
REMARK  Name = 
REMARK  5 active torsions:
REMARK  status: ('A' for Active; 'I' for Inactive)
REMARK    1  A    between atoms: C_2  and  O_3
REMARK    2  A    between atoms: O_3  and  C_4
REMARK    3  A    between atoms: C_4  and  C_5
REMARK    4  A    between atoms: C_5  and  C_6
REMARK    5  A    between atoms: C_6  and  C_7
REMARK                            x       y       z     vdW  Elec       q    Type
REMARK                         _______ _______ _______ _____ _____    ______ ____
ROOT
ATOM      1  C   UNL     1       5.691   2.841  11.846  0.00  0.00    +0.000 C 
ENDROOT
BRANCH   1   2
ATOM      2  O   UNL     1       6.541   3.610  12.703  0.00  0.00    +0.000 OA
BRANCH   2   4
ATOM      3  C   UNL     1       6.708   4.405  14.903  0.00  0.00    +0.000 C 
ATOM      4  C   UNL     1       5.964   3.951  13.891  0.00  0.00    +0.000 C 
ENDBRANCH   2   4
ENDBRANCH   1   2
BRANCH   1   5
ATOM      5  C   UNL     1       4.368   3.593  11.736  0.00  0.00    +0.000 C 
BRANCH   5   6
ATOM      6  C   UNL     1       3.469   3.030  10.640  0.00  0.00    +0.000 C 
ATOM      7  C   UNL     1       3.013   4.123   9.687  0.00  0.00    +0.000 C 
ENDBRANCH   5   6
ENDBRANCH   1   5
TORSDOF 4
ENDMDL
MODEL 2
REMARK VINA RESULT:      -3.7      1.874      3.114
REMARK  Name = 
REMARK  5 active torsions:
REMARK  status: ('A' for Active; 'I' for Inactive)
REMARK    1  A    between atoms: C_2  and  O_3
REMARK    2  A    between atoms: O_3  and  C_4
REMARK    3  A    between atoms: C_4  and  C_5
REMARK    4  A    between atoms: C_5  and  C_6
REMARK    5  A    between atoms: C_6  and  C_7
REMARK                            x       y       z     vdW  Elec       q    Type
REMARK                         _______ _______ _______ _____ _____    ______ ____
ROOT
ATOM      1  C   UNL     1       7.087   5.046  14.248  0.00  0.00    +0.000 C 
ENDROOT
BRANCH   1   2
ATOM      2  O   UNL     1       7.808   4.657  15.423  0.00  0.00    +0.000 OA
BRANCH   2   4
ATOM      3  C   UNL     1       7.541   4.706  17.752  0.00  0.00    +0.000 C 
ATOM      4  C   UNL     1       7.025   4.529  16.534  0.00  0.00    +0.000 C 
ENDBRANCH   2   4
ENDBRANCH   1   2
BRANCH   1   5
ATOM      5  C   UNL     1       6.132   3.905  13.910  0.00  0.00    +0.000 C 
BRANCH   5   6
ATOM      6  C   UNL     1       6.234   3.476  12.451  0.00  0.00    +0.000 C 
ATOM      7  C   UNL     1       4.857   3.259  11.844  0.00  0.00    +0.000 C 
ENDBRANCH   5   6
ENDBRANCH   1   5
TORSDOF 4
ENDMDL
MODEL 3
REMARK VINA RESULT:      -3.6      3.782      6.722
REMARK  Name = 
REMARK  5 active torsions:
REMARK  status: ('A' for Active; 'I' for Inactive)
REMARK    1  A    between atoms: C_2  and  O_3
REMARK    2  A    between atoms: O_3  and  C_4
REMARK    3  A    between atoms: C_4  and  C_5
REMARK    4  A    between atoms: C_5  and  C_6
REMARK    5  A    between atoms: C_6  and  C_7
REMARK                            x       y       z     vdW  Elec       q    Type
REMARK                         _______ _______ _______ _____ _____    ______ ____
ROOT
ATOM      1  C   UNL     1       6.879   5.214  17.409  0.00  0.00    +0.000 C 
ENDROOT
BRANCH   1   2
ATOM      2  O   UNL     1       7.678   4.745  16.318  0.00  0.00    +0.000 OA
BRANCH   2   4
ATOM      3  C   UNL     1       6.027   4.015  14.822  0.00  0.00    +0.000 C 
ATOM      4  C   UNL     1       7.055   4.817  15.106  0.00  0.00    +0.000 C 
ENDBRANCH   2   4
ENDBRANCH   1   2
BRANCH   1   5
ATOM      5  C   UNL     1       7.641   6.365  18.059  0.00  0.00    +0.000 C 
BRANCH   5   6
ATOM      6  C   UNL     1       7.355   7.704  17.389  0.00  0.00    +0.000 C 
ATOM      7  C   UNL     1       8.221   8.808  17.972  0.00  0.00    +0.000 C 
ENDBRANCH   5   6
ENDBRANCH   1   5
TORSDOF 4
ENDMDL
MODEL 4
REMARK VINA RESULT:      -3.5      6.647      8.078
REMARK  Name = 
REMARK  5 active torsions:
REMARK  status: ('A' for Active; 'I' for Inactive)
REMARK    1  A    between atoms: C_2  and  O_3
REMARK    2  A    between atoms: O_3  and  C_4
REMARK    3  A    between atoms: C_4  and  C_5
REMARK    4  A    between atoms: C_5  and  C_6
REMARK    5  A    between atoms: C_6  and  C_7
REMARK                            x       y       z     vdW  Elec       q    Type
REMARK                         _______ _______ _______ _____ _____    ______ ____
ROOT
ATOM      1  C   UNL     1       2.011   1.898  18.970  0.00  0.00    +0.000 C 
ENDROOT
BRANCH   1   2
ATOM      2  O   UNL     1       2.558   2.219  17.687  0.00  0.00    +0.000 OA
BRANCH   2   4
ATOM      3  C   UNL     1       3.935   4.024  17.098  0.00  0.00    +0.000 C 
ATOM      4  C   UNL     1       3.756   2.870  17.745  0.00  0.00    +0.000 C 
ENDBRANCH   2   4
ENDBRANCH   1   2
BRANCH   1   5
ATOM      5  C   UNL     1       0.841   2.848  19.209  0.00  0.00    +0.000 C 
BRANCH   5   6
ATOM      6  C   UNL     1       1.035   3.708  20.453  0.00  0.00    +0.000 C 
ATOM      7  C   UNL     1       1.738   2.931  21.554  0.00  0.00    +0.000 C 
ENDBRANCH   5   6
ENDBRANCH   1   5
TORSDOF 4
ENDMDL
MODEL 5
REMARK VINA RESULT:      -3.5      2.772      4.319
REMARK  Name = 
REMARK  5 active torsions:
REMARK  status: ('A' for Active; 'I' for Inactive)
REMARK    1  A    between atoms: C_2  and  O_3
REMARK    2  A    between atoms: O_3  and  C_4
REMARK    3  A    between atoms: C_4  and  C_5
REMARK    4  A    between atoms: C_5  and  C_6
REMARK    5  A    between atoms: C_6  and  C_7
REMARK                            x       y       z     vdW  Elec       q    Type
REMARK                         _______ _______ _______ _____ _____    ______ ____
ROOT
ATOM      1  C   UNL     1       6.839   4.938  15.795  0.00  0.00    +0.000 C 
ENDROOT
BRANCH   1   2
ATOM      2  O   UNL     1       6.807   6.332  16.116  0.00  0.00    +0.000 OA
BRANCH   2   4
ATOM      3  C   UNL     1       7.724   7.867  17.634  0.00  0.00    +0.000 C 
ATOM      4  C   UNL     1       7.318   6.628  17.347  0.00  0.00    +0.000 C 
ENDBRANCH   2   4
ENDBRANCH   1   2
BRANCH   1   5
ATOM      5  C   UNL     1       6.936   4.829  14.276  0.00  0.00    +0.000 C 
BRANCH   5   6
ATOM      6  C   UNL     1       5.932   3.837  13.700  0.00  0.00    +0.000 C 
ATOM      7  C   UNL     1       6.307   3.435  12.283  0.00  0.00    +0.000 C 
ENDBRANCH   5   6
ENDBRANCH   1   5
TORSDOF 4
ENDMDL
MODEL 6
REMARK VINA RESULT:      -3.5      6.412      7.783
REMARK  Name = 
REMARK  5 active torsions:
REMARK  status: ('A' for Active; 'I' for Inactive)
REMARK    1  A    between atoms: C_2  and  O_3
REMARK    2  A    between atoms: O_3  and  C_4
REMARK    3  A    between atoms: C_4  and  C_5
REMARK    4  A    between atoms: C_5  and  C_6
REMARK    5  A    between atoms: C_6  and  C_7
REMARK                            x       y       z     vdW  Elec       q    Type
REMARK                         _______ _______ _______ _____ _____    ______ ____
ROOT
ATOM      1  C   UNL     1       1.318   3.824  18.106  0.00  0.00    +0.000 C 
ENDROOT
BRANCH   1   2
ATOM      2  O   UNL     1       2.162   3.178  17.147  0.00  0.00    +0.000 OA
BRANCH   2   4
ATOM      3  C   UNL     1       3.775   4.848  17.477  0.00  0.00    +0.000 C 
ATOM      4  C   UNL     1       3.466   3.580  17.199  0.00  0.00    +0.000 C 
ENDBRANCH   2   4
ENDBRANCH   1   2
BRANCH   1   5
ATOM      5  C   UNL     1       0.932   2.773  19.143  0.00  0.00    +0.000 C 
BRANCH   5   6
ATOM      6  C   UNL     1       1.139   3.263  20.571  0.00  0.00    +0.000 C 
ATOM      7  C   UNL     1       1.568   4.722  20.596  0.00  0.00    +0.000 C 
ENDBRANCH   5   6
ENDBRANCH   1   5
TORSDOF 4
ENDMDL
MODEL 7
REMARK VINA RESULT:      -3.5      1.108      4.300
REMARK  Name = 
REMARK  5 active torsions:
REMARK  status: ('A' for Active; 'I' for Inactive)
REMARK    1  A    between atoms: C_2  and  O_3
REMARK    2  A    between atoms: O_3  and  C_4
REMARK    3  A    between atoms: C_4  and  C_5
REMARK    4  A    between atoms: C_5  and  C_6
REMARK    5  A    between atoms: C_6  and  C_7
REMARK                            x       y       z     vdW  Elec       q    Type
REMARK                         _______ _______ _______ _____ _____    ______ ____
ROOT
ATOM      1  C   UNL     1       5.395   2.765  11.870  0.00  0.00    +0.000 C 
ENDROOT
BRANCH   1   2
ATOM      2  O   UNL     1       4.228   3.569  11.669  0.00  0.00    +0.000 OA
BRANCH   2   4
ATOM      3  C   UNL     1       3.017   4.045   9.718  0.00  0.00    +0.000 C 
ATOM      4  C   UNL     1       3.452   3.164  10.622  0.00  0.00    +0.000 C 
ENDBRANCH   2   4
ENDBRANCH   1   2
BRANCH   1   5
ATOM      5  C   UNL     1       6.344   3.566  12.756  0.00  0.00    +0.000 C 
BRANCH   5   6
ATOM      6  C   UNL     1       5.638   4.172  13.964  0.00  0.00    +0.000 C 
ATOM      7  C   UNL     1       6.554   4.209  15.176  0.00  0.00    +0.000 C 
ENDBRANCH   5   6
ENDBRANCH   1   5
TORSDOF 4
ENDMDL
MODEL 8
REMARK VINA RESULT:      -3.5      4.313      6.684
REMARK  Name = 
REMARK  5 active torsions:
REMARK  status: ('A' for Active; 'I' for Inactive)
REMARK    1  A    between atoms: C_2  and  O_3
REMARK    2  A    between atoms: O_3  and  C_4
REMARK    3  A    between atoms: C_4  and  C_5
REMARK    4  A    between atoms: C_5  and  C_6
REMARK    5  A    between atoms: C_6  and  C_7
REMARK                            x       y       z     vdW  Elec       q    Type
REMARK                         _______ _______ _______ _____ _____    ______ ____
ROOT
ATOM      1  C   UNL     1       6.685   6.487  16.631  0.00  0.00    +0.000 C 
ENDROOT
BRANCH   1   2
ATOM      2  O   UNL     1       7.540   5.717  15.779  0.00  0.00    +0.000 OA
BRANCH   2   4
ATOM      3  C   UNL     1       6.029   3.925  15.720  0.00  0.00    +0.000 C 
ATOM      4  C   UNL     1       6.895   4.727  15.097  0.00  0.00    +0.000 C 
ENDBRANCH   2   4
ENDBRANCH   1   2
BRANCH   1   5
ATOM      5  C   UNL     1       7.533   6.961  17.807  0.00  0.00    +0.000 C 
BRANCH   5   6
ATOM      6  C   UNL     1       7.688   5.890  18.881  0.00  0.00    +0.000 C 
ATOM      7  C   UNL     1       6.342   5.301  19.269  0.00  0.00    +0.000 C 
ENDBRANCH   5   6
ENDBRANCH   1   5
TORSDOF 4
ENDMDL
MODEL 9
REMARK VINA RESULT:      -3.5      2.327      3.677
REMARK  Name = 
REMARK  5 active torsions:
REMARK  status: ('A' for Active; 'I' for Inactive)
REMARK    1  A    between atoms: C_2  and  O_3
REMARK    2  A    between atoms: O_3  and  C_4
REMARK    3  A    between atoms: C_4  and  C_5
REMARK    4  A    between atoms: C_5  and  C_6
REMARK    5  A    between atoms: C_6  and  C_7
REMARK                            x       y       z     vdW  Elec       q    Type
REMARK                         _______ _______ _______ _____ _____    ______ ____
ROOT
ATOM      1  C   UNL     1       6.003   5.242  14.917  0.00  0.00    +0.000 C 
ENDROOT
BRANCH   1   2
ATOM      2  O   UNL     1       7.164   5.678  15.632  0.00  0.00    +0.000 OA
BRANCH   2   4
ATOM      3  C   UNL     1       7.548   7.066  17.482  0.00  0.00    +0.000 C 
ATOM      4  C   UNL     1       6.915   6.031  16.927  0.00  0.00    +0.000 C 
ENDBRANCH   2   4
ENDBRANCH   1   2
BRANCH   1   5
ATOM      5  C   UNL     1       6.310   3.850  14.371  0.00  0.00    +0.000 C 
BRANCH   5   6
ATOM      6  C   UNL     1       6.481   3.845  12.857  0.00  0.00    +0.000 C 
ATOM      7  C   UNL     1       5.241   3.304  12.164  0.00  0.00    +0.000 C 
ENDBRANCH   5   6
ENDBRANCH   1   5
TORSDOF 4
ENDMDL
