MODEL 1
REMARK VINA RESULT:      -7.6      0.000      0.000
REMARK  Name = 
REMARK  6 active torsions:
REMARK  status: ('A' for Active; 'I' for Inactive)
REMARK    1  A    between atoms: C_1  and  N_2
REMARK    2  A    between atoms: C_4  and  C_5
REMARK    3  A    between atoms: C_5  and  N_6
REMARK    4  A    between atoms: C_13  and  C_14
REMARK    5  A    between atoms: C_14  and  C_15
REMARK    6  A    between atoms: C_15  and  N_16
REMARK                            x       y       z     vdW  Elec       q    Type
REMARK                         _______ _______ _______ _____ _____    ______ ____
ROOT
ATOM      1  N   UNL     1       8.340   9.469  17.969  0.00  0.00    +0.000 N 
ATOM      2  C   UNL     1       7.847   8.180  17.996  0.00  0.00    +0.000 C 
ATOM      3  O   UNL     1       8.267   7.358  18.804  0.00  0.00    +0.000 OA
ATOM      4  N   UNL     1       6.909   7.959  17.026  0.00  0.00    +0.000 N 
ATOM      5  C   UNL     1       6.249   6.768  16.815  0.00  0.00    +0.000 A 
ATOM      6  N   UNL     1       5.617   6.484  15.697  0.00  0.00    +0.000 NA
ATOM      7  N   UNL     1       5.045   5.231  15.719  0.00  0.00    +0.000 NA
ATOM      8  C   UNL     1       5.242   4.613  16.868  0.00  0.00    +0.000 A 
ATOM      9  S   UNL     1       6.100   5.559  18.015  0.00  0.00    +0.000 S 
ATOM     10  H   UNL     1       7.708  10.194  17.679  0.00  0.00    +0.000 HD
ATOM     11  H   UNL     1       6.905   8.578  16.230  0.00  0.00    +0.000 HD
ENDROOT
BRANCH   1  12
ATOM     12  C   UNL     1       9.354   9.822  18.940  0.00  0.00    +0.000 C 
BRANCH  12  16
ATOM     13  C   UNL     1      11.564  13.913  17.035  0.00  0.00    +0.000 C 
ATOM     14  N   UNL     1      10.793  12.993  17.836  0.00  0.00    +0.000 N 
ATOM     15  C   UNL     1      10.667  11.645  17.659  0.00  0.00    +0.000 A 
ATOM     16  C   UNL     1       9.845  11.194  18.677  0.00  0.00    +0.000 A 
ATOM     17  C   UNL     1       9.529  12.367  19.400  0.00  0.00    +0.000 A 
ATOM     18  N   UNL     1      10.111  13.457  18.896  0.00  0.00    +0.000 NA
ENDBRANCH  12  16
ENDBRANCH   1  12
BRANCH   8  19
ATOM     19  C   UNL     1       4.756   3.232  17.209  0.00  0.00    +0.000 C 
BRANCH  19  20
ATOM     20  C   UNL     1       3.859   3.267  18.462  0.00  0.00    +0.000 C 
BRANCH  20  21
ATOM     21  N   UNL     1       2.768   4.267  18.472  0.00  0.00    +0.000 NA
ATOM     22  C   UNL     1       2.757   4.986  19.775  0.00  0.00    +0.000 C 
ATOM     23  C   UNL     1       2.236   4.133  20.948  0.00  0.00    +0.000 C 
ATOM     24  O   UNL     1       0.920   3.630  20.681  0.00  0.00    +0.000 OA
ATOM     25  C   UNL     1       0.902   2.871  19.465  0.00  0.00    +0.000 C 
ATOM     26  C   UNL     1       1.414   3.703  18.276  0.00  0.00    +0.000 C 
ENDBRANCH  20  21
ENDBRANCH  19  20
ENDBRANCH   8  19
TORSDOF 5
ENDMDL
MODEL 2
REMARK VINA RESULT:      -7.5      2.074      2.633
REMARK  Name = 
REMARK  6 active torsions:
REMARK  status: ('A' for Active; 'I' for Inactive)
REMARK    1  A    between atoms: C_1  and  N_2
REMARK    2  A    between atoms: C_4  and  C_5
REMARK    3  A    between atoms: C_5  and  N_6
REMARK    4  A    between atoms: C_13  and  C_14
REMARK    5  A    between atoms: C_14  and  C_15
REMARK    6  A    between atoms: C_15  and  N_16
REMARK                            x       y       z     vdW  Elec       q    Type
REMARK                         _______ _______ _______ _____ _____    ______ ____
ROOT
ATOM      1  N   UNL     1       9.372   9.718  18.945  0.00  0.00    +0.000 N 
ATOM      2  C   UNL     1       8.435   8.849  18.423  0.00  0.00    +0.000 C 
ATOM      3  O   UNL     1       7.601   9.230  17.609  0.00  0.00    +0.000 OA
ATOM      4  N   UNL     1       8.542   7.589  18.946  0.00  0.00    +0.000 N 
ATOM      5  C   UNL     1       7.740   6.519  18.613  0.00  0.00    +0.000 A 
ATOM      6  N   UNL     1       7.644   5.436  19.352  0.00  0.00    +0.000 NA
ATOM      7  N   UNL     1       6.772   4.511  18.819  0.00  0.00    +0.000 NA
ATOM      8  C   UNL     1       6.254   4.916  17.676  0.00  0.00    +0.000 A 
ATOM      9  S   UNL     1       6.849   6.440  17.157  0.00  0.00    +0.000 S 
ATOM     10  H   UNL     1      10.264   9.331  19.195  0.00  0.00    +0.000 HD
ATOM     11  H   UNL     1       9.015   7.490  19.832  0.00  0.00    +0.000 HD
ENDROOT
BRANCH   1  12
ATOM     12  C   UNL     1       9.349  11.089  18.481  0.00  0.00    +0.000 C 
BRANCH  12  16
ATOM     13  C   UNL     1       9.064  15.058  21.549  0.00  0.00    +0.000 C 
ATOM     14  N   UNL     1       9.255  13.741  20.991  0.00  0.00    +0.000 N 
ATOM     15  C   UNL     1       9.082  13.358  19.692  0.00  0.00    +0.000 A 
ATOM     16  C   UNL     1       9.397  12.012  19.638  0.00  0.00    +0.000 A 
ATOM     17  C   UNL     1       9.736  11.690  20.973  0.00  0.00    +0.000 A 
ATOM     18  N   UNL     1       9.659  12.740  21.792  0.00  0.00    +0.000 NA
ENDBRANCH  12  16
ENDBRANCH   1  12
BRANCH   8  19
ATOM     19  C   UNL     1       5.266   4.145  16.846  0.00  0.00    +0.000 C 
BRANCH  19  20
ATOM     20  C   UNL     1       3.980   3.871  17.650  0.00  0.00    +0.000 C 
BRANCH  20  21
ATOM     21  N   UNL     1       3.786   2.489  18.145  0.00  0.00    +0.000 NA
ATOM     22  C   UNL     1       2.404   2.034  17.833  0.00  0.00    +0.000 C 
ATOM     23  C   UNL     1       1.322   2.696  18.708  0.00  0.00    +0.000 C 
ATOM     24  O   UNL     1       1.581   2.485  20.103  0.00  0.00    +0.000 OA
ATOM     25  C   UNL     1       2.880   2.974  20.460  0.00  0.00    +0.000 C 
ATOM     26  C   UNL     1       3.980   2.324  19.602  0.00  0.00    +0.000 C 
ENDBRANCH  20  21
ENDBRANCH  19  20
ENDBRANCH   8  19
TORSDOF 5
ENDMDL
MODEL 3
REMARK VINA RESULT:      -7.5      1.967      2.539
REMARK  Name = 
REMARK  6 active torsions:
REMARK  status: ('A' for Active; 'I' for Inactive)
REMARK    1  A    between atoms: C_1  and  N_2
REMARK    2  A    between atoms: C_4  and  C_5
REMARK    3  A    between atoms: C_5  and  N_6
REMARK    4  A    between atoms: C_13  and  C_14
REMARK    5  A    between atoms: C_14  and  C_15
REMARK    6  A    between atoms: C_15  and  N_16
REMARK                            x       y       z     vdW  Elec       q    Type
REMARK                         _______ _______ _______ _____ _____    ______ ____
ROOT
ATOM      1  N   UNL     1       9.239   9.416  18.782  0.00  0.00    +0.000 N 
ATOM      2  C   UNL     1       8.305   8.552  18.247  0.00  0.00    +0.000 C 
ATOM      3  O   UNL     1       7.555   8.909  17.345  0.00  0.00    +0.000 OA
ATOM      4  N   UNL     1       8.313   7.330  18.860  0.00  0.00    +0.000 N 
ATOM      5  C   UNL     1       7.490   6.273  18.538  0.00  0.00    +0.000 A 
ATOM      6  N   UNL     1       7.286   5.250  19.338  0.00  0.00    +0.000 NA
ATOM      7  N   UNL     1       6.415   4.326  18.801  0.00  0.00    +0.000 NA
ATOM      8  C   UNL     1       6.006   4.671  17.595  0.00  0.00    +0.000 A 
ATOM      9  S   UNL     1       6.709   6.128  17.024  0.00  0.00    +0.000 S 
ATOM     10  H   UNL     1      10.091   9.012  19.128  0.00  0.00    +0.000 HD
ATOM     11  H   UNL     1       8.711   7.274  19.785  0.00  0.00    +0.000 HD
ENDROOT
BRANCH   1  12
ATOM     12  C   UNL     1       9.316  10.751  18.226  0.00  0.00    +0.000 C 
BRANCH  12  16
ATOM     13  C   UNL     1       9.008  13.138  22.637  0.00  0.00    +0.000 C 
ATOM     14  N   UNL     1       9.047  12.808  21.233  0.00  0.00    +0.000 N 
ATOM     15  C   UNL     1       9.206  11.572  20.676  0.00  0.00    +0.000 A 
ATOM     16  C   UNL     1       9.162  11.754  19.305  0.00  0.00    +0.000 A 
ATOM     17  C   UNL     1       8.983  13.148  19.155  0.00  0.00    +0.000 A 
ATOM     18  N   UNL     1       8.903  13.787  20.324  0.00  0.00    +0.000 NA
ENDBRANCH  12  16
ENDBRANCH   1  12
BRANCH   8  19
ATOM     19  C   UNL     1       5.048   3.885  16.744  0.00  0.00    +0.000 C 
BRANCH  19  20
ATOM     20  C   UNL     1       3.598   4.099  17.218  0.00  0.00    +0.000 C 
BRANCH  20  21
ATOM     21  N   UNL     1       2.812   2.883  17.526  0.00  0.00    +0.000 NA
ATOM     22  C   UNL     1       1.531   3.266  18.180  0.00  0.00    +0.000 C 
ATOM     23  C   UNL     1       1.698   3.750  19.634  0.00  0.00    +0.000 C 
ATOM     24  O   UNL     1       2.357   2.762  20.438  0.00  0.00    +0.000 OA
ATOM     25  C   UNL     1       3.630   2.415  19.878  0.00  0.00    +0.000 C 
ATOM     26  C   UNL     1       3.490   1.923  18.426  0.00  0.00    +0.000 C 
ENDBRANCH  20  21
ENDBRANCH  19  20
ENDBRANCH   8  19
TORSDOF 5
ENDMDL
MODEL 4
REMARK VINA RESULT:      -7.4      0.899      1.442
REMARK  Name = 
REMARK  6 active torsions:
REMARK  status: ('A' for Active; 'I' for Inactive)
REMARK    1  A    between atoms: C_1  and  N_2
REMARK    2  A    between atoms: C_4  and  C_5
REMARK    3  A    between atoms: C_5  and  N_6
REMARK    4  A    between atoms: C_13  and  C_14
REMARK    5  A    between atoms: C_14  and  C_15
REMARK    6  A    between atoms: C_15  and  N_16
REMARK                            x       y       z     vdW  Elec       q    Type
REMARK                         _______ _______ _______ _____ _____    ______ ____
ROOT
ATOM      1  N   UNL     1       8.390   9.442  17.860  0.00  0.00    +0.000 N 
ATOM      2  C   UNL     1       7.853   8.176  17.975  0.00  0.00    +0.000 C 
ATOM      3  O   UNL     1       8.237   7.400  18.843  0.00  0.00    +0.000 OA
ATOM      4  N   UNL     1       6.915   7.917  17.013  0.00  0.00    +0.000 N 
ATOM      5  C   UNL     1       6.216   6.737  16.880  0.00  0.00    +0.000 A 
ATOM      6  N   UNL     1       5.584   6.396  15.779  0.00  0.00    +0.000 NA
ATOM      7  N   UNL     1       4.969   5.167  15.885  0.00  0.00    +0.000 NA
ATOM      8  C   UNL     1       5.135   4.628  17.077  0.00  0.00    +0.000 A 
ATOM      9  S   UNL     1       6.016   5.624  18.162  0.00  0.00    +0.000 S 
ATOM     10  H   UNL     1       7.786  10.165  17.512  0.00  0.00    +0.000 HD
ATOM     11  H   UNL     1       6.940   8.477  16.174  0.00  0.00    +0.000 HD
ENDROOT
BRANCH   1  12
ATOM     12  C   UNL     1       9.408   9.829  18.814  0.00  0.00    +0.000 C 
BRANCH  12  16
ATOM     13  C   UNL     1       9.726  14.769  17.954  0.00  0.00    +0.000 C 
ATOM     14  N   UNL     1      10.017  13.373  18.169  0.00  0.00    +0.000 N 
ATOM     15  C   UNL     1       9.125  12.365  18.397  0.00  0.00    +0.000 A 
ATOM     16  C   UNL     1       9.869  11.206  18.525  0.00  0.00    +0.000 A 
ATOM     17  C   UNL     1      11.204  11.643  18.367  0.00  0.00    +0.000 A 
ATOM     18  N   UNL     1      11.294  12.955  18.141  0.00  0.00    +0.000 NA
ENDBRANCH  12  16
ENDBRANCH   1  12
BRANCH   8  19
ATOM     19  C   UNL     1       4.597   3.293  17.511  0.00  0.00    +0.000 C 
BRANCH  19  20
ATOM     20  C   UNL     1       4.361   3.271  19.033  0.00  0.00    +0.000 C 
BRANCH  20  21
ATOM     21  N   UNL     1       3.253   2.420  19.522  0.00  0.00    +0.000 NA
ATOM     22  C   UNL     1       2.043   2.641  18.684  0.00  0.00    +0.000 C 
ATOM     23  C   UNL     1       1.356   3.997  18.933  0.00  0.00    +0.000 C 
ATOM     24  O   UNL     1       1.003   4.156  20.314  0.00  0.00    +0.000 OA
ATOM     25  C   UNL     1       2.157   4.018  21.154  0.00  0.00    +0.000 C 
ATOM     26  C   UNL     1       2.859   2.668  20.927  0.00  0.00    +0.000 C 
ENDBRANCH  20  21
ENDBRANCH  19  20
ENDBRANCH   8  19
TORSDOF 5
ENDMDL
MODEL 5
REMARK VINA RESULT:      -7.3      0.790      1.039
REMARK  Name = 
REMARK  6 active torsions:
REMARK  status: ('A' for Active; 'I' for Inactive)
REMARK    1  A    between atoms: C_1  and  N_2
REMARK    2  A    between atoms: C_4  and  C_5
REMARK    3  A    between atoms: C_5  and  N_6
REMARK    4  A    between atoms: C_13  and  C_14
REMARK    5  A    between atoms: C_14  and  C_15
REMARK    6  A    between atoms: C_15  and  N_16
REMARK                            x       y       z     vdW  Elec       q    Type
REMARK                         _______ _______ _______ _____ _____    ______ ____
ROOT
ATOM      1  N   UNL     1       8.406   9.723  17.900  0.00  0.00    +0.000 N 
ATOM      2  C   UNL     1       7.964   8.417  17.972  0.00  0.00    +0.000 C 
ATOM      3  O   UNL     1       8.452   7.626  18.772  0.00  0.00    +0.000 OA
ATOM      4  N   UNL     1       6.991   8.144  17.051  0.00  0.00    +0.000 N 
ATOM      5  C   UNL     1       6.367   6.925  16.891  0.00  0.00    +0.000 A 
ATOM      6  N   UNL     1       5.695   6.599  15.809  0.00  0.00    +0.000 NA
ATOM      7  N   UNL     1       5.172   5.326  15.879  0.00  0.00    +0.000 NA
ATOM      8  C   UNL     1       5.446   4.737  17.027  0.00  0.00    +0.000 A 
ATOM      9  S   UNL     1       6.320   5.734  18.116  0.00  0.00    +0.000 S 
ATOM     10  H   UNL     1       7.734  10.418  17.629  0.00  0.00    +0.000 HD
ATOM     11  H   UNL     1       6.927   8.748  16.246  0.00  0.00    +0.000 HD
ENDROOT
BRANCH   1  12
ATOM     12  C   UNL     1       9.451  10.130  18.816  0.00  0.00    +0.000 C 
BRANCH  12  16
ATOM     13  C   UNL     1      10.175  15.017  17.897  0.00  0.00    +0.000 C 
ATOM     14  N   UNL     1      10.324  13.587  18.021  0.00  0.00    +0.000 N 
ATOM     15  C   UNL     1       9.405  12.696  18.495  0.00  0.00    +0.000 A 
ATOM     16  C   UNL     1       9.993  11.446  18.406  0.00  0.00    +0.000 A 
ATOM     17  C   UNL     1      11.274  11.713  17.873  0.00  0.00    +0.000 A 
ATOM     18  N   UNL     1      11.472  13.009  17.630  0.00  0.00    +0.000 NA
ENDBRANCH  12  16
ENDBRANCH   1  12
BRANCH   8  19
ATOM     19  C   UNL     1       5.028   3.345  17.413  0.00  0.00    +0.000 C 
BRANCH  19  20
ATOM     20  C   UNL     1       3.494   3.206  17.364  0.00  0.00    +0.000 C 
BRANCH  20  21
ATOM     21  N   UNL     1       2.716   4.104  18.246  0.00  0.00    +0.000 NA
ATOM     22  C   UNL     1       3.215   3.990  19.644  0.00  0.00    +0.000 C 
ATOM     23  C   UNL     1       2.824   2.669  20.335  0.00  0.00    +0.000 C 
ATOM     24  O   UNL     1       1.402   2.480  20.329  0.00  0.00    +0.000 OA
ATOM     25  C   UNL     1       0.889   2.514  18.991  0.00  0.00    +0.000 C 
ATOM     26  C   UNL     1       1.263   3.828  18.280  0.00  0.00    +0.000 C 
ENDBRANCH  20  21
ENDBRANCH  19  20
ENDBRANCH   8  19
TORSDOF 5
ENDMDL
MODEL 6
REMARK VINA RESULT:      -7.2      1.809      2.077
REMARK  Name = 
REMARK  6 active torsions:
REMARK  status: ('A' for Active; 'I' for Inactive)
REMARK    1  A    between atoms: C_1  and  N_2
REMARK    2  A    between atoms: C_4  and  C_5
REMARK    3  A    between atoms: C_5  and  N_6
REMARK    4  A    between atoms: C_13  and  C_14
REMARK    5  A    between atoms: C_14  and  C_15
REMARK    6  A    between atoms: C_15  and  N_16
REMARK                            x       y       z     vdW  Elec       q    Type
REMARK                         _______ _______ _______ _____ _____    ______ ____
ROOT
ATOM      1  N   UNL     1       9.197   9.660  18.610  0.00  0.00    +0.000 N 
ATOM      2  C   UNL     1       8.246   8.753  18.186  0.00  0.00    +0.000 C 
ATOM      3  O   UNL     1       7.378   9.074  17.382  0.00  0.00    +0.000 OA
ATOM      4  N   UNL     1       8.385   7.532  18.787  0.00  0.00    +0.000 N 
ATOM      5  C   UNL     1       7.579   6.437  18.559  0.00  0.00    +0.000 A 
ATOM      6  N   UNL     1       7.520   5.406  19.371  0.00  0.00    +0.000 NA
ATOM      7  N   UNL     1       6.635   4.443  18.937  0.00  0.00    +0.000 NA
ATOM      8  C   UNL     1       6.069   4.768  17.791  0.00  0.00    +0.000 A 
ATOM      9  S   UNL     1       6.630   6.257  17.148  0.00  0.00    +0.000 S 
ATOM     10  H   UNL     1      10.102   9.295  18.850  0.00  0.00    +0.000 HD
ATOM     11  H   UNL     1       8.893   7.495  19.657  0.00  0.00    +0.000 HD
ENDROOT
BRANCH   1  12
ATOM     12  C   UNL     1       9.145  10.996  18.057  0.00  0.00    +0.000 C 
BRANCH  12  16
ATOM     13  C   UNL     1       9.739  15.110  20.881  0.00  0.00    +0.000 C 
ATOM     14  N   UNL     1       9.796  13.775  20.339  0.00  0.00    +0.000 N 
ATOM     15  C   UNL     1       9.193  13.314  19.204  0.00  0.00    +0.000 A 
ATOM     16  C   UNL     1       9.548  11.982  19.087  0.00  0.00    +0.000 A 
ATOM     17  C   UNL     1      10.360  11.748  20.220  0.00  0.00    +0.000 A 
ATOM     18  N   UNL     1      10.519  12.837  20.975  0.00  0.00    +0.000 NA
ENDBRANCH  12  16
ENDBRANCH   1  12
BRANCH   8  19
ATOM     19  C   UNL     1       5.054   3.938  17.055  0.00  0.00    +0.000 C 
BRANCH  19  20
ATOM     20  C   UNL     1       3.875   3.578  17.979  0.00  0.00    +0.000 C 
BRANCH  20  21
ATOM     21  N   UNL     1       2.608   4.312  17.759  0.00  0.00    +0.000 NA
ATOM     22  C   UNL     1       2.581   5.532  18.612  0.00  0.00    +0.000 C 
ATOM     23  C   UNL     1       2.366   5.237  20.108  0.00  0.00    +0.000 C 
ATOM     24  O   UNL     1       1.160   4.490  20.323  0.00  0.00    +0.000 OA
ATOM     25  C   UNL     1       1.176   3.270  19.570  0.00  0.00    +0.000 C 
ATOM     26  C   UNL     1       1.386   3.538  18.069  0.00  0.00    +0.000 C 
ENDBRANCH  20  21
ENDBRANCH  19  20
ENDBRANCH   8  19
TORSDOF 5
ENDMDL
MODEL 7
REMARK VINA RESULT:      -7.2      1.028      1.589
REMARK  Name = 
REMARK  6 active torsions:
REMARK  status: ('A' for Active; 'I' for Inactive)
REMARK    1  A    between atoms: C_1  and  N_2
REMARK    2  A    between atoms: C_4  and  C_5
REMARK    3  A    between atoms: C_5  and  N_6
REMARK    4  A    between atoms: C_13  and  C_14
REMARK    5  A    between atoms: C_14  and  C_15
REMARK    6  A    between atoms: C_15  and  N_16
REMARK                            x       y       z     vdW  Elec       q    Type
REMARK                         _______ _______ _______ _____ _____    ______ ____
ROOT
ATOM      1  N   UNL     1       8.385   9.487  18.065  0.00  0.00    +0.000 N 
ATOM      2  C   UNL     1       7.874   8.206  18.015  0.00  0.00    +0.000 C 
ATOM      3  O   UNL     1       8.280   7.331  18.771  0.00  0.00    +0.000 OA
ATOM      4  N   UNL     1       6.934   8.058  17.032  0.00  0.00    +0.000 N 
ATOM      5  C   UNL     1       6.257   6.891  16.749  0.00  0.00    +0.000 A 
ATOM      6  N   UNL     1       5.623   6.685  15.616  0.00  0.00    +0.000 NA
ATOM      7  N   UNL     1       5.033   5.441  15.562  0.00  0.00    +0.000 NA
ATOM      8  C   UNL     1       5.219   4.753  16.672  0.00  0.00    +0.000 A 
ATOM      9  S   UNL     1       6.089   5.615  17.874  0.00  0.00    +0.000 S 
ATOM     10  H   UNL     1       7.765  10.237  17.819  0.00  0.00    +0.000 HD
ATOM     11  H   UNL     1       6.941   8.724  16.275  0.00  0.00    +0.000 HD
ENDROOT
BRANCH   1  12
ATOM     12  C   UNL     1       9.403   9.766  19.056  0.00  0.00    +0.000 C 
BRANCH  12  16
ATOM     13  C   UNL     1      10.665  14.581  19.743  0.00  0.00    +0.000 C 
ATOM     14  N   UNL     1      10.463  13.259  19.202  0.00  0.00    +0.000 N 
ATOM     15  C   UNL     1       9.863  12.196  19.812  0.00  0.00    +0.000 A 
ATOM     16  C   UNL     1       9.890  11.156  18.900  0.00  0.00    +0.000 A 
ATOM     17  C   UNL     1      10.544  11.710  17.776  0.00  0.00    +0.000 A 
ATOM     18  N   UNL     1      10.884  12.988  17.955  0.00  0.00    +0.000 NA
ENDBRANCH  12  16
ENDBRANCH   1  12
BRANCH   8  19
ATOM     19  C   UNL     1       4.711   3.361  16.929  0.00  0.00    +0.000 C 
BRANCH  19  20
ATOM     20  C   UNL     1       3.190   3.374  17.171  0.00  0.00    +0.000 C 
BRANCH  20  21
ATOM     21  N   UNL     1       2.621   2.213  17.890  0.00  0.00    +0.000 NA
ATOM     22  C   UNL     1       1.351   2.609  18.558  0.00  0.00    +0.000 C 
ATOM     23  C   UNL     1       1.556   3.508  19.793  0.00  0.00    +0.000 C 
ATOM     24  O   UNL     1       2.414   2.881  20.756  0.00  0.00    +0.000 OA
ATOM     25  C   UNL     1       3.678   2.545  20.168  0.00  0.00    +0.000 C 
ATOM     26  C   UNL     1       3.501   1.642  18.934  0.00  0.00    +0.000 C 
ENDBRANCH  20  21
ENDBRANCH  19  20
ENDBRANCH   8  19
TORSDOF 5
ENDMDL
MODEL 8
REMARK VINA RESULT:      -7.2      7.814     10.873
REMARK  Name = 
REMARK  6 active torsions:
REMARK  status: ('A' for Active; 'I' for Inactive)
REMARK    1  A    between atoms: C_1  and  N_2
REMARK    2  A    between atoms: C_4  and  C_5
REMARK    3  A    between atoms: C_5  and  N_6
REMARK    4  A    between atoms: C_13  and  C_14
REMARK    5  A    between atoms: C_14  and  C_15
REMARK    6  A    between atoms: C_15  and  N_16
REMARK                            x       y       z     vdW  Elec       q    Type
REMARK                         _______ _______ _______ _____ _____    ______ ____
ROOT
ATOM      1  N   UNL     1       2.397   6.856  20.086  0.00  0.00    +0.000 N 
ATOM      2  C   UNL     1       1.712   8.045  20.237  0.00  0.00    +0.000 C 
ATOM      3  O   UNL     1       1.592   8.831  19.304  0.00  0.00    +0.000 OA
ATOM      4  N   UNL     1       1.251   8.223  21.513  0.00  0.00    +0.000 N 
ATOM      5  C   UNL     1       0.537   9.315  21.955  0.00  0.00    +0.000 A 
ATOM      6  N   UNL     1       0.398   9.616  23.227  0.00  0.00    +0.000 NA
ATOM      7  N   UNL     1      -0.348  10.759  23.420  0.00  0.00    +0.000 NA
ATOM      8  C   UNL     1      -0.773  11.273  22.282  0.00  0.00    +0.000 A 
ATOM      9  S   UNL     1      -0.325  10.353  20.905  0.00  0.00    +0.000 S 
ATOM     10  H   UNL     1       2.092   6.079  20.643  0.00  0.00    +0.000 HD
ATOM     11  H   UNL     1       1.699   7.698  22.249  0.00  0.00    +0.000 HD
ENDROOT
BRANCH   1  12
ATOM     12  C   UNL     1       2.950   6.561  18.781  0.00  0.00    +0.000 C 
BRANCH  12  16
ATOM     13  C   UNL     1       3.427   1.580  18.319  0.00  0.00    +0.000 C 
ATOM     14  N   UNL     1       2.953   2.942  18.281  0.00  0.00    +0.000 N 
ATOM     15  C   UNL     1       3.596   4.058  18.734  0.00  0.00    +0.000 A 
ATOM     16  C   UNL     1       2.759   5.126  18.467  0.00  0.00    +0.000 A 
ATOM     17  C   UNL     1       1.632   4.528  17.859  0.00  0.00    +0.000 A 
ATOM     18  N   UNL     1       1.752   3.205  17.737  0.00  0.00    +0.000 NA
ENDBRANCH  12  16
ENDBRANCH   1  12
BRANCH   8  19
ATOM     19  C   UNL     1      -1.603  12.520  22.146  0.00  0.00    +0.000 C 
BRANCH  19  20
ATOM     20  C   UNL     1      -2.997  12.314  22.768  0.00  0.00    +0.000 C 
BRANCH  20  21
ATOM     21  N   UNL     1      -3.278  13.042  24.026  0.00  0.00    +0.000 NA
ATOM     22  C   UNL     1      -4.482  12.462  24.683  0.00  0.00    +0.000 C 
ATOM     23  C   UNL     1      -5.803  12.808  23.971  0.00  0.00    +0.000 C 
ATOM     24  O   UNL     1      -5.974  14.227  23.852  0.00  0.00    +0.000 OA
ATOM     25  C   UNL     1      -4.865  14.817  23.161  0.00  0.00    +0.000 C 
ATOM     26  C   UNL     1      -3.531  14.490  23.857  0.00  0.00    +0.000 C 
ENDBRANCH  20  21
ENDBRANCH  19  20
ENDBRANCH   8  19
TORSDOF 5
ENDMDL
MODEL 9
REMARK VINA RESULT:      -7.1      2.024      2.702
REMARK  Name = 
REMARK  6 active torsions:
REMARK  status: ('A' for Active; 'I' for Inactive)
REMARK    1  A    between atoms: C_1  and  N_2
REMARK    2  A    between atoms: C_4  and  C_5
REMARK    3  A    between atoms: C_5  and  N_6
REMARK    4  A    between atoms: C_13  and  C_14
REMARK    5  A    between atoms: C_14  and  C_15
REMARK    6  A    between atoms: C_15  and  N_16
REMARK                            x       y       z     vdW  Elec       q    Type
REMARK                         _______ _______ _______ _____ _____    ______ ____
ROOT
ATOM      1  N   UNL     1       9.201   9.941  18.976  0.00  0.00    +0.000 N 
ATOM      2  C   UNL     1       8.424   8.978  18.364  0.00  0.00    +0.000 C 
ATOM      3  O   UNL     1       7.680   9.262  17.432  0.00  0.00    +0.000 OA
ATOM      4  N   UNL     1       8.569   7.746  18.940  0.00  0.00    +0.000 N 
ATOM      5  C   UNL     1       7.917   6.599  18.540  0.00  0.00    +0.000 A 
ATOM      6  N   UNL     1       7.816   5.529  19.297  0.00  0.00    +0.000 NA
ATOM      7  N   UNL     1       7.110   4.516  18.684  0.00  0.00    +0.000 NA
ATOM      8  C   UNL     1       6.720   4.846  17.468  0.00  0.00    +0.000 A 
ATOM      9  S   UNL     1       7.244   6.406  16.981  0.00  0.00    +0.000 S 
ATOM     10  H   UNL     1      10.081   9.643  19.358  0.00  0.00    +0.000 HD
ATOM     11  H   UNL     1       8.922   7.711  19.884  0.00  0.00    +0.000 HD
ENDROOT
BRANCH   1  12
ATOM     12  C   UNL     1       9.121  11.293  18.466  0.00  0.00    +0.000 C 
BRANCH  12  16
ATOM     13  C   UNL     1       9.398  14.266  22.507  0.00  0.00    +0.000 C 
ATOM     14  N   UNL     1       9.677  13.539  21.293  0.00  0.00    +0.000 N 
ATOM     15  C   UNL     1       8.842  12.694  20.621  0.00  0.00    +0.000 A 
ATOM     16  C   UNL     1       9.542  12.251  19.514  0.00  0.00    +0.000 A 
ATOM     17  C   UNL     1      10.798  12.890  19.631  0.00  0.00    +0.000 A 
ATOM     18  N   UNL     1      10.877  13.678  20.704  0.00  0.00    +0.000 NA
ENDBRANCH  12  16
ENDBRANCH   1  12
BRANCH   8  19
ATOM     19  C   UNL     1       5.926   3.969  16.541  0.00  0.00    +0.000 C 
BRANCH  19  20
ATOM     20  C   UNL     1       4.416   4.211  16.725  0.00  0.00    +0.000 C 
BRANCH  20  21
ATOM     21  N   UNL     1       3.904   4.197  18.114  0.00  0.00    +0.000 NA
ATOM     22  C   UNL     1       3.591   2.799  18.518  0.00  0.00    +0.000 C 
ATOM     23  C   UNL     1       2.324   2.230  17.850  0.00  0.00    +0.000 C 
ATOM     24  O   UNL     1       1.182   3.059  18.109  0.00  0.00    +0.000 OA
ATOM     25  C   UNL     1       1.419   4.403  17.669  0.00  0.00    +0.000 C 
ATOM     26  C   UNL     1       2.677   4.996  18.327  0.00  0.00    +0.000 C 
ENDBRANCH  20  21
ENDBRANCH  19  20
ENDBRANCH   8  19
TORSDOF 5
ENDMDL
