MODEL 1
REMARK VINA RESULT:      -8.3      0.000      0.000
REMARK  Name = 
REMARK  7 active torsions:
REMARK  status: ('A' for Active; 'I' for Inactive)
REMARK    1  A    between atoms: C_2  and  C_3
REMARK    2  A    between atoms: C_3  and  O_4
REMARK    3  A    between atoms: O_4  and  C_5
REMARK    4  A    between atoms: C_8  and  O_9
REMARK    5  A    between atoms: O_9  and  C_10
REMARK    6  A    between atoms: C_10  and  C_11
REMARK    7  A    between atoms: N_19  and  N_20
REMARK                            x       y       z     vdW  Elec       q    Type
REMARK                         _______ _______ _______ _____ _____    ______ ____
ROOT
ATOM      1  C   UNL     1       6.582   5.863  16.308  0.00  0.00    +0.000 A 
ATOM      2  C   UNL     1       5.340   6.321  16.723  0.00  0.00    +0.000 A 
ATOM      3  C   UNL     1       4.297   5.438  16.897  0.00  0.00    +0.000 A 
ATOM      4  C   UNL     1       4.436   4.097  16.593  0.00  0.00    +0.000 A 
ATOM      5  C   UNL     1       5.654   3.639  16.055  0.00  0.00    +0.000 A 
ATOM      6  C   UNL     1       6.727   4.538  15.893  0.00  0.00    +0.000 A 
ENDROOT
BRANCH   1   7
ATOM      7  O   UNL     1       7.664   6.701  16.372  0.00  0.00    +0.000 OA
BRANCH   7   8
ATOM      8  C   UNL     1       7.392   7.862  17.180  0.00  0.00    +0.000 C 
BRANCH   8  10
ATOM      9  O   UNL     1       8.720   7.427  19.151  0.00  0.00    +0.000 OA
ATOM     10  C   UNL     1       8.318   8.261  18.382  0.00  0.00    +0.000 C 
ATOM     11  N   UNL     1       8.602   9.628  18.449  0.00  0.00    +0.000 N 
ATOM     12  H   UNL     1       7.830  10.200  18.117  0.00  0.00    +0.000 HD
BRANCH  11  13
ATOM     13  N   UNL     1       9.357  10.171  19.458  0.00  0.00    +0.000 NA
ATOM     14  C   UNL     1      10.296  11.023  19.131  0.00  0.00    +0.000 C 
ATOM     15  C   UNL     1      11.102  11.754  20.181  0.00  0.00    +0.000 C 
ATOM     16  C   UNL     1      12.252  12.329  19.348  0.00  0.00    +0.000 C 
ATOM     17  C   UNL     1      11.622  12.638  17.995  0.00  0.00    +0.000 C 
ATOM     18  C   UNL     1      10.764  11.406  17.745  0.00  0.00    +0.000 C 
ENDBRANCH  11  13
ENDBRANCH   8  10
ENDBRANCH   7   8
ENDBRANCH   1   7
BRANCH   4  19
ATOM     19  O   UNL     1       3.413   3.226  16.871  0.00  0.00    +0.000 OA
BRANCH  19  20
ATOM     20  C   UNL     1       3.713   2.278  17.928  0.00  0.00    +0.000 C 
BRANCH  20  21
ATOM     21  C   UNL     1       2.832   2.607  19.099  0.00  0.00    +0.000 A 
ATOM     22  C   UNL     1       1.625   3.287  18.899  0.00  0.00    +0.000 A 
ATOM     23  C   UNL     1       0.856   3.689  19.990  0.00  0.00    +0.000 A 
ATOM     24  C   UNL     1       1.284   3.408  21.287  0.00  0.00    +0.000 A 
ATOM     25  C   UNL     1       2.472   2.711  21.493  0.00  0.00    +0.000 A 
ATOM     26  C   UNL     1       3.248   2.314  20.403  0.00  0.00    +0.000 A 
ENDBRANCH  20  21
ENDBRANCH  19  20
ENDBRANCH   4  19
TORSDOF 7
ENDMDL
MODEL 2
REMARK VINA RESULT:      -8.3      4.798      7.405
REMARK  Name = 
REMARK  7 active torsions:
REMARK  status: ('A' for Active; 'I' for Inactive)
REMARK    1  A    between atoms: C_2  and  C_3
REMARK    2  A    between atoms: C_3  and  O_4
REMARK    3  A    between atoms: O_4  and  C_5
REMARK    4  A    between atoms: C_8  and  O_9
REMARK    5  A    between atoms: O_9  and  C_10
REMARK    6  A    between atoms: C_10  and  C_11
REMARK    7  A    between atoms: N_19  and  N_20
REMARK                            x       y       z     vdW  Elec       q    Type
REMARK                         _______ _______ _______ _____ _____    ______ ____
ROOT
ATOM      1  C   UNL     1       3.937   5.210  18.821  0.00  0.00    +0.000 A 
ATOM      2  C   UNL     1       3.831   6.351  18.038  0.00  0.00    +0.000 A 
ATOM      3  C   UNL     1       3.034   7.398  18.441  0.00  0.00    +0.000 A 
ATOM      4  C   UNL     1       2.265   7.314  19.586  0.00  0.00    +0.000 A 
ATOM      5  C   UNL     1       2.268   6.117  20.326  0.00  0.00    +0.000 A 
ATOM      6  C   UNL     1       3.096   5.050  19.925  0.00  0.00    +0.000 A 
ENDROOT
BRANCH   1   7
ATOM      7  O   UNL     1       4.909   4.287  18.539  0.00  0.00    +0.000 OA
BRANCH   7   8
ATOM      8  C   UNL     1       6.226   4.870  18.576  0.00  0.00    +0.000 C 
BRANCH   8  10
ATOM      9  O   UNL     1       8.269   4.310  17.416  0.00  0.00    +0.000 OA
ATOM     10  C   UNL     1       7.182   4.818  17.333  0.00  0.00    +0.000 C 
ATOM     11  N   UNL     1       6.647   5.404  16.182  0.00  0.00    +0.000 N 
ATOM     12  H   UNL     1       6.040   6.191  16.395  0.00  0.00    +0.000 HD
BRANCH  11  13
ATOM     13  N   UNL     1       7.354   5.495  15.011  0.00  0.00    +0.000 NA
ATOM     14  C   UNL     1       6.935   4.797  13.985  0.00  0.00    +0.000 C 
ATOM     15  C   UNL     1       7.584   4.920  12.625  0.00  0.00    +0.000 C 
ATOM     16  C   UNL     1       7.006   3.706  11.891  0.00  0.00    +0.000 C 
ATOM     17  C   UNL     1       5.598   3.556  12.458  0.00  0.00    +0.000 C 
ATOM     18  C   UNL     1       5.821   3.775  13.948  0.00  0.00    +0.000 C 
ENDBRANCH  11  13
ENDBRANCH   8  10
ENDBRANCH   7   8
ENDBRANCH   1   7
BRANCH   4  19
ATOM     19  O   UNL     1       1.558   8.410  20.014  0.00  0.00    +0.000 OA
BRANCH  19  20
ATOM     20  C   UNL     1       0.901   8.227  21.296  0.00  0.00    +0.000 C 
BRANCH  20  21
ATOM     21  C   UNL     1       0.280   9.538  21.680  0.00  0.00    +0.000 A 
ATOM     22  C   UNL     1      -0.459   9.644  22.864  0.00  0.00    +0.000 A 
ATOM     23  C   UNL     1      -1.126  10.828  23.173  0.00  0.00    +0.000 A 
ATOM     24  C   UNL     1      -1.053  11.917  22.304  0.00  0.00    +0.000 A 
ATOM     25  C   UNL     1      -0.301  11.827  21.135  0.00  0.00    +0.000 A 
ATOM     26  C   UNL     1       0.361  10.640  20.820  0.00  0.00    +0.000 A 
ENDBRANCH  20  21
ENDBRANCH  19  20
ENDBRANCH   4  19
TORSDOF 7
ENDMDL
MODEL 3
REMARK VINA RESULT:      -8.2      4.749      7.364
REMARK  Name = 
REMARK  7 active torsions:
REMARK  status: ('A' for Active; 'I' for Inactive)
REMARK    1  A    between atoms: C_2  and  C_3
REMARK    2  A    between atoms: C_3  and  O_4
REMARK    3  A    between atoms: O_4  and  C_5
REMARK    4  A    between atoms: C_8  and  O_9
REMARK    5  A    between atoms: O_9  and  C_10
REMARK    6  A    between atoms: C_10  and  C_11
REMARK    7  A    between atoms: N_19  and  N_20
REMARK                            x       y       z     vdW  Elec       q    Type
REMARK                         _______ _______ _______ _____ _____    ______ ____
ROOT
ATOM      1  C   UNL     1       4.125   5.308  18.851  0.00  0.00    +0.000 A 
ATOM      2  C   UNL     1       3.924   6.382  17.995  0.00  0.00    +0.000 A 
ATOM      3  C   UNL     1       3.024   7.372  18.320  0.00  0.00    +0.000 A 
ATOM      4  C   UNL     1       2.247   7.286  19.459  0.00  0.00    +0.000 A 
ATOM      5  C   UNL     1       2.351   6.144  20.275  0.00  0.00    +0.000 A 
ATOM      6  C   UNL     1       3.283   5.138  19.953  0.00  0.00    +0.000 A 
ENDROOT
BRANCH   1   7
ATOM      7  O   UNL     1       5.184   4.466  18.640  0.00  0.00    +0.000 OA
BRANCH   7   8
ATOM      8  C   UNL     1       6.395   5.193  18.357  0.00  0.00    +0.000 C 
BRANCH   8  10
ATOM      9  O   UNL     1       8.153   4.122  17.093  0.00  0.00    +0.000 OA
ATOM     10  C   UNL     1       7.242   4.908  17.067  0.00  0.00    +0.000 C 
ATOM     11  N   UNL     1       6.834   5.639  15.948  0.00  0.00    +0.000 N 
ATOM     12  H   UNL     1       6.474   6.557  16.196  0.00  0.00    +0.000 HD
BRANCH  11  13
ATOM     13  N   UNL     1       7.484   5.558  14.743  0.00  0.00    +0.000 NA
ATOM     14  C   UNL     1       6.962   4.794  13.816  0.00  0.00    +0.000 C 
ATOM     15  C   UNL     1       7.547   4.730  12.422  0.00  0.00    +0.000 C 
ATOM     16  C   UNL     1       6.846   3.496  11.846  0.00  0.00    +0.000 C 
ATOM     17  C   UNL     1       5.463   3.512  12.487  0.00  0.00    +0.000 C 
ATOM     18  C   UNL     1       5.778   3.862  13.934  0.00  0.00    +0.000 C 
ENDBRANCH  11  13
ENDBRANCH   8  10
ENDBRANCH   7   8
ENDBRANCH   1   7
BRANCH   4  19
ATOM     19  O   UNL     1       1.432   8.334  19.808  0.00  0.00    +0.000 OA
BRANCH  19  20
ATOM     20  C   UNL     1       0.816   8.196  21.115  0.00  0.00    +0.000 C 
BRANCH  20  21
ATOM     21  C   UNL     1      -0.010   9.424  21.361  0.00  0.00    +0.000 A 
ATOM     22  C   UNL     1      -0.368  10.255  20.293  0.00  0.00    +0.000 A 
ATOM     23  C   UNL     1      -1.043  11.451  20.528  0.00  0.00    +0.000 A 
ATOM     24  C   UNL     1      -1.373  11.822  21.832  0.00  0.00    +0.000 A 
ATOM     25  C   UNL     1      -1.041  10.989  22.898  0.00  0.00    +0.000 A 
ATOM     26  C   UNL     1      -0.358   9.795  22.666  0.00  0.00    +0.000 A 
ENDBRANCH  20  21
ENDBRANCH  19  20
ENDBRANCH   4  19
TORSDOF 7
ENDMDL
MODEL 4
REMARK VINA RESULT:      -8.1      1.422      1.804
REMARK  Name = 
REMARK  7 active torsions:
REMARK  status: ('A' for Active; 'I' for Inactive)
REMARK    1  A    between atoms: C_2  and  C_3
REMARK    2  A    between atoms: C_3  and  O_4
REMARK    3  A    between atoms: O_4  and  C_5
REMARK    4  A    between atoms: C_8  and  O_9
REMARK    5  A    between atoms: O_9  and  C_10
REMARK    6  A    between atoms: C_10  and  C_11
REMARK    7  A    between atoms: N_19  and  N_20
REMARK                            x       y       z     vdW  Elec       q    Type
REMARK                         _______ _______ _______ _____ _____    ______ ____
ROOT
ATOM      1  C   UNL     1       6.785   5.510  16.660  0.00  0.00    +0.000 A 
ATOM      2  C   UNL     1       5.933   5.033  15.675  0.00  0.00    +0.000 A 
ATOM      3  C   UNL     1       4.880   4.210  16.006  0.00  0.00    +0.000 A 
ATOM      4  C   UNL     1       4.690   3.778  17.304  0.00  0.00    +0.000 A 
ATOM      5  C   UNL     1       5.617   4.154  18.294  0.00  0.00    +0.000 A 
ATOM      6  C   UNL     1       6.685   5.010  17.960  0.00  0.00    +0.000 A 
ENDROOT
BRANCH   1   7
ATOM      7  O   UNL     1       7.671   6.511  16.359  0.00  0.00    +0.000 OA
BRANCH   7   8
ATOM      8  C   UNL     1       7.384   7.716  17.094  0.00  0.00    +0.000 C 
BRANCH   8  10
ATOM      9  O   UNL     1       8.646   7.347  19.120  0.00  0.00    +0.000 OA
ATOM     10  C   UNL     1       8.257   8.158  18.320  0.00  0.00    +0.000 C 
ATOM     11  N   UNL     1       8.511   9.532  18.369  0.00  0.00    +0.000 N 
ATOM     12  H   UNL     1       7.741  10.081  17.997  0.00  0.00    +0.000 HD
BRANCH  11  13
ATOM     13  N   UNL     1       9.217  10.110  19.392  0.00  0.00    +0.000 NA
ATOM     14  C   UNL     1      10.122  11.006  19.085  0.00  0.00    +0.000 C 
ATOM     15  C   UNL     1      10.869  11.775  20.151  0.00  0.00    +0.000 C 
ATOM     16  C   UNL     1      12.007  12.404  19.342  0.00  0.00    +0.000 C 
ATOM     17  C   UNL     1      11.392  12.683  17.975  0.00  0.00    +0.000 C 
ATOM     18  C   UNL     1      10.599  11.411  17.708  0.00  0.00    +0.000 C 
ENDBRANCH  11  13
ENDBRANCH   8  10
ENDBRANCH   7   8
ENDBRANCH   1   7
BRANCH   4  19
ATOM     19  O   UNL     1       3.576   3.040  17.620  0.00  0.00    +0.000 OA
BRANCH  19  20
ATOM     20  C   UNL     1       2.321   3.716  17.347  0.00  0.00    +0.000 C 
BRANCH  20  21
ATOM     21  C   UNL     1       2.155   4.799  18.373  0.00  0.00    +0.000 A 
ATOM     22  C   UNL     1       2.442   6.128  18.043  0.00  0.00    +0.000 A 
ATOM     23  C   UNL     1       2.393   7.122  19.020  0.00  0.00    +0.000 A 
ATOM     24  C   UNL     1       2.048   6.795  20.331  0.00  0.00    +0.000 A 
ATOM     25  C   UNL     1       1.738   5.478  20.662  0.00  0.00    +0.000 A 
ATOM     26  C   UNL     1       1.794   4.480  19.688  0.00  0.00    +0.000 A 
ENDBRANCH  20  21
ENDBRANCH  19  20
ENDBRANCH   4  19
TORSDOF 7
ENDMDL
MODEL 5
REMARK VINA RESULT:      -8.1      4.279      6.723
REMARK  Name = 
REMARK  7 active torsions:
REMARK  status: ('A' for Active; 'I' for Inactive)
REMARK    1  A    between atoms: C_2  and  C_3
REMARK    2  A    between atoms: C_3  and  O_4
REMARK    3  A    between atoms: O_4  and  C_5
REMARK    4  A    between atoms: C_8  and  O_9
REMARK    5  A    between atoms: O_9  and  C_10
REMARK    6  A    between atoms: C_10  and  C_11
REMARK    7  A    between atoms: N_19  and  N_20
REMARK                            x       y       z     vdW  Elec       q    Type
REMARK                         _______ _______ _______ _____ _____    ______ ____
ROOT
ATOM      1  C   UNL     1       1.994   3.418  18.508  0.00  0.00    +0.000 A 
ATOM      2  C   UNL     1       2.218   4.699  18.025  0.00  0.00    +0.000 A 
ATOM      3  C   UNL     1       2.044   5.791  18.845  0.00  0.00    +0.000 A 
ATOM      4  C   UNL     1       1.572   5.649  20.135  0.00  0.00    +0.000 A 
ATOM      5  C   UNL     1       1.223   4.368  20.600  0.00  0.00    +0.000 A 
ATOM      6  C   UNL     1       1.417   3.247  19.768  0.00  0.00    +0.000 A 
ENDROOT
BRANCH   1   7
ATOM      7  O   UNL     1       2.400   2.338  17.769  0.00  0.00    +0.000 OA
BRANCH   7   8
ATOM      8  C   UNL     1       3.432   1.590  18.440  0.00  0.00    +0.000 C 
BRANCH   8  10
ATOM      9  O   UNL     1       4.888   1.998  20.324  0.00  0.00    +0.000 OA
ATOM     10  C   UNL     1       4.606   2.306  19.196  0.00  0.00    +0.000 C 
ATOM     11  N   UNL     1       5.248   3.292  18.440  0.00  0.00    +0.000 N 
ATOM     12  H   UNL     1       4.612   3.767  17.805  0.00  0.00    +0.000 HD
BRANCH  11  13
ATOM     13  N   UNL     1       6.267   4.056  18.948  0.00  0.00    +0.000 NA
ATOM     14  C   UNL     1       6.504   5.214  18.385  0.00  0.00    +0.000 C 
ATOM     15  C   UNL     1       7.532   6.171  18.946  0.00  0.00    +0.000 C 
ATOM     16  C   UNL     1       7.690   7.170  17.796  0.00  0.00    +0.000 C 
ATOM     17  C   UNL     1       6.302   7.248  17.169  0.00  0.00    +0.000 C 
ATOM     18  C   UNL     1       5.877   5.788  17.134  0.00  0.00    +0.000 C 
ENDBRANCH  11  13
ENDBRANCH   8  10
ENDBRANCH   7   8
ENDBRANCH   1   7
BRANCH   4  19
ATOM     19  O   UNL     1       1.503   6.745  20.960  0.00  0.00    +0.000 OA
BRANCH  19  20
ATOM     20  C   UNL     1       1.684   8.013  20.276  0.00  0.00    +0.000 C 
BRANCH  20  21
ATOM     21  C   UNL     1       0.748   9.005  20.903  0.00  0.00    +0.000 A 
ATOM     22  C   UNL     1       0.125   9.978  20.113  0.00  0.00    +0.000 A 
ATOM     23  C   UNL     1      -0.660  10.966  20.704  0.00  0.00    +0.000 A 
ATOM     24  C   UNL     1      -0.834  10.985  22.087  0.00  0.00    +0.000 A 
ATOM     25  C   UNL     1      -0.236  10.007  22.878  0.00  0.00    +0.000 A 
ATOM     26  C   UNL     1       0.556   9.021  22.290  0.00  0.00    +0.000 A 
ENDBRANCH  20  21
ENDBRANCH  19  20
ENDBRANCH   4  19
TORSDOF 7
ENDMDL
MODEL 6
REMARK VINA RESULT:      -7.9      5.062      7.675
REMARK  Name = 
REMARK  7 active torsions:
REMARK  status: ('A' for Active; 'I' for Inactive)
REMARK    1  A    between atoms: C_2  and  C_3
REMARK    2  A    between atoms: C_3  and  O_4
REMARK    3  A    between atoms: O_4  and  C_5
REMARK    4  A    between atoms: C_8  and  O_9
REMARK    5  A    between atoms: O_9  and  C_10
REMARK    6  A    between atoms: C_10  and  C_11
REMARK    7  A    between atoms: N_19  and  N_20
REMARK                            x       y       z     vdW  Elec       q    Type
REMARK                         _______ _______ _______ _____ _____    ______ ____
ROOT
ATOM      1  C   UNL     1       3.542   5.874  18.581  0.00  0.00    +0.000 A 
ATOM      2  C   UNL     1       3.325   6.944  17.726  0.00  0.00    +0.000 A 
ATOM      3  C   UNL     1       2.573   8.022  18.138  0.00  0.00    +0.000 A 
ATOM      4  C   UNL     1       1.956   8.033  19.374  0.00  0.00    +0.000 A 
ATOM      5  C   UNL     1       2.066   6.902  20.205  0.00  0.00    +0.000 A 
ATOM      6  C   UNL     1       2.849   5.806  19.792  0.00  0.00    +0.000 A 
ENDROOT
BRANCH   1   7
ATOM      7  O   UNL     1       4.480   4.930  18.255  0.00  0.00    +0.000 OA
BRANCH   7   8
ATOM      8  C   UNL     1       5.817   5.464  18.319  0.00  0.00    +0.000 C 
BRANCH   8  10
ATOM      9  O   UNL     1       7.892   4.621  17.416  0.00  0.00    +0.000 OA
ATOM     10  C   UNL     1       6.862   5.196  17.180  0.00  0.00    +0.000 C 
ATOM     11  N   UNL     1       6.473   5.681  15.928  0.00  0.00    +0.000 N 
ATOM     12  H   UNL     1       5.919   6.531  15.998  0.00  0.00    +0.000 HD
BRANCH  11  13
ATOM     13  N   UNL     1       7.277   5.582  14.822  0.00  0.00    +0.000 NA
ATOM     14  C   UNL     1       6.887   4.797  13.848  0.00  0.00    +0.000 C 
ATOM     15  C   UNL     1       7.652   4.711  12.546  0.00  0.00    +0.000 C 
ATOM     16  C   UNL     1       7.040   3.461  11.906  0.00  0.00    +0.000 C 
ATOM     17  C   UNL     1       5.584   3.479  12.358  0.00  0.00    +0.000 C 
ATOM     18  C   UNL     1       5.702   3.858  13.827  0.00  0.00    +0.000 C 
ENDBRANCH  11  13
ENDBRANCH   8  10
ENDBRANCH   7   8
ENDBRANCH   1   7
BRANCH   4  19
ATOM     19  O   UNL     1       1.298   9.161  19.797  0.00  0.00    +0.000 OA
BRANCH  19  20
ATOM     20  C   UNL     1       1.215  10.209  18.795  0.00  0.00    +0.000 C 
BRANCH  20  21
ATOM     21  C   UNL     1      -0.238  10.521  18.582  0.00  0.00    +0.000 A 
ATOM     22  C   UNL     1      -0.976   9.811  17.628  0.00  0.00    +0.000 A 
ATOM     23  C   UNL     1      -2.294  10.168  17.350  0.00  0.00    +0.000 A 
ATOM     24  C   UNL     1      -2.887  11.231  18.031  0.00  0.00    +0.000 A 
ATOM     25  C   UNL     1      -2.167  11.927  18.998  0.00  0.00    +0.000 A 
ATOM     26  C   UNL     1      -0.845  11.577  19.272  0.00  0.00    +0.000 A 
ENDBRANCH  20  21
ENDBRANCH  19  20
ENDBRANCH   4  19
TORSDOF 7
ENDMDL
MODEL 7
REMARK VINA RESULT:      -7.9      2.264      2.716
REMARK  Name = 
REMARK  7 active torsions:
REMARK  status: ('A' for Active; 'I' for Inactive)
REMARK    1  A    between atoms: C_2  and  C_3
REMARK    2  A    between atoms: C_3  and  O_4
REMARK    3  A    between atoms: O_4  and  C_5
REMARK    4  A    between atoms: C_8  and  O_9
REMARK    5  A    between atoms: O_9  and  C_10
REMARK    6  A    between atoms: C_10  and  C_11
REMARK    7  A    between atoms: N_19  and  N_20
REMARK                            x       y       z     vdW  Elec       q    Type
REMARK                         _______ _______ _______ _____ _____    ______ ____
ROOT
ATOM      1  C   UNL     1       7.462   6.755  18.072  0.00  0.00    +0.000 A 
ATOM      2  C   UNL     1       6.469   7.226  17.225  0.00  0.00    +0.000 A 
ATOM      3  C   UNL     1       5.368   6.448  16.946  0.00  0.00    +0.000 A 
ATOM      4  C   UNL     1       5.258   5.161  17.435  0.00  0.00    +0.000 A 
ATOM      5  C   UNL     1       6.314   4.624  18.195  0.00  0.00    +0.000 A 
ATOM      6  C   UNL     1       7.434   5.425  18.496  0.00  0.00    +0.000 A 
ENDROOT
BRANCH   1   7
ATOM      7  O   UNL     1       8.421   7.618  18.532  0.00  0.00    +0.000 OA
BRANCH   7   8
ATOM      8  C   UNL     1       8.232   8.950  18.015  0.00  0.00    +0.000 C 
BRANCH   8  10
ATOM      9  O   UNL     1       9.321  10.141  19.812  0.00  0.00    +0.000 OA
ATOM     10  C   UNL     1       8.920  10.194  18.679  0.00  0.00    +0.000 C 
ATOM     11  N   UNL     1       9.004  11.309  17.840  0.00  0.00    +0.000 N 
ATOM     12  H   UNL     1       8.215  11.374  17.203  0.00  0.00    +0.000 HD
BRANCH  11  13
ATOM     13  N   UNL     1       9.531  12.503  18.260  0.00  0.00    +0.000 NA
ATOM     14  C   UNL     1       8.786  13.574  18.154  0.00  0.00    +0.000 C 
ATOM     15  C   UNL     1       9.241  14.912  18.693  0.00  0.00    +0.000 C 
ATOM     16  C   UNL     1       8.238  15.869  18.041  0.00  0.00    +0.000 C 
ATOM     17  C   UNL     1       6.944  15.067  17.965  0.00  0.00    +0.000 C 
ATOM     18  C   UNL     1       7.431  13.704  17.494  0.00  0.00    +0.000 C 
ENDBRANCH  11  13
ENDBRANCH   8  10
ENDBRANCH   7   8
ENDBRANCH   1   7
BRANCH   4  19
ATOM     19  O   UNL     1       4.105   4.447  17.222  0.00  0.00    +0.000 OA
BRANCH  19  20
ATOM     20  C   UNL     1       4.093   3.140  17.853  0.00  0.00    +0.000 C 
BRANCH  20  21
ATOM     21  C   UNL     1       3.121   3.194  18.995  0.00  0.00    +0.000 A 
ATOM     22  C   UNL     1       3.513   2.774  20.271  0.00  0.00    +0.000 A 
ATOM     23  C   UNL     1       2.586   2.721  21.311  0.00  0.00    +0.000 A 
ATOM     24  C   UNL     1       1.262   3.097  21.084  0.00  0.00    +0.000 A 
ATOM     25  C   UNL     1       0.869   3.538  19.823  0.00  0.00    +0.000 A 
ATOM     26  C   UNL     1       1.793   3.584  18.779  0.00  0.00    +0.000 A 
ENDBRANCH  20  21
ENDBRANCH  19  20
ENDBRANCH   4  19
TORSDOF 7
ENDMDL
MODEL 8
REMARK VINA RESULT:      -7.9      2.620      9.516
REMARK  Name = 
REMARK  7 active torsions:
REMARK  status: ('A' for Active; 'I' for Inactive)
REMARK    1  A    between atoms: C_2  and  C_3
REMARK    2  A    between atoms: C_3  and  O_4
REMARK    3  A    between atoms: O_4  and  C_5
REMARK    4  A    between atoms: C_8  and  O_9
REMARK    5  A    between atoms: O_9  and  C_10
REMARK    6  A    between atoms: C_10  and  C_11
REMARK    7  A    between atoms: N_19  and  N_20
REMARK                            x       y       z     vdW  Elec       q    Type
REMARK                         _______ _______ _______ _____ _____    ______ ____
ROOT
ATOM      1  C   UNL     1       7.070   5.496  17.292  0.00  0.00    +0.000 A 
ATOM      2  C   UNL     1       6.993   6.736  16.673  0.00  0.00    +0.000 A 
ATOM      3  C   UNL     1       7.588   7.837  17.247  0.00  0.00    +0.000 A 
ATOM      4  C   UNL     1       8.203   7.757  18.481  0.00  0.00    +0.000 A 
ATOM      5  C   UNL     1       8.183   6.535  19.178  0.00  0.00    +0.000 A 
ATOM      6  C   UNL     1       7.591   5.402  18.585  0.00  0.00    +0.000 A 
ENDROOT
BRANCH   1   7
ATOM      7  O   UNL     1       6.692   4.374  16.603  0.00  0.00    +0.000 OA
BRANCH   7   8
ATOM      8  C   UNL     1       5.301   4.419  16.232  0.00  0.00    +0.000 C 
BRANCH   8  10
ATOM      9  O   UNL     1       3.129   3.400  16.509  0.00  0.00    +0.000 OA
ATOM     10  C   UNL     1       4.222   3.564  16.984  0.00  0.00    +0.000 C 
ATOM     11  N   UNL     1       4.661   3.047  18.207  0.00  0.00    +0.000 N 
ATOM     12  H   UNL     1       5.318   3.666  18.675  0.00  0.00    +0.000 HD
BRANCH  11  13
ATOM     13  N   UNL     1       3.843   2.314  19.028  0.00  0.00    +0.000 NA
ATOM     14  C   UNL     1       3.016   2.964  19.808  0.00  0.00    +0.000 C 
ATOM     15  C   UNL     1       2.001   2.239  20.664  0.00  0.00    +0.000 C 
ATOM     16  C   UNL     1       1.541   3.351  21.612  0.00  0.00    +0.000 C 
ATOM     17  C   UNL     1       1.601   4.618  20.767  0.00  0.00    +0.000 C 
ATOM     18  C   UNL     1       2.923   4.457  20.030  0.00  0.00    +0.000 C 
ENDBRANCH  11  13
ENDBRANCH   8  10
ENDBRANCH   7   8
ENDBRANCH   1   7
BRANCH   4  19
ATOM     19  O   UNL     1       8.872   8.846  18.980  0.00  0.00    +0.000 OA
BRANCH  19  20
ATOM     20  C   UNL     1       8.813  10.020  18.128  0.00  0.00    +0.000 C 
BRANCH  20  21
ATOM     21  C   UNL     1       9.896  10.960  18.571  0.00  0.00    +0.000 A 
ATOM     22  C   UNL     1      10.162  11.131  19.934  0.00  0.00    +0.000 A 
ATOM     23  C   UNL     1      11.092  12.080  20.355  0.00  0.00    +0.000 A 
ATOM     24  C   UNL     1      11.769  12.858  19.417  0.00  0.00    +0.000 A 
ATOM     25  C   UNL     1      11.527  12.677  18.057  0.00  0.00    +0.000 A 
ATOM     26  C   UNL     1      10.591  11.734  17.633  0.00  0.00    +0.000 A 
ENDBRANCH  20  21
ENDBRANCH  19  20
ENDBRANCH   4  19
TORSDOF 7
ENDMDL
MODEL 9
REMARK VINA RESULT:      -7.8      1.346      1.750
REMARK  Name = 
REMARK  7 active torsions:
REMARK  status: ('A' for Active; 'I' for Inactive)
REMARK    1  A    between atoms: C_2  and  C_3
REMARK    2  A    between atoms: C_3  and  O_4
REMARK    3  A    between atoms: O_4  and  C_5
REMARK    4  A    between atoms: C_8  and  O_9
REMARK    5  A    between atoms: O_9  and  C_10
REMARK    6  A    between atoms: C_10  and  C_11
REMARK    7  A    between atoms: N_19  and  N_20
REMARK                            x       y       z     vdW  Elec       q    Type
REMARK                         _______ _______ _______ _____ _____    ______ ____
ROOT
ATOM      1  C   UNL     1       5.972   5.402  18.663  0.00  0.00    +0.000 A 
ATOM      2  C   UNL     1       4.688   5.908  18.811  0.00  0.00    +0.000 A 
ATOM      3  C   UNL     1       3.620   5.280  18.210  0.00  0.00    +0.000 A 
ATOM      4  C   UNL     1       3.804   4.185  17.388  0.00  0.00    +0.000 A 
ATOM      5  C   UNL     1       5.112   3.734  17.130  0.00  0.00    +0.000 A 
ATOM      6  C   UNL     1       6.204   4.364  17.758  0.00  0.00    +0.000 A 
ENDROOT
BRANCH   1   7
ATOM      7  O   UNL     1       6.981   5.884  19.454  0.00  0.00    +0.000 OA
BRANCH   7   8
ATOM      8  C   UNL     1       8.067   6.412  18.669  0.00  0.00    +0.000 C 
BRANCH   8  10
ATOM      9  O   UNL     1       7.353   7.850  16.865  0.00  0.00    +0.000 OA
ATOM     10  C   UNL     1       7.944   7.780  17.911  0.00  0.00    +0.000 C 
ATOM     11  N   UNL     1       8.572   8.846  18.561  0.00  0.00    +0.000 N 
ATOM     12  H   UNL     1       9.403   8.555  19.068  0.00  0.00    +0.000 HD
BRANCH  11  13
ATOM     13  N   UNL     1       8.610  10.109  18.027  0.00  0.00    +0.000 NA
ATOM     14  C   UNL     1       9.303  11.022  18.661  0.00  0.00    +0.000 C 
ATOM     15  C   UNL     1       9.493  12.409  18.089  0.00  0.00    +0.000 C 
ATOM     16  C   UNL     1      10.038  13.174  19.300  0.00  0.00    +0.000 C 
ATOM     17  C   UNL     1      10.870  12.143  20.055  0.00  0.00    +0.000 C 
ATOM     18  C   UNL     1       9.982  10.908  20.007  0.00  0.00    +0.000 C 
ENDBRANCH  11  13
ENDBRANCH   8  10
ENDBRANCH   7   8
ENDBRANCH   1   7
BRANCH   4  19
ATOM     19  O   UNL     1       2.713   3.521  16.883  0.00  0.00    +0.000 OA
BRANCH  19  20
ATOM     20  C   UNL     1       2.488   2.215  17.477  0.00  0.00    +0.000 C 
BRANCH  20  21
ATOM     21  C   UNL     1       2.196   2.423  18.935  0.00  0.00    +0.000 A 
ATOM     22  C   UNL     1       0.962   2.947  19.335  0.00  0.00    +0.000 A 
ATOM     23  C   UNL     1       0.724   3.241  20.677  0.00  0.00    +0.000 A 
ATOM     24  C   UNL     1       1.716   3.006  21.628  0.00  0.00    +0.000 A 
ATOM     25  C   UNL     1       2.939   2.463  21.241  0.00  0.00    +0.000 A 
ATOM     26  C   UNL     1       3.182   2.175  19.898  0.00  0.00    +0.000 A 
ENDBRANCH  20  21
ENDBRANCH  19  20
ENDBRANCH   4  19
TORSDOF 7
ENDMDL
