MODEL 1
REMARK VINA RESULT:      -8.8      0.000      0.000
REMARK  Name = 
REMARK  8 active torsions:
REMARK  status: ('A' for Active; 'I' for Inactive)
REMARK    1  A    between atoms: C_2  and  C_5
REMARK    2  A    between atoms: N_3  and  O_4
REMARK    3  A    between atoms: C_8  and  C_9
REMARK    4  A    between atoms: N_11  and  C_12
REMARK    5  A    between atoms: C_14  and  C_15
REMARK    6  A    between atoms: C_15  and  O_16
REMARK    7  A    between atoms: N_17  and  C_18
REMARK    8  A    between atoms: C_18  and  C_19
REMARK                            x       y       z     vdW  Elec       q    Type
REMARK                         _______ _______ _______ _____ _____    ______ ____
ROOT
ATOM      1  C   UNL     1       1.427   8.432  20.401  0.00  0.00    +0.000 A 
ATOM      2  C   UNL     1       1.743   7.164  20.831  0.00  0.00    +0.000 A 
ATOM      3  N   UNL     1       2.189   6.541  19.705  0.00  0.00    +0.000 N 
ATOM      4  N   UNL     1       2.299   7.412  18.683  0.00  0.00    +0.000 NA
ATOM      5  N   UNL     1       1.802   8.572  19.094  0.00  0.00    +0.000 NA
ENDROOT
BRANCH   1   9
ATOM      6  C   UNL     1      -0.935  11.305  22.459  0.00  0.00    +0.000 A 
ATOM      7  C   UNL     1      -0.685  10.064  23.054  0.00  0.00    +0.000 A 
ATOM      8  C   UNL     1       0.110   9.120  22.398  0.00  0.00    +0.000 A 
ATOM      9  C   UNL     1       0.676   9.417  21.150  0.00  0.00    +0.000 A 
ATOM     10  C   UNL     1       0.452  10.678  20.580  0.00  0.00    +0.000 A 
ATOM     11  C   UNL     1      -0.354  11.618  21.224  0.00  0.00    +0.000 A 
BRANCH   6  13
ATOM     12  O   UNL     1      -1.412  13.395  23.463  0.00  0.00    +0.000 OA
ATOM     13  C   UNL     1      -1.806  12.275  23.169  0.00  0.00    +0.000 C 
ATOM     14  N   UNL     1      -3.057  11.814  23.519  0.00  0.00    +0.000 N 
ATOM     15  H   UNL     1      -3.255  10.824  23.631  0.00  0.00    +0.000 HD
BRANCH  14  16
ATOM     16  O   UNL     1      -3.811  12.694  24.331  0.00  0.00    +0.000 OA
ATOM     17  H   UNL     1      -3.536  12.426  25.236  0.00  0.00    +0.000 HD
ENDBRANCH  14  16
ENDBRANCH   6  13
ENDBRANCH   1   9
BRANCH   3  18
ATOM     18  C   UNL     1       2.375   5.135  19.438  0.00  0.00    +0.000 C 
ATOM     19  C   UNL     1       1.781   4.684  18.104  0.00  0.00    +0.000 C 
ATOM     20  C   UNL     1       2.706   3.556  17.660  0.00  0.00    +0.000 C 
ATOM     21  N   UNL     1       4.063   3.990  18.100  0.00  0.00    +0.000 NA
ATOM     22  C   UNL     1       3.828   4.628  19.417  0.00  0.00    +0.000 C 
BRANCH  20  23
ATOM     23  C   UNL     1       2.320   2.213  18.327  0.00  0.00    +0.000 C 
BRANCH  23  24
ATOM     24  O   UNL     1       0.910   2.027  18.284  0.00  0.00    +0.000 OA
ATOM     25  H   UNL     1       0.774   1.060  18.311  0.00  0.00    +0.000 HD
ENDBRANCH  23  24
ENDBRANCH  20  23
BRANCH  21  26
ATOM     26  C   UNL     1       4.637   4.955  17.126  0.00  0.00    +0.000 C 
BRANCH  26  27
ATOM     27  C   UNL     1       5.856   5.714  17.618  0.00  0.00    +0.000 A 
ATOM     28  C   UNL     1       6.754   5.153  18.539  0.00  0.00    +0.000 A 
ATOM     29  C   UNL     1       7.877   5.866  18.965  0.00  0.00    +0.000 A 
ATOM     30  C   UNL     1       8.133   7.137  18.453  0.00  0.00    +0.000 A 
ATOM     31  C   UNL     1       7.265   7.698  17.519  0.00  0.00    +0.000 A 
ATOM     32  C   UNL     1       6.135   6.991  17.103  0.00  0.00    +0.000 A 
ENDBRANCH  26  27
ENDBRANCH  21  26
ENDBRANCH   3  18
TORSDOF 8
ENDMDL
MODEL 2
REMARK VINA RESULT:      -8.7      0.645      1.404
REMARK  Name = 
REMARK  8 active torsions:
REMARK  status: ('A' for Active; 'I' for Inactive)
REMARK    1  A    between atoms: C_2  and  C_5
REMARK    2  A    between atoms: N_3  and  O_4
REMARK    3  A    between atoms: C_8  and  C_9
REMARK    4  A    between atoms: N_11  and  C_12
REMARK    5  A    between atoms: C_14  and  C_15
REMARK    6  A    between atoms: C_15  and  O_16
REMARK    7  A    between atoms: N_17  and  C_18
REMARK    8  A    between atoms: C_18  and  C_19
REMARK                            x       y       z     vdW  Elec       q    Type
REMARK                         _______ _______ _______ _____ _____    ______ ____
ROOT
ATOM      1  C   UNL     1       1.478   8.201  20.187  0.00  0.00    +0.000 A 
ATOM      2  C   UNL     1       1.783   6.935  20.631  0.00  0.00    +0.000 A 
ATOM      3  N   UNL     1       2.314   6.325  19.535  0.00  0.00    +0.000 N 
ATOM      4  N   UNL     1       2.479   7.203  18.527  0.00  0.00    +0.000 NA
ATOM      5  N   UNL     1       1.938   8.353  18.908  0.00  0.00    +0.000 NA
ENDROOT
BRANCH   1   9
ATOM      6  C   UNL     1      -0.737  11.124  22.337  0.00  0.00    +0.000 A 
ATOM      7  C   UNL     1      -0.622  11.230  20.947  0.00  0.00    +0.000 A 
ATOM      8  C   UNL     1       0.083  10.261  20.226  0.00  0.00    +0.000 A 
ATOM      9  C   UNL     1       0.664   9.170  20.888  0.00  0.00    +0.000 A 
ATOM     10  C   UNL     1       0.511   9.053  22.276  0.00  0.00    +0.000 A 
ATOM     11  C   UNL     1      -0.179  10.025  23.002  0.00  0.00    +0.000 A 
BRANCH   6  13
ATOM     12  O   UNL     1      -0.892  13.165  23.525  0.00  0.00    +0.000 OA
ATOM     13  C   UNL     1      -1.467  12.183  23.076  0.00  0.00    +0.000 C 
ATOM     14  N   UNL     1      -2.814  11.960  23.270  0.00  0.00    +0.000 N 
ATOM     15  H   UNL     1      -3.214  11.026  23.255  0.00  0.00    +0.000 HD
BRANCH  14  16
ATOM     16  O   UNL     1      -3.459  12.898  24.111  0.00  0.00    +0.000 OA
ATOM     17  H   UNL     1      -4.033  13.382  23.478  0.00  0.00    +0.000 HD
ENDBRANCH  14  16
ENDBRANCH   6  13
ENDBRANCH   1   9
BRANCH   3  18
ATOM     18  C   UNL     1       2.538   4.923  19.275  0.00  0.00    +0.000 C 
ATOM     19  C   UNL     1       1.952   4.449  17.946  0.00  0.00    +0.000 C 
ATOM     20  C   UNL     1       2.906   3.344  17.505  0.00  0.00    +0.000 C 
ATOM     21  N   UNL     1       4.252   3.819  17.937  0.00  0.00    +0.000 NA
ATOM     22  C   UNL     1       4.004   4.457  19.251  0.00  0.00    +0.000 C 
BRANCH  20  23
ATOM     23  C   UNL     1       2.561   1.995  18.181  0.00  0.00    +0.000 C 
BRANCH  23  24
ATOM     24  O   UNL     1       3.684   1.121  18.141  0.00  0.00    +0.000 OA
ATOM     25  H   UNL     1       3.433   0.404  17.527  0.00  0.00    +0.000 HD
ENDBRANCH  23  24
ENDBRANCH  20  23
BRANCH  21  26
ATOM     26  C   UNL     1       4.795   4.795  16.955  0.00  0.00    +0.000 C 
BRANCH  26  27
ATOM     27  C   UNL     1       5.962   5.627  17.457  0.00  0.00    +0.000 A 
ATOM     28  C   UNL     1       6.122   6.971  17.090  0.00  0.00    +0.000 A 
ATOM     29  C   UNL     1       7.196   7.719  17.578  0.00  0.00    +0.000 A 
ATOM     30  C   UNL     1       8.106   7.142  18.461  0.00  0.00    +0.000 A 
ATOM     31  C   UNL     1       7.946   5.816  18.855  0.00  0.00    +0.000 A 
ATOM     32  C   UNL     1       6.881   5.063  18.358  0.00  0.00    +0.000 A 
ENDBRANCH  26  27
ENDBRANCH  21  26
ENDBRANCH   3  18
TORSDOF 8
ENDMDL
MODEL 3
REMARK VINA RESULT:      -8.7      0.627      1.185
REMARK  Name = 
REMARK  8 active torsions:
REMARK  status: ('A' for Active; 'I' for Inactive)
REMARK    1  A    between atoms: C_2  and  C_5
REMARK    2  A    between atoms: N_3  and  O_4
REMARK    3  A    between atoms: C_8  and  C_9
REMARK    4  A    between atoms: N_11  and  C_12
REMARK    5  A    between atoms: C_14  and  C_15
REMARK    6  A    between atoms: C_15  and  O_16
REMARK    7  A    between atoms: N_17  and  C_18
REMARK    8  A    between atoms: C_18  and  C_19
REMARK                            x       y       z     vdW  Elec       q    Type
REMARK                         _______ _______ _______ _____ _____    ______ ____
ROOT
ATOM      1  C   UNL     1       1.535   8.232  20.295  0.00  0.00    +0.000 A 
ATOM      2  C   UNL     1       1.797   6.940  20.687  0.00  0.00    +0.000 A 
ATOM      3  N   UNL     1       2.282   6.350  19.559  0.00  0.00    +0.000 N 
ATOM      4  N   UNL     1       2.463   7.257  18.580  0.00  0.00    +0.000 NA
ATOM      5  N   UNL     1       1.977   8.413  19.014  0.00  0.00    +0.000 NA
ENDROOT
BRANCH   1   9
ATOM      6  C   UNL     1      -0.867  11.050  22.383  0.00  0.00    +0.000 A 
ATOM      7  C   UNL     1      -0.439   9.890  23.037  0.00  0.00    +0.000 A 
ATOM      8  C   UNL     1       0.372   8.968  22.368  0.00  0.00    +0.000 A 
ATOM      9  C   UNL     1       0.775   9.206  21.047  0.00  0.00    +0.000 A 
ATOM     10  C   UNL     1       0.372  10.390  20.413  0.00  0.00    +0.000 A 
ATOM     11  C   UNL     1      -0.449  11.307  21.071  0.00  0.00    +0.000 A 
BRANCH   6  13
ATOM     12  O   UNL     1      -2.856  11.660  23.511  0.00  0.00    +0.000 OA
ATOM     13  C   UNL     1      -1.750  11.996  23.110  0.00  0.00    +0.000 C 
ATOM     14  N   UNL     1      -1.267  13.279  23.253  0.00  0.00    +0.000 N 
ATOM     15  H   UNL     1      -0.569  13.666  22.624  0.00  0.00    +0.000 HD
BRANCH  14  16
ATOM     16  O   UNL     1      -2.186  14.204  23.805  0.00  0.00    +0.000 OA
ATOM     17  H   UNL     1      -1.952  15.033  23.333  0.00  0.00    +0.000 HD
ENDBRANCH  14  16
ENDBRANCH   6  13
ENDBRANCH   1   9
BRANCH   3  18
ATOM     18  C   UNL     1       2.445   4.951  19.244  0.00  0.00    +0.000 C 
ATOM     19  C   UNL     1       1.806   4.547  17.916  0.00  0.00    +0.000 C 
ATOM     20  C   UNL     1       2.704   3.423  17.410  0.00  0.00    +0.000 C 
ATOM     21  N   UNL     1       4.079   3.831  17.822  0.00  0.00    +0.000 NA
ATOM     22  C   UNL     1       3.890   4.430  19.164  0.00  0.00    +0.000 C 
BRANCH  20  23
ATOM     23  C   UNL     1       2.325   2.065  18.048  0.00  0.00    +0.000 C 
BRANCH  23  24
ATOM     24  O   UNL     1       0.921   2.001  18.276  0.00  0.00    +0.000 OA
ATOM     25  H   UNL     1       0.668   1.078  18.085  0.00  0.00    +0.000 HD
ENDBRANCH  23  24
ENDBRANCH  20  23
BRANCH  21  26
ATOM     26  C   UNL     1       4.634   4.820  16.860  0.00  0.00    +0.000 C 
BRANCH  26  27
ATOM     27  C   UNL     1       5.829   5.605  17.367  0.00  0.00    +0.000 A 
ATOM     28  C   UNL     1       6.008   6.961  17.057  0.00  0.00    +0.000 A 
ATOM     29  C   UNL     1       7.109   7.666  17.549  0.00  0.00    +0.000 A 
ATOM     30  C   UNL     1       8.030   7.031  18.380  0.00  0.00    +0.000 A 
ATOM     31  C   UNL     1       7.853   5.691  18.718  0.00  0.00    +0.000 A 
ATOM     32  C   UNL     1       6.760   4.983  18.216  0.00  0.00    +0.000 A 
ENDBRANCH  26  27
ENDBRANCH  21  26
ENDBRANCH   3  18
TORSDOF 8
ENDMDL
MODEL 4
REMARK VINA RESULT:      -8.7      0.645      1.203
REMARK  Name = 
REMARK  8 active torsions:
REMARK  status: ('A' for Active; 'I' for Inactive)
REMARK    1  A    between atoms: C_2  and  C_5
REMARK    2  A    between atoms: N_3  and  O_4
REMARK    3  A    between atoms: C_8  and  C_9
REMARK    4  A    between atoms: N_11  and  C_12
REMARK    5  A    between atoms: C_14  and  C_15
REMARK    6  A    between atoms: C_15  and  O_16
REMARK    7  A    between atoms: N_17  and  C_18
REMARK    8  A    between atoms: C_18  and  C_19
REMARK                            x       y       z     vdW  Elec       q    Type
REMARK                         _______ _______ _______ _____ _____    ______ ____
ROOT
ATOM      1  C   UNL     1       1.431   8.159  20.378  0.00  0.00    +0.000 A 
ATOM      2  C   UNL     1       1.666   6.872  20.802  0.00  0.00    +0.000 A 
ATOM      3  N   UNL     1       2.287   6.288  19.740  0.00  0.00    +0.000 N 
ATOM      4  N   UNL     1       2.567   7.197  18.785  0.00  0.00    +0.000 NA
ATOM      5  N   UNL     1       2.015   8.345  19.155  0.00  0.00    +0.000 NA
ENDROOT
BRANCH   1   9
ATOM      6  C   UNL     1      -0.920  11.061  22.408  0.00  0.00    +0.000 A 
ATOM      7  C   UNL     1      -0.702  11.189  21.032  0.00  0.00    +0.000 A 
ATOM      8  C   UNL     1       0.049  10.228  20.349  0.00  0.00    +0.000 A 
ATOM      9  C   UNL     1       0.573   9.122  21.033  0.00  0.00    +0.000 A 
ATOM     10  C   UNL     1       0.316   8.982  22.404  0.00  0.00    +0.000 A 
ATOM     11  C   UNL     1      -0.420   9.947  23.093  0.00  0.00    +0.000 A 
BRANCH   6  13
ATOM     12  O   UNL     1      -2.828  11.901  23.530  0.00  0.00    +0.000 OA
ATOM     13  C   UNL     1      -1.698  12.112  23.109  0.00  0.00    +0.000 C 
ATOM     14  N   UNL     1      -1.090  13.346  23.205  0.00  0.00    +0.000 N 
ATOM     15  H   UNL     1      -0.364  13.641  22.558  0.00  0.00    +0.000 HD
BRANCH  14  16
ATOM     16  O   UNL     1      -1.907  14.374  23.732  0.00  0.00    +0.000 OA
ATOM     17  H   UNL     1      -2.795  13.954  23.728  0.00  0.00    +0.000 HD
ENDBRANCH  14  16
ENDBRANCH   6  13
ENDBRANCH   1   9
BRANCH   3  18
ATOM     18  C   UNL     1       2.508   4.891  19.451  0.00  0.00    +0.000 C 
ATOM     19  C   UNL     1       1.893   4.439  18.126  0.00  0.00    +0.000 C 
ATOM     20  C   UNL     1       2.839   3.343  17.645  0.00  0.00    +0.000 C 
ATOM     21  N   UNL     1       4.194   3.813  18.057  0.00  0.00    +0.000 NA
ATOM     22  C   UNL     1       3.973   4.427  19.387  0.00  0.00    +0.000 C 
BRANCH  20  23
ATOM     23  C   UNL     1       2.510   1.982  18.305  0.00  0.00    +0.000 C 
BRANCH  23  24
ATOM     24  O   UNL     1       1.106   1.857  18.506  0.00  0.00    +0.000 OA
ATOM     25  H   UNL     1       0.696   2.173  17.677  0.00  0.00    +0.000 HD
ENDBRANCH  23  24
ENDBRANCH  20  23
BRANCH  21  26
ATOM     26  C   UNL     1       4.714   4.806  17.080  0.00  0.00    +0.000 C 
BRANCH  26  27
ATOM     27  C   UNL     1       5.888   5.633  17.572  0.00  0.00    +0.000 A 
ATOM     28  C   UNL     1       6.841   5.110  18.458  0.00  0.00    +0.000 A 
ATOM     29  C   UNL     1       7.921   5.887  18.883  0.00  0.00    +0.000 A 
ATOM     30  C   UNL     1       8.077   7.187  18.406  0.00  0.00    +0.000 A 
ATOM     31  C   UNL     1       7.153   7.713  17.506  0.00  0.00    +0.000 A 
ATOM     32  C   UNL     1       6.067   6.941  17.090  0.00  0.00    +0.000 A 
ENDBRANCH  26  27
ENDBRANCH  21  26
ENDBRANCH   3  18
TORSDOF 8
ENDMDL
MODEL 5
REMARK VINA RESULT:      -8.5      6.087      8.816
REMARK  Name = 
REMARK  8 active torsions:
REMARK  status: ('A' for Active; 'I' for Inactive)
REMARK    1  A    between atoms: C_2  and  C_5
REMARK    2  A    between atoms: N_3  and  O_4
REMARK    3  A    between atoms: C_8  and  C_9
REMARK    4  A    between atoms: N_11  and  C_12
REMARK    5  A    between atoms: C_14  and  C_15
REMARK    6  A    between atoms: C_15  and  O_16
REMARK    7  A    between atoms: N_17  and  C_18
REMARK    8  A    between atoms: C_18  and  C_19
REMARK                            x       y       z     vdW  Elec       q    Type
REMARK                         _______ _______ _______ _____ _____    ______ ____
ROOT
ATOM      1  C   UNL     1       8.344   9.381  18.151  0.00  0.00    +0.000 A 
ATOM      2  C   UNL     1       7.302   8.958  17.358  0.00  0.00    +0.000 A 
ATOM      3  N   UNL     1       7.285   7.608  17.536  0.00  0.00    +0.000 N 
ATOM      4  N   UNL     1       8.149   7.237  18.501  0.00  0.00    +0.000 NA
ATOM      5  N   UNL     1       8.828   8.319  18.863  0.00  0.00    +0.000 NA
ENDROOT
BRANCH   1   9
ATOM      6  C   UNL     1      10.223  13.187  17.920  0.00  0.00    +0.000 A 
ATOM      7  C   UNL     1       8.865  13.068  17.607  0.00  0.00    +0.000 A 
ATOM      8  C   UNL     1       8.230  11.826  17.703  0.00  0.00    +0.000 A 
ATOM      9  C   UNL     1       8.944  10.697  18.129  0.00  0.00    +0.000 A 
ATOM     10  C   UNL     1      10.295  10.834  18.478  0.00  0.00    +0.000 A 
ATOM     11  C   UNL     1      10.937  12.069  18.369  0.00  0.00    +0.000 A 
BRANCH   6  13
ATOM     12  O   UNL     1      11.216  15.164  18.760  0.00  0.00    +0.000 OA
ATOM     13  C   UNL     1      10.875  14.512  17.782  0.00  0.00    +0.000 C 
ATOM     14  N   UNL     1      11.018  14.980  16.493  0.00  0.00    +0.000 N 
ATOM     15  H   UNL     1      10.423  14.659  15.734  0.00  0.00    +0.000 HD
BRANCH  14  16
ATOM     16  O   UNL     1      11.493  16.309  16.390  0.00  0.00    +0.000 OA
ATOM     17  H   UNL     1      10.711  16.780  16.025  0.00  0.00    +0.000 HD
ENDBRANCH  14  16
ENDBRANCH   6  13
ENDBRANCH   1   9
BRANCH   3  18
ATOM     18  C   UNL     1       6.637   6.580  16.756  0.00  0.00    +0.000 C 
ATOM     19  C   UNL     1       7.037   5.163  17.165  0.00  0.00    +0.000 C 
ATOM     20  C   UNL     1       5.785   4.340  16.882  0.00  0.00    +0.000 C 
ATOM     21  N   UNL     1       4.654   5.245  17.238  0.00  0.00    +0.000 NA
ATOM     22  C   UNL     1       5.099   6.579  16.768  0.00  0.00    +0.000 C 
BRANCH  20  23
ATOM     23  C   UNL     1       5.704   3.927  15.392  0.00  0.00    +0.000 C 
BRANCH  23  24
ATOM     24  O   UNL     1       6.952   4.157  14.748  0.00  0.00    +0.000 OA
ATOM     25  H   UNL     1       7.442   4.760  15.338  0.00  0.00    +0.000 HD
ENDBRANCH  23  24
ENDBRANCH  20  23
BRANCH  21  26
ATOM     26  C   UNL     1       4.429   5.236  18.708  0.00  0.00    +0.000 C 
BRANCH  26  27
ATOM     27  C   UNL     1       3.147   4.556  19.155  0.00  0.00    +0.000 A 
ATOM     28  C   UNL     1       2.469   3.644  18.333  0.00  0.00    +0.000 A 
ATOM     29  C   UNL     1       1.300   3.020  18.774  0.00  0.00    +0.000 A 
ATOM     30  C   UNL     1       0.810   3.278  20.053  0.00  0.00    +0.000 A 
ATOM     31  C   UNL     1       1.486   4.162  20.891  0.00  0.00    +0.000 A 
ATOM     32  C   UNL     1       2.647   4.796  20.446  0.00  0.00    +0.000 A 
ENDBRANCH  26  27
ENDBRANCH  21  26
ENDBRANCH   3  18
TORSDOF 8
ENDMDL
MODEL 6
REMARK VINA RESULT:      -8.3      1.629      1.983
REMARK  Name = 
REMARK  8 active torsions:
REMARK  status: ('A' for Active; 'I' for Inactive)
REMARK    1  A    between atoms: C_2  and  C_5
REMARK    2  A    between atoms: N_3  and  O_4
REMARK    3  A    between atoms: C_8  and  C_9
REMARK    4  A    between atoms: N_11  and  C_12
REMARK    5  A    between atoms: C_14  and  C_15
REMARK    6  A    between atoms: C_15  and  O_16
REMARK    7  A    between atoms: N_17  and  C_18
REMARK    8  A    between atoms: C_18  and  C_19
REMARK                            x       y       z     vdW  Elec       q    Type
REMARK                         _______ _______ _______ _____ _____    ______ ____
ROOT
ATOM      1  C   UNL     1       1.738   8.477  19.206  0.00  0.00    +0.000 A 
ATOM      2  C   UNL     1       1.913   7.290  19.880  0.00  0.00    +0.000 A 
ATOM      3  N   UNL     1       2.626   6.524  19.009  0.00  0.00    +0.000 N 
ATOM      4  N   UNL     1       3.011   7.242  17.936  0.00  0.00    +0.000 NA
ATOM      5  N   UNL     1       2.442   8.437  18.033  0.00  0.00    +0.000 NA
ENDROOT
BRANCH   1   9
ATOM      6  C   UNL     1      -1.077  11.487  20.245  0.00  0.00    +0.000 A 
ATOM      7  C   UNL     1      -0.424  10.774  21.256  0.00  0.00    +0.000 A 
ATOM      8  C   UNL     1       0.522   9.799  20.927  0.00  0.00    +0.000 A 
ATOM      9  C   UNL     1       0.835   9.541  19.585  0.00  0.00    +0.000 A 
ATOM     10  C   UNL     1       0.203  10.287  18.580  0.00  0.00    +0.000 A 
ATOM     11  C   UNL     1      -0.753  11.252  18.904  0.00  0.00    +0.000 A 
BRANCH   6  13
ATOM     12  O   UNL     1      -2.205  12.894  21.778  0.00  0.00    +0.000 OA
ATOM     13  C   UNL     1      -2.096  12.496  20.626  0.00  0.00    +0.000 C 
ATOM     14  N   UNL     1      -2.940  12.909  19.617  0.00  0.00    +0.000 N 
ATOM     15  H   UNL     1      -3.118  12.338  18.796  0.00  0.00    +0.000 HD
BRANCH  14  16
ATOM     16  O   UNL     1      -4.002  13.747  20.033  0.00  0.00    +0.000 OA
ATOM     17  H   UNL     1      -3.960  14.474  19.374  0.00  0.00    +0.000 HD
ENDBRANCH  14  16
ENDBRANCH   6  13
ENDBRANCH   1   9
BRANCH   3  18
ATOM     18  C   UNL     1       2.854   5.098  19.004  0.00  0.00    +0.000 C 
ATOM     19  C   UNL     1       2.405   4.415  17.713  0.00  0.00    +0.000 C 
ATOM     20  C   UNL     1       3.382   3.253  17.561  0.00  0.00    +0.000 C 
ATOM     21  N   UNL     1       4.682   3.793  18.055  0.00  0.00    +0.000 NA
ATOM     22  C   UNL     1       4.306   4.635  19.214  0.00  0.00    +0.000 C 
BRANCH  20  23
ATOM     23  C   UNL     1       2.944   2.031  18.404  0.00  0.00    +0.000 C 
BRANCH  23  24
ATOM     24  O   UNL     1       4.008   1.091  18.501  0.00  0.00    +0.000 OA
ATOM     25  H   UNL     1       4.647   1.485  19.125  0.00  0.00    +0.000 HD
ENDBRANCH  23  24
ENDBRANCH  20  23
BRANCH  21  26
ATOM     26  C   UNL     1       5.343   4.597  16.993  0.00  0.00    +0.000 C 
BRANCH  26  27
ATOM     27  C   UNL     1       6.364   5.603  17.494  0.00  0.00    +0.000 A 
ATOM     28  C   UNL     1       6.451   6.897  16.958  0.00  0.00    +0.000 A 
ATOM     29  C   UNL     1       7.388   7.809  17.447  0.00  0.00    +0.000 A 
ATOM     30  C   UNL     1       8.231   7.450  18.497  0.00  0.00    +0.000 A 
ATOM     31  C   UNL     1       8.140   6.178  19.058  0.00  0.00    +0.000 A 
ATOM     32  C   UNL     1       7.212   5.261  18.560  0.00  0.00    +0.000 A 
ENDBRANCH  26  27
ENDBRANCH  21  26
ENDBRANCH   3  18
TORSDOF 8
ENDMDL
MODEL 7
REMARK VINA RESULT:      -8.3      6.117      8.319
REMARK  Name = 
REMARK  8 active torsions:
REMARK  status: ('A' for Active; 'I' for Inactive)
REMARK    1  A    between atoms: C_2  and  C_5
REMARK    2  A    between atoms: N_3  and  O_4
REMARK    3  A    between atoms: C_8  and  C_9
REMARK    4  A    between atoms: N_11  and  C_12
REMARK    5  A    between atoms: C_14  and  C_15
REMARK    6  A    between atoms: C_15  and  O_16
REMARK    7  A    between atoms: N_17  and  C_18
REMARK    8  A    between atoms: C_18  and  C_19
REMARK                            x       y       z     vdW  Elec       q    Type
REMARK                         _______ _______ _______ _____ _____    ______ ____
ROOT
ATOM      1  C   UNL     1       8.226   8.794  18.401  0.00  0.00    +0.000 A 
ATOM      2  C   UNL     1       7.222   8.600  17.481  0.00  0.00    +0.000 A 
ATOM      3  N   UNL     1       7.090   7.245  17.426  0.00  0.00    +0.000 N 
ATOM      4  N   UNL     1       7.844   6.648  18.369  0.00  0.00    +0.000 NA
ATOM      5  N   UNL     1       8.572   7.592  18.953  0.00  0.00    +0.000 NA
ENDROOT
BRANCH   1   9
ATOM      6  C   UNL     1      10.087  12.546  19.132  0.00  0.00    +0.000 A 
ATOM      7  C   UNL     1      10.213  11.518  20.073  0.00  0.00    +0.000 A 
ATOM      8  C   UNL     1       9.626  10.273  19.832  0.00  0.00    +0.000 A 
ATOM      9  C   UNL     1       8.924  10.039  18.642  0.00  0.00    +0.000 A 
ATOM     10  C   UNL     1       8.837  11.062  17.687  0.00  0.00    +0.000 A 
ATOM     11  C   UNL     1       9.408  12.313  17.930  0.00  0.00    +0.000 A 
BRANCH   6  13
ATOM     12  O   UNL     1      11.816  14.159  19.027  0.00  0.00    +0.000 OA
ATOM     13  C   UNL     1      10.698  13.865  19.429  0.00  0.00    +0.000 C 
ATOM     14  N   UNL     1       9.952  14.706  20.227  0.00  0.00    +0.000 N 
ATOM     15  H   UNL     1       9.240  14.357  20.861  0.00  0.00    +0.000 HD
BRANCH  14  16
ATOM     16  O   UNL     1      10.615  15.890  20.630  0.00  0.00    +0.000 OA
ATOM     17  H   UNL     1      10.543  15.843  21.608  0.00  0.00    +0.000 HD
ENDBRANCH  14  16
ENDBRANCH   6  13
ENDBRANCH   1   9
BRANCH   3  18
ATOM     18  C   UNL     1       6.430   6.420  16.443  0.00  0.00    +0.000 C 
ATOM     19  C   UNL     1       7.051   5.031  16.299  0.00  0.00    +0.000 C 
ATOM     20  C   UNL     1       5.867   4.144  15.928  0.00  0.00    +0.000 C 
ATOM     21  N   UNL     1       4.726   4.696  16.714  0.00  0.00    +0.000 NA
ATOM     22  C   UNL     1       4.928   6.163  16.660  0.00  0.00    +0.000 C 
BRANCH  20  23
ATOM     23  C   UNL     1       5.566   4.207  14.411  0.00  0.00    +0.000 C 
BRANCH  23  24
ATOM     24  O   UNL     1       6.372   3.268  13.708  0.00  0.00    +0.000 OA
ATOM     25  H   UNL     1       5.808   2.931  12.985  0.00  0.00    +0.000 HD
ENDBRANCH  23  24
ENDBRANCH  20  23
BRANCH  21  26
ATOM     26  C   UNL     1       4.771   4.194  18.112  0.00  0.00    +0.000 C 
BRANCH  26  27
ATOM     27  C   UNL     1       3.415   3.938  18.745  0.00  0.00    +0.000 A 
ATOM     28  C   UNL     1       3.103   4.393  20.035  0.00  0.00    +0.000 A 
ATOM     29  C   UNL     1       1.842   4.159  20.588  0.00  0.00    +0.000 A 
ATOM     30  C   UNL     1       0.868   3.491  19.848  0.00  0.00    +0.000 A 
ATOM     31  C   UNL     1       1.153   3.055  18.556  0.00  0.00    +0.000 A 
ATOM     32  C   UNL     1       2.417   3.278  18.008  0.00  0.00    +0.000 A 
ENDBRANCH  26  27
ENDBRANCH  21  26
ENDBRANCH   3  18
TORSDOF 8
ENDMDL
MODEL 8
REMARK VINA RESULT:      -8.3      1.486      2.224
REMARK  Name = 
REMARK  8 active torsions:
REMARK  status: ('A' for Active; 'I' for Inactive)
REMARK    1  A    between atoms: C_2  and  C_5
REMARK    2  A    between atoms: N_3  and  O_4
REMARK    3  A    between atoms: C_8  and  C_9
REMARK    4  A    between atoms: N_11  and  C_12
REMARK    5  A    between atoms: C_14  and  C_15
REMARK    6  A    between atoms: C_15  and  O_16
REMARK    7  A    between atoms: N_17  and  C_18
REMARK    8  A    between atoms: C_18  and  C_19
REMARK                            x       y       z     vdW  Elec       q    Type
REMARK                         _______ _______ _______ _____ _____    ______ ____
ROOT
ATOM      1  C   UNL     1       1.187   8.749  20.411  0.00  0.00    +0.000 A 
ATOM      2  C   UNL     1       1.670   7.552  20.885  0.00  0.00    +0.000 A 
ATOM      3  N   UNL     1       2.246   6.978  19.792  0.00  0.00    +0.000 N 
ATOM      4  N   UNL     1       2.264   7.833  18.751  0.00  0.00    +0.000 NA
ATOM      5  N   UNL     1       1.586   8.915  19.114  0.00  0.00    +0.000 NA
ENDROOT
BRANCH   1   9
ATOM      6  C   UNL     1      -1.339  11.397  22.575  0.00  0.00    +0.000 A 
ATOM      7  C   UNL     1      -1.068  11.650  21.226  0.00  0.00    +0.000 A 
ATOM      8  C   UNL     1      -0.258  10.773  20.497  0.00  0.00    +0.000 A 
ATOM      9  C   UNL     1       0.272   9.628  21.107  0.00  0.00    +0.000 A 
ATOM     10  C   UNL     1      -0.037   9.363  22.449  0.00  0.00    +0.000 A 
ATOM     11  C   UNL     1      -0.832  10.243  23.184  0.00  0.00    +0.000 A 
BRANCH   6  13
ATOM     12  O   UNL     1      -1.772  13.481  23.611  0.00  0.00    +0.000 OA
ATOM     13  C   UNL     1      -2.178  12.361  23.328  0.00  0.00    +0.000 C 
ATOM     14  N   UNL     1      -3.412  11.897  23.731  0.00  0.00    +0.000 N 
ATOM     15  H   UNL     1      -3.604  10.906  23.847  0.00  0.00    +0.000 HD
BRANCH  14  16
ATOM     16  O   UNL     1      -4.130  12.772  24.581  0.00  0.00    +0.000 OA
ATOM     17  H   UNL     1      -3.832  13.654  24.268  0.00  0.00    +0.000 HD
ENDBRANCH  14  16
ENDBRANCH   6  13
ENDBRANCH   1   9
BRANCH   3  18
ATOM     18  C   UNL     1       2.647   5.609  19.570  0.00  0.00    +0.000 C 
ATOM     19  C   UNL     1       1.960   4.961  18.369  0.00  0.00    +0.000 C 
ATOM     20  C   UNL     1       3.004   3.980  17.844  0.00  0.00    +0.000 C 
ATOM     21  N   UNL     1       4.307   4.677  18.045  0.00  0.00    +0.000 NA
ATOM     22  C   UNL     1       4.150   5.364  19.350  0.00  0.00    +0.000 C 
BRANCH  20  23
ATOM     23  C   UNL     1       2.972   2.646  18.629  0.00  0.00    +0.000 C 
BRANCH  23  24
ATOM     24  O   UNL     1       1.876   1.846  18.198  0.00  0.00    +0.000 OA
ATOM     25  H   UNL     1       2.144   1.483  17.332  0.00  0.00    +0.000 HD
ENDBRANCH  23  24
ENDBRANCH  20  23
BRANCH  21  26
ATOM     26  C   UNL     1       4.547   5.650  16.947  0.00  0.00    +0.000 C 
BRANCH  26  27
ATOM     27  C   UNL     1       5.381   5.121  15.794  0.00  0.00    +0.000 A 
ATOM     28  C   UNL     1       4.801   4.434  14.717  0.00  0.00    +0.000 A 
ATOM     29  C   UNL     1       5.588   3.971  13.661  0.00  0.00    +0.000 A 
ATOM     30  C   UNL     1       6.961   4.213  13.653  0.00  0.00    +0.000 A 
ATOM     31  C   UNL     1       7.548   4.916  14.702  0.00  0.00    +0.000 A 
ATOM     32  C   UNL     1       6.763   5.368  15.765  0.00  0.00    +0.000 A 
ENDBRANCH  26  27
ENDBRANCH  21  26
ENDBRANCH   3  18
TORSDOF 8
ENDMDL
MODEL 9
REMARK VINA RESULT:      -8.3      6.221      8.623
REMARK  Name = 
REMARK  8 active torsions:
REMARK  status: ('A' for Active; 'I' for Inactive)
REMARK    1  A    between atoms: C_2  and  C_5
REMARK    2  A    between atoms: N_3  and  O_4
REMARK    3  A    between atoms: C_8  and  C_9
REMARK    4  A    between atoms: N_11  and  C_12
REMARK    5  A    between atoms: C_14  and  C_15
REMARK    6  A    between atoms: C_15  and  O_16
REMARK    7  A    between atoms: N_17  and  C_18
REMARK    8  A    between atoms: C_18  and  C_19
REMARK                            x       y       z     vdW  Elec       q    Type
REMARK                         _______ _______ _______ _____ _____    ______ ____
ROOT
ATOM      1  C   UNL     1       8.225   8.748  18.368  0.00  0.00    +0.000 A 
ATOM      2  C   UNL     1       7.216   8.539  17.455  0.00  0.00    +0.000 A 
ATOM      3  N   UNL     1       7.079   7.184  17.427  0.00  0.00    +0.000 N 
ATOM      4  N   UNL     1       7.836   6.602  18.379  0.00  0.00    +0.000 NA
ATOM      5  N   UNL     1       8.568   7.555  18.941  0.00  0.00    +0.000 NA
ENDROOT
BRANCH   1   9
ATOM      6  C   UNL     1      10.465  12.298  19.032  0.00  0.00    +0.000 A 
ATOM      7  C   UNL     1       9.978  12.020  17.751  0.00  0.00    +0.000 A 
ATOM      8  C   UNL     1       9.219  10.867  17.525  0.00  0.00    +0.000 A 
ATOM      9  C   UNL     1       8.927   9.994  18.582  0.00  0.00    +0.000 A 
ATOM     10  C   UNL     1       9.387  10.302  19.870  0.00  0.00    +0.000 A 
ATOM     11  C   UNL     1      10.158  11.443  20.097  0.00  0.00    +0.000 A 
BRANCH   6  13
ATOM     12  O   UNL     1      12.333  13.483  19.874  0.00  0.00    +0.000 OA
ATOM     13  C   UNL     1      11.291  13.515  19.233  0.00  0.00    +0.000 C 
ATOM     14  N   UNL     1      10.782  14.681  18.702  0.00  0.00    +0.000 N 
ATOM     15  H   UNL     1       9.790  14.803  18.521  0.00  0.00    +0.000 HD
BRANCH  14  16
ATOM     16  O   UNL     1      11.500  15.853  19.040  0.00  0.00    +0.000 OA
ATOM     17  H   UNL     1      11.511  15.811  20.022  0.00  0.00    +0.000 HD
ENDBRANCH  14  16
ENDBRANCH   6  13
ENDBRANCH   1   9
BRANCH   3  18
ATOM     18  C   UNL     1       6.413   6.342  16.462  0.00  0.00    +0.000 C 
ATOM     19  C   UNL     1       7.024   4.945  16.349  0.00  0.00    +0.000 C 
ATOM     20  C   UNL     1       5.834   4.059  15.997  0.00  0.00    +0.000 C 
ATOM     21  N   UNL     1       4.697   4.637  16.771  0.00  0.00    +0.000 NA
ATOM     22  C   UNL     1       4.910   6.101  16.684  0.00  0.00    +0.000 C 
BRANCH  20  23
ATOM     23  C   UNL     1       5.533   4.091  14.479  0.00  0.00    +0.000 C 
BRANCH  23  24
ATOM     24  O   UNL     1       6.679   3.684  13.740  0.00  0.00    +0.000 OA
ATOM     25  H   UNL     1       6.840   2.757  13.999  0.00  0.00    +0.000 HD
ENDBRANCH  23  24
ENDBRANCH  20  23
BRANCH  21  26
ATOM     26  C   UNL     1       4.738   4.166  18.180  0.00  0.00    +0.000 C 
BRANCH  26  27
ATOM     27  C   UNL     1       3.381   3.930  18.817  0.00  0.00    +0.000 A 
ATOM     28  C   UNL     1       2.890   4.756  19.839  0.00  0.00    +0.000 A 
ATOM     29  C   UNL     1       1.631   4.528  20.397  0.00  0.00    +0.000 A 
ATOM     30  C   UNL     1       0.833   3.489  19.922  0.00  0.00    +0.000 A 
ATOM     31  C   UNL     1       1.295   2.675  18.890  0.00  0.00    +0.000 A 
ATOM     32  C   UNL     1       2.559   2.895  18.340  0.00  0.00    +0.000 A 
ENDBRANCH  26  27
ENDBRANCH  21  26
ENDBRANCH   3  18
TORSDOF 8
ENDMDL
