MODEL 1
REMARK VINA RESULT:      -9.1      0.000      0.000
REMARK  Name = 
REMARK  7 active torsions:
REMARK  status: ('A' for Active; 'I' for Inactive)
REMARK    1  A    between atoms: C_1  and  N_2
REMARK    2  A    between atoms: C_7  and  C_8
REMARK    3  A    between atoms: N_21  and  C_22
REMARK    4  A    between atoms: C_22  and  C_23
REMARK    5  A    between atoms: N_25  and  C_26
REMARK    6  A    between atoms: C_29  and  O_30
REMARK    7  A    between atoms: O_30  and  C_31
REMARK                            x       y       z     vdW  Elec       q    Type
REMARK                         _______ _______ _______ _____ _____    ______ ____
ROOT
ATOM      1  C   UNL     1      -5.452  11.311  17.798  0.00  0.00    +0.000 C 
ATOM      2  N   UNL     1      -4.382  12.177  18.246  0.00  0.00    +0.000 N 
ATOM      3  C   UNL     1      -3.177  11.539  18.503  0.00  0.00    +0.000 A 
ATOM      4  N   UNL     1      -2.884  10.415  17.824  0.00  0.00    +0.000 NA
ATOM      5  C   UNL     1      -1.698   9.804  18.024  0.00  0.00    +0.000 A 
ATOM      6  C   UNL     1      -0.803  10.335  18.940  0.00  0.00    +0.000 A 
ATOM      7  C   UNL     1       0.502  10.059  19.434  0.00  0.00    +0.000 A 
ATOM      8  N   UNL     1       0.872  10.978  20.343  0.00  0.00    +0.000 NA
ATOM      9  N   UNL     1      -0.180  11.827  20.417  0.00  0.00    +0.000 N 
ATOM     10  C   UNL     1      -1.217  11.482  19.591  0.00  0.00    +0.000 A 
ATOM     11  N   UNL     1      -2.389  12.123  19.423  0.00  0.00    +0.000 NA
ATOM     12  H   UNL     1      -4.592  12.773  19.034  0.00  0.00    +0.000 HD
ENDROOT
BRANCH   7  13
ATOM     13  C   UNL     1       1.404   8.976  19.061  0.00  0.00    +0.000 A 
ATOM     14  C   UNL     1       2.100   9.000  17.858  0.00  0.00    +0.000 A 
ATOM     15  C   UNL     1       2.961   7.949  17.535  0.00  0.00    +0.000 A 
ATOM     16  C   UNL     1       3.124   6.871  18.406  0.00  0.00    +0.000 A 
ATOM     17  N   UNL     1       3.971   5.832  18.106  0.00  0.00    +0.000 N 
ATOM     18  C   UNL     1       5.224   6.022  17.372  0.00  0.00    +0.000 C 
ATOM     19  C   UNL     1       6.425   5.492  18.186  0.00  0.00    +0.000 C 
ATOM     20  N   UNL     1       6.258   4.101  18.646  0.00  0.00    +0.000 NA
ATOM     21  C   UNL     1       5.015   4.007  19.440  0.00  0.00    +0.000 C 
ATOM     22  C   UNL     1       3.760   4.503  18.689  0.00  0.00    +0.000 C 
ATOM     23  N   UNL     1       2.433   6.830  19.566  0.00  0.00    +0.000 NA
ATOM     24  C   UNL     1       1.619   7.873  19.873  0.00  0.00    +0.000 A 
ATOM     25  H   UNL     1       7.047   3.851  19.239  0.00  0.00    +0.000 HD
ENDBRANCH   7  13
BRANCH   9  26
ATOM     26  C   UNL     1      -0.136  12.952  21.340  0.00  0.00    +0.000 C 
BRANCH  26  27
ATOM     27  C   UNL     1       1.147  13.684  21.220  0.00  0.00    +0.000 A 
ATOM     28  C   UNL     1       2.068  13.679  20.195  0.00  0.00    +0.000 A 
ATOM     29  N   UNL     1       3.081  14.511  20.610  0.00  0.00    +0.000 N 
ATOM     30  N   UNL     1       2.754  15.039  21.817  0.00  0.00    +0.000 NA
ATOM     31  N   UNL     1       1.582  14.543  22.194  0.00  0.00    +0.000 NA
BRANCH  29  32
ATOM     32  C   UNL     1       4.294  14.822  19.945  0.00  0.00    +0.000 A 
ATOM     33  C   UNL     1       5.449  15.119  20.680  0.00  0.00    +0.000 A 
ATOM     34  C   UNL     1       6.637  15.428  20.015  0.00  0.00    +0.000 A 
ATOM     35  C   UNL     1       6.695  15.431  18.622  0.00  0.00    +0.000 A 
ATOM     36  C   UNL     1       5.543  15.154  17.886  0.00  0.00    +0.000 A 
ATOM     37  C   UNL     1       4.343  14.847  18.545  0.00  0.00    +0.000 A 
BRANCH  35  38
ATOM     38  O   UNL     1       7.910  15.767  18.093  0.00  0.00    +0.000 OA
ATOM     39  C   UNL     1       8.334  17.104  18.331  0.00  0.00    +0.000 C 
ENDBRANCH  35  38
ENDBRANCH  29  32
ENDBRANCH  26  27
ENDBRANCH   9  26
TORSDOF 5
ENDMDL
MODEL 2
REMARK VINA RESULT:      -9.0      1.117      1.359
REMARK  Name = 
REMARK  7 active torsions:
REMARK  status: ('A' for Active; 'I' for Inactive)
REMARK    1  A    between atoms: C_1  and  N_2
REMARK    2  A    between atoms: C_7  and  C_8
REMARK    3  A    between atoms: N_21  and  C_22
REMARK    4  A    between atoms: C_22  and  C_23
REMARK    5  A    between atoms: N_25  and  C_26
REMARK    6  A    between atoms: C_29  and  O_30
REMARK    7  A    between atoms: O_30  and  C_31
REMARK                            x       y       z     vdW  Elec       q    Type
REMARK                         _______ _______ _______ _____ _____    ______ ____
ROOT
ATOM      1  C   UNL     1      -5.388  11.731  18.688  0.00  0.00    +0.000 C 
ATOM      2  N   UNL     1      -4.213  12.575  18.724  0.00  0.00    +0.000 N 
ATOM      3  C   UNL     1      -3.008  11.901  18.857  0.00  0.00    +0.000 A 
ATOM      4  N   UNL     1      -2.913  10.647  18.378  0.00  0.00    +0.000 NA
ATOM      5  C   UNL     1      -1.737   9.990  18.454  0.00  0.00    +0.000 A 
ATOM      6  C   UNL     1      -0.646  10.611  19.042  0.00  0.00    +0.000 A 
ATOM      7  C   UNL     1       0.722  10.328  19.307  0.00  0.00    +0.000 A 
ATOM      8  N   UNL     1       1.315  11.371  19.915  0.00  0.00    +0.000 NA
ATOM      9  N   UNL     1       0.339  12.303  20.025  0.00  0.00    +0.000 N 
ATOM     10  C   UNL     1      -0.864  11.891  19.514  0.00  0.00    +0.000 A 
ATOM     11  N   UNL     1      -2.018  12.584  19.459  0.00  0.00    +0.000 NA
ATOM     12  H   UNL     1      -4.226  13.326  19.399  0.00  0.00    +0.000 HD
ENDROOT
BRANCH   7  13
ATOM     13  C   UNL     1       1.479   9.123  18.990  0.00  0.00    +0.000 A 
ATOM     14  C   UNL     1       2.131   8.983  17.769  0.00  0.00    +0.000 A 
ATOM     15  C   UNL     1       2.852   7.817  17.501  0.00  0.00    +0.000 A 
ATOM     16  C   UNL     1       2.919   6.790  18.442  0.00  0.00    +0.000 A 
ATOM     17  N   UNL     1       3.629   5.641  18.195  0.00  0.00    +0.000 N 
ATOM     18  C   UNL     1       4.869   5.630  17.416  0.00  0.00    +0.000 C 
ATOM     19  C   UNL     1       6.028   5.019  18.234  0.00  0.00    +0.000 C 
ATOM     20  N   UNL     1       5.717   3.691  18.797  0.00  0.00    +0.000 NA
ATOM     21  C   UNL     1       4.500   3.800  19.629  0.00  0.00    +0.000 C 
ATOM     22  C   UNL     1       3.286   4.389  18.878  0.00  0.00    +0.000 C 
ATOM     23  N   UNL     1       2.269   6.910  19.620  0.00  0.00    +0.000 NA
ATOM     24  C   UNL     1       1.593   8.060  19.873  0.00  0.00    +0.000 A 
ATOM     25  H   UNL     1       6.492   3.391  19.386  0.00  0.00    +0.000 HD
ENDBRANCH   7  13
BRANCH   9  26
ATOM     26  C   UNL     1       0.626  13.576  20.670  0.00  0.00    +0.000 C 
BRANCH  26  27
ATOM     27  C   UNL     1       1.646  14.335  19.909  0.00  0.00    +0.000 A 
ATOM     28  C   UNL     1       3.020  14.291  19.999  0.00  0.00    +0.000 A 
ATOM     29  N   UNL     1       3.476  15.213  19.087  0.00  0.00    +0.000 N 
ATOM     30  N   UNL     1       2.415  15.753  18.435  0.00  0.00    +0.000 NA
ATOM     31  N   UNL     1       1.301  15.225  18.928  0.00  0.00    +0.000 NA
BRANCH  29  32
ATOM     32  C   UNL     1       4.814  15.592  18.810  0.00  0.00    +0.000 A 
ATOM     33  C   UNL     1       5.655  14.742  18.080  0.00  0.00    +0.000 A 
ATOM     34  C   UNL     1       6.972  15.123  17.817  0.00  0.00    +0.000 A 
ATOM     35  C   UNL     1       7.461  16.351  18.261  0.00  0.00    +0.000 A 
ATOM     36  C   UNL     1       6.633  17.193  19.004  0.00  0.00    +0.000 A 
ATOM     37  C   UNL     1       5.310  16.817  19.277  0.00  0.00    +0.000 A 
BRANCH  35  38
ATOM     38  O   UNL     1       8.770  16.598  17.954  0.00  0.00    +0.000 OA
ATOM     39  C   UNL     1       9.226  17.919  18.224  0.00  0.00    +0.000 C 
ENDBRANCH  35  38
ENDBRANCH  29  32
ENDBRANCH  26  27
ENDBRANCH   9  26
TORSDOF 5
ENDMDL
MODEL 3
REMARK VINA RESULT:      -8.9      0.701      1.021
REMARK  Name = 
REMARK  7 active torsions:
REMARK  status: ('A' for Active; 'I' for Inactive)
REMARK    1  A    between atoms: C_1  and  N_2
REMARK    2  A    between atoms: C_7  and  C_8
REMARK    3  A    between atoms: N_21  and  C_22
REMARK    4  A    between atoms: C_22  and  C_23
REMARK    5  A    between atoms: N_25  and  C_26
REMARK    6  A    between atoms: C_29  and  O_30
REMARK    7  A    between atoms: O_30  and  C_31
REMARK                            x       y       z     vdW  Elec       q    Type
REMARK                         _______ _______ _______ _____ _____    ______ ____
ROOT
ATOM      1  C   UNL     1      -5.051  11.490  17.002  0.00  0.00    +0.000 C 
ATOM      2  N   UNL     1      -4.069  12.248  17.746  0.00  0.00    +0.000 N 
ATOM      3  C   UNL     1      -2.919  11.550  18.086  0.00  0.00    +0.000 A 
ATOM      4  N   UNL     1      -2.518  10.541  17.291  0.00  0.00    +0.000 NA
ATOM      5  C   UNL     1      -1.378   9.878  17.577  0.00  0.00    +0.000 A 
ATOM      6  C   UNL     1      -0.643  10.236  18.696  0.00  0.00    +0.000 A 
ATOM      7  C   UNL     1       0.566   9.856  19.340  0.00  0.00    +0.000 A 
ATOM      8  N   UNL     1       0.783  10.611  20.431  0.00  0.00    +0.000 NA
ATOM      9  N   UNL     1      -0.268  11.462  20.473  0.00  0.00    +0.000 N 
ATOM     10  C   UNL     1      -1.159  11.275  19.448  0.00  0.00    +0.000 A 
ATOM     11  N   UNL     1      -2.290  11.963  19.201  0.00  0.00    +0.000 NA
ATOM     12  H   UNL     1      -4.404  12.717  18.576  0.00  0.00    +0.000 HD
ENDROOT
BRANCH   7  13
ATOM     13  C   UNL     1       1.520   8.825  18.947  0.00  0.00    +0.000 A 
ATOM     14  C   UNL     1       2.212   8.905  17.744  0.00  0.00    +0.000 A 
ATOM     15  C   UNL     1       3.122   7.902  17.402  0.00  0.00    +0.000 A 
ATOM     16  C   UNL     1       3.338   6.818  18.252  0.00  0.00    +0.000 A 
ATOM     17  N   UNL     1       4.233   5.827  17.932  0.00  0.00    +0.000 N 
ATOM     18  C   UNL     1       5.475   6.090  17.203  0.00  0.00    +0.000 C 
ATOM     19  C   UNL     1       6.701   5.603  18.007  0.00  0.00    +0.000 C 
ATOM     20  N   UNL     1       6.602   4.197  18.440  0.00  0.00    +0.000 NA
ATOM     21  C   UNL     1       5.365   4.029  19.232  0.00  0.00    +0.000 C 
ATOM     22  C   UNL     1       4.088   4.478  18.490  0.00  0.00    +0.000 C 
ATOM     23  N   UNL     1       2.651   6.721  19.411  0.00  0.00    +0.000 NA
ATOM     24  C   UNL     1       1.788   7.718  19.737  0.00  0.00    +0.000 A 
ATOM     25  H   UNL     1       7.402   3.974  19.029  0.00  0.00    +0.000 HD
ENDBRANCH   7  13
BRANCH   9  26
ATOM     26  C   UNL     1      -0.376  12.425  21.559  0.00  0.00    +0.000 C 
BRANCH  26  27
ATOM     27  C   UNL     1       0.730  13.409  21.503  0.00  0.00    +0.000 A 
ATOM     28  C   UNL     1       1.775  13.506  20.609  0.00  0.00    +0.000 A 
ATOM     29  N   UNL     1       2.519  14.582  21.032  0.00  0.00    +0.000 N 
ATOM     30  N   UNL     1       1.913  15.144  22.109  0.00  0.00    +0.000 NA
ATOM     31  N   UNL     1       0.827  14.439  22.400  0.00  0.00    +0.000 NA
BRANCH  29  32
ATOM     32  C   UNL     1       3.726  15.087  20.487  0.00  0.00    +0.000 A 
ATOM     33  C   UNL     1       3.716  15.796  19.279  0.00  0.00    +0.000 A 
ATOM     34  C   UNL     1       4.911  16.286  18.748  0.00  0.00    +0.000 A 
ATOM     35  C   UNL     1       6.120  16.091  19.416  0.00  0.00    +0.000 A 
ATOM     36  C   UNL     1       6.137  15.370  20.610  0.00  0.00    +0.000 A 
ATOM     37  C   UNL     1       4.943  14.870  21.148  0.00  0.00    +0.000 A 
BRANCH  35  38
ATOM     38  O   UNL     1       7.219  16.603  18.785  0.00  0.00    +0.000 OA
ATOM     39  C   UNL     1       7.872  15.723  17.877  0.00  0.00    +0.000 C 
ENDBRANCH  35  38
ENDBRANCH  29  32
ENDBRANCH  26  27
ENDBRANCH   9  26
TORSDOF 5
ENDMDL
MODEL 4
REMARK VINA RESULT:      -8.5      4.448      9.959
REMARK  Name = 
REMARK  7 active torsions:
REMARK  status: ('A' for Active; 'I' for Inactive)
REMARK    1  A    between atoms: C_1  and  N_2
REMARK    2  A    between atoms: C_7  and  C_8
REMARK    3  A    between atoms: N_21  and  C_22
REMARK    4  A    between atoms: C_22  and  C_23
REMARK    5  A    between atoms: N_25  and  C_26
REMARK    6  A    between atoms: C_29  and  O_30
REMARK    7  A    between atoms: O_30  and  C_31
REMARK                            x       y       z     vdW  Elec       q    Type
REMARK                         _______ _______ _______ _____ _____    ______ ____
ROOT
ATOM      1  C   UNL     1      -3.847  10.098  14.546  0.00  0.00    +0.000 C 
ATOM      2  N   UNL     1      -2.780   9.671  15.426  0.00  0.00    +0.000 N 
ATOM      3  C   UNL     1      -2.637  10.422  16.584  0.00  0.00    +0.000 A 
ATOM      4  N   UNL     1      -3.722  11.029  17.099  0.00  0.00    +0.000 NA
ATOM      5  C   UNL     1      -3.615  11.725  18.250  0.00  0.00    +0.000 A 
ATOM      6  C   UNL     1      -2.383  11.820  18.878  0.00  0.00    +0.000 A 
ATOM      7  C   UNL     1      -1.832  12.396  20.055  0.00  0.00    +0.000 A 
ATOM      8  N   UNL     1      -0.517  12.127  20.147  0.00  0.00    +0.000 NA
ATOM      9  N   UNL     1      -0.243  11.384  19.050  0.00  0.00    +0.000 N 
ATOM     10  C   UNL     1      -1.336  11.172  18.250  0.00  0.00    +0.000 A 
ATOM     11  N   UNL     1      -1.397  10.467  17.104  0.00  0.00    +0.000 NA
ATOM     12  H   UNL     1      -1.867   9.574  15.004  0.00  0.00    +0.000 HD
ENDROOT
BRANCH   7  13
ATOM     13  C   UNL     1      -2.507  13.169  21.091  0.00  0.00    +0.000 A 
ATOM     14  C   UNL     1      -2.106  13.097  22.420  0.00  0.00    +0.000 A 
ATOM     15  C   UNL     1      -2.772  13.855  23.385  0.00  0.00    +0.000 A 
ATOM     16  C   UNL     1      -3.840  14.679  23.030  0.00  0.00    +0.000 A 
ATOM     17  N   UNL     1      -4.502  15.435  23.966  0.00  0.00    +0.000 N 
ATOM     18  C   UNL     1      -3.825  16.034  25.118  0.00  0.00    +0.000 C 
ATOM     19  C   UNL     1      -4.036  17.564  25.147  0.00  0.00    +0.000 C 
ATOM     20  N   UNL     1      -5.453  17.965  25.068  0.00  0.00    +0.000 NA
ATOM     21  C   UNL     1      -6.044  17.386  23.844  0.00  0.00    +0.000 C 
ATOM     22  C   UNL     1      -5.890  15.853  23.746  0.00  0.00    +0.000 C 
ATOM     23  N   UNL     1      -4.250  14.736  21.744  0.00  0.00    +0.000 NA
ATOM     24  C   UNL     1      -3.575  14.010  20.816  0.00  0.00    +0.000 A 
ATOM     25  H   UNL     1      -5.507  18.981  25.010  0.00  0.00    +0.000 HD
ENDBRANCH   7  13
BRANCH   9  26
ATOM     26  C   UNL     1       1.118  10.927  18.808  0.00  0.00    +0.000 C 
BRANCH  26  27
ATOM     27  C   UNL     1       1.333   9.579  19.384  0.00  0.00    +0.000 A 
ATOM     28  C   UNL     1       1.708   8.409  18.761  0.00  0.00    +0.000 A 
ATOM     29  N   UNL     1       1.735   7.459  19.755  0.00  0.00    +0.000 N 
ATOM     30  N   UNL     1       1.440   8.050  20.941  0.00  0.00    +0.000 NA
ATOM     31  N   UNL     1       1.195   9.336  20.724  0.00  0.00    +0.000 NA
BRANCH  29  32
ATOM     32  C   UNL     1       2.019   6.075  19.643  0.00  0.00    +0.000 A 
ATOM     33  C   UNL     1       1.925   5.239  20.764  0.00  0.00    +0.000 A 
ATOM     34  C   UNL     1       2.210   3.878  20.644  0.00  0.00    +0.000 A 
ATOM     35  C   UNL     1       2.576   3.332  19.413  0.00  0.00    +0.000 A 
ATOM     36  C   UNL     1       2.689   4.163  18.299  0.00  0.00    +0.000 A 
ATOM     37  C   UNL     1       2.409   5.532  18.411  0.00  0.00    +0.000 A 
BRANCH  35  38
ATOM     38  O   UNL     1       2.846   1.992  19.432  0.00  0.00    +0.000 OA
ATOM     39  C   UNL     1       3.643   1.511  18.356  0.00  0.00    +0.000 C 
ENDBRANCH  35  38
ENDBRANCH  29  32
ENDBRANCH  26  27
ENDBRANCH   9  26
TORSDOF 5
ENDMDL
MODEL 5
REMARK VINA RESULT:      -8.5      3.087      7.966
REMARK  Name = 
REMARK  7 active torsions:
REMARK  status: ('A' for Active; 'I' for Inactive)
REMARK    1  A    between atoms: C_1  and  N_2
REMARK    2  A    between atoms: C_7  and  C_8
REMARK    3  A    between atoms: N_21  and  C_22
REMARK    4  A    between atoms: C_22  and  C_23
REMARK    5  A    between atoms: N_25  and  C_26
REMARK    6  A    between atoms: C_29  and  O_30
REMARK    7  A    between atoms: O_30  and  C_31
REMARK                            x       y       z     vdW  Elec       q    Type
REMARK                         _______ _______ _______ _____ _____    ______ ____
ROOT
ATOM      1  C   UNL     1       2.674   1.837  19.630  0.00  0.00    +0.000 C 
ATOM      2  N   UNL     1       3.777   2.750  19.421  0.00  0.00    +0.000 N 
ATOM      3  C   UNL     1       3.414   4.040  19.062  0.00  0.00    +0.000 A 
ATOM      4  N   UNL     1       2.226   4.516  19.477  0.00  0.00    +0.000 NA
ATOM      5  C   UNL     1       1.873   5.783  19.180  0.00  0.00    +0.000 A 
ATOM      6  C   UNL     1       2.733   6.574  18.433  0.00  0.00    +0.000 A 
ATOM      7  C   UNL     1       2.787   7.902  17.929  0.00  0.00    +0.000 A 
ATOM      8  N   UNL     1       3.936   8.112  17.262  0.00  0.00    +0.000 NA
ATOM      9  N   UNL     1       4.602   6.937  17.350  0.00  0.00    +0.000 N 
ATOM     10  C   UNL     1       3.917   5.976  18.046  0.00  0.00    +0.000 A 
ATOM     11  N   UNL     1       4.310   4.717  18.321  0.00  0.00    +0.000 NA
ATOM     12  H   UNL     1       4.496   2.440  18.782  0.00  0.00    +0.000 HD
ENDROOT
BRANCH   7  13
ATOM     13  C   UNL     1       1.805   8.970  18.074  0.00  0.00    +0.000 A 
ATOM     14  C   UNL     1       0.488   8.798  17.662  0.00  0.00    +0.000 A 
ATOM     15  C   UNL     1      -0.427   9.841  17.821  0.00  0.00    +0.000 A 
ATOM     16  C   UNL     1      -0.032  11.055  18.382  0.00  0.00    +0.000 A 
ATOM     17  N   UNL     1      -0.921  12.088  18.550  0.00  0.00    +0.000 N 
ATOM     18  C   UNL     1      -2.331  11.869  18.879  0.00  0.00    +0.000 C 
ATOM     19  C   UNL     1      -2.715  12.609  20.180  0.00  0.00    +0.000 C 
ATOM     20  N   UNL     1      -2.365  14.042  20.170  0.00  0.00    +0.000 NA
ATOM     21  C   UNL     1      -0.916  14.176  19.908  0.00  0.00    +0.000 C 
ATOM     22  C   UNL     1      -0.453  13.476  18.611  0.00  0.00    +0.000 C 
ATOM     23  N   UNL     1       1.252  11.237  18.762  0.00  0.00    +0.000 NA
ATOM     24  C   UNL     1       2.122  10.204  18.622  0.00  0.00    +0.000 A 
ATOM     25  H   UNL     1      -2.572  14.440  21.084  0.00  0.00    +0.000 HD
ENDBRANCH   7  13
BRANCH   9  26
ATOM     26  C   UNL     1       5.899   6.792  16.706  0.00  0.00    +0.000 C 
BRANCH  26  27
ATOM     27  C   UNL     1       6.958   7.462  17.496  0.00  0.00    +0.000 A 
ATOM     28  C   UNL     1       7.307   8.795  17.543  0.00  0.00    +0.000 A 
ATOM     29  N   UNL     1       8.368   8.864  18.416  0.00  0.00    +0.000 N 
ATOM     30  N   UNL     1       8.612   7.626  18.915  0.00  0.00    +0.000 NA
ATOM     31  N   UNL     1       7.761   6.770  18.362  0.00  0.00    +0.000 NA
BRANCH  29  32
ATOM     32  C   UNL     1       9.129  10.000  18.788  0.00  0.00    +0.000 A 
ATOM     33  C   UNL     1       9.276  10.344  20.138  0.00  0.00    +0.000 A 
ATOM     34  C   UNL     1      10.025  11.467  20.494  0.00  0.00    +0.000 A 
ATOM     35  C   UNL     1      10.645  12.248  19.519  0.00  0.00    +0.000 A 
ATOM     36  C   UNL     1      10.487  11.920  18.173  0.00  0.00    +0.000 A 
ATOM     37  C   UNL     1       9.733  10.797  17.805  0.00  0.00    +0.000 A 
BRANCH  35  38
ATOM     38  O   UNL     1      11.333  13.329  19.995  0.00  0.00    +0.000 OA
ATOM     39  C   UNL     1      11.038  14.571  19.367  0.00  0.00    +0.000 C 
ENDBRANCH  35  38
ENDBRANCH  29  32
ENDBRANCH  26  27
ENDBRANCH   9  26
TORSDOF 5
ENDMDL
MODEL 6
REMARK VINA RESULT:      -8.5      3.091      7.955
REMARK  Name = 
REMARK  7 active torsions:
REMARK  status: ('A' for Active; 'I' for Inactive)
REMARK    1  A    between atoms: C_1  and  N_2
REMARK    2  A    between atoms: C_7  and  C_8
REMARK    3  A    between atoms: N_21  and  C_22
REMARK    4  A    between atoms: C_22  and  C_23
REMARK    5  A    between atoms: N_25  and  C_26
REMARK    6  A    between atoms: C_29  and  O_30
REMARK    7  A    between atoms: O_30  and  C_31
REMARK                            x       y       z     vdW  Elec       q    Type
REMARK                         _______ _______ _______ _____ _____    ______ ____
ROOT
ATOM      1  C   UNL     1       2.726   1.362  19.038  0.00  0.00    +0.000 C 
ATOM      2  N   UNL     1       3.835   2.286  18.927  0.00  0.00    +0.000 N 
ATOM      3  C   UNL     1       3.478   3.619  18.784  0.00  0.00    +0.000 A 
ATOM      4  N   UNL     1       2.314   4.037  19.314  0.00  0.00    +0.000 NA
ATOM      5  C   UNL     1       1.969   5.338  19.227  0.00  0.00    +0.000 A 
ATOM      6  C   UNL     1       2.813   6.225  18.577  0.00  0.00    +0.000 A 
ATOM      7  C   UNL     1       2.868   7.614  18.280  0.00  0.00    +0.000 A 
ATOM      8  N   UNL     1       3.995   7.913  17.608  0.00  0.00    +0.000 NA
ATOM      9  N   UNL     1       4.645   6.732  17.489  0.00  0.00    +0.000 N 
ATOM     10  C   UNL     1       3.972   5.682  18.057  0.00  0.00    +0.000 A 
ATOM     11  N   UNL     1       4.355   4.393  18.120  0.00  0.00    +0.000 NA
ATOM     12  H   UNL     1       4.524   2.071  18.220  0.00  0.00    +0.000 HD
ENDROOT
BRANCH   7  13
ATOM     13  C   UNL     1       1.909   8.657  18.624  0.00  0.00    +0.000 A 
ATOM     14  C   UNL     1       1.288   9.418  17.640  0.00  0.00    +0.000 A 
ATOM     15  C   UNL     1       0.370  10.405  18.006  0.00  0.00    +0.000 A 
ATOM     16  C   UNL     1       0.075  10.639  19.350  0.00  0.00    +0.000 A 
ATOM     17  N   UNL     1      -0.830  11.601  19.725  0.00  0.00    +0.000 N 
ATOM     18  C   UNL     1      -2.020  11.918  18.933  0.00  0.00    +0.000 C 
ATOM     19  C   UNL     1      -3.303  11.757  19.778  0.00  0.00    +0.000 C 
ATOM     20  N   UNL     1      -3.270  12.504  21.049  0.00  0.00    +0.000 NA
ATOM     21  C   UNL     1      -2.086  12.075  21.822  0.00  0.00    +0.000 C 
ATOM     22  C   UNL     1      -0.756  12.221  21.052  0.00  0.00    +0.000 C 
ATOM     23  N   UNL     1       0.692   9.919  20.311  0.00  0.00    +0.000 NA
ATOM     24  C   UNL     1       1.564   8.948  19.935  0.00  0.00    +0.000 A 
ATOM     25  H   UNL     1      -4.109  12.286  21.584  0.00  0.00    +0.000 HD
ENDBRANCH   7  13
BRANCH   9  26
ATOM     26  C   UNL     1       5.915   6.675  16.781  0.00  0.00    +0.000 C 
BRANCH  26  27
ATOM     27  C   UNL     1       6.971   7.396  17.530  0.00  0.00    +0.000 A 
ATOM     28  C   UNL     1       7.311   8.731  17.503  0.00  0.00    +0.000 A 
ATOM     29  N   UNL     1       8.372   8.856  18.368  0.00  0.00    +0.000 N 
ATOM     30  N   UNL     1       8.624   7.649  18.936  0.00  0.00    +0.000 NA
ATOM     31  N   UNL     1       7.779   6.759  18.434  0.00  0.00    +0.000 NA
BRANCH  29  32
ATOM     32  C   UNL     1       9.127  10.016  18.675  0.00  0.00    +0.000 A 
ATOM     33  C   UNL     1       9.637  10.822  17.649  0.00  0.00    +0.000 A 
ATOM     34  C   UNL     1      10.382  11.960  17.962  0.00  0.00    +0.000 A 
ATOM     35  C   UNL     1      10.617  12.316  19.290  0.00  0.00    +0.000 A 
ATOM     36  C   UNL     1      10.127  11.506  20.315  0.00  0.00    +0.000 A 
ATOM     37  C   UNL     1       9.381  10.359  20.010  0.00  0.00    +0.000 A 
BRANCH  35  38
ATOM     38  O   UNL     1      11.374  13.440  19.462  0.00  0.00    +0.000 OA
ATOM     39  C   UNL     1      10.724  14.671  19.167  0.00  0.00    +0.000 C 
ENDBRANCH  35  38
ENDBRANCH  29  32
ENDBRANCH  26  27
ENDBRANCH   9  26
TORSDOF 5
ENDMDL
MODEL 7
REMARK VINA RESULT:      -8.4      0.896      1.437
REMARK  Name = 
REMARK  7 active torsions:
REMARK  status: ('A' for Active; 'I' for Inactive)
REMARK    1  A    between atoms: C_1  and  N_2
REMARK    2  A    between atoms: C_7  and  C_8
REMARK    3  A    between atoms: N_21  and  C_22
REMARK    4  A    between atoms: C_22  and  C_23
REMARK    5  A    between atoms: N_25  and  C_26
REMARK    6  A    between atoms: C_29  and  O_30
REMARK    7  A    between atoms: O_30  and  C_31
REMARK                            x       y       z     vdW  Elec       q    Type
REMARK                         _______ _______ _______ _____ _____    ______ ____
ROOT
ATOM      1  C   UNL     1      -5.586  11.427  18.129  0.00  0.00    +0.000 C 
ATOM      2  N   UNL     1      -4.476  12.341  18.298  0.00  0.00    +0.000 N 
ATOM      3  C   UNL     1      -3.250  11.739  18.541  0.00  0.00    +0.000 A 
ATOM      4  N   UNL     1      -3.027  10.506  18.052  0.00  0.00    +0.000 NA
ATOM      5  C   UNL     1      -1.825   9.921  18.236  0.00  0.00    +0.000 A 
ATOM      6  C   UNL     1      -0.840  10.594  18.942  0.00  0.00    +0.000 A 
ATOM      7  C   UNL     1       0.509  10.390  19.340  0.00  0.00    +0.000 A 
ATOM      8  N   UNL     1       0.971  11.453  20.022  0.00  0.00    +0.000 NA
ATOM      9  N   UNL     1      -0.068  12.319  20.049  0.00  0.00    +0.000 N 
ATOM     10  C   UNL     1      -1.186  11.847  19.412  0.00  0.00    +0.000 A 
ATOM     11  N   UNL     1      -2.370  12.468  19.252  0.00  0.00    +0.000 NA
ATOM     12  H   UNL     1      -4.604  13.074  18.981  0.00  0.00    +0.000 HD
ENDROOT
BRANCH   7  13
ATOM     13  C   UNL     1       1.370   9.242  19.080  0.00  0.00    +0.000 A 
ATOM     14  C   UNL     1       1.446   8.181  19.975  0.00  0.00    +0.000 A 
ATOM     15  C   UNL     1       2.276   7.095  19.692  0.00  0.00    +0.000 A 
ATOM     16  C   UNL     1       3.036   7.067  18.522  0.00  0.00    +0.000 A 
ATOM     17  N   UNL     1       3.853   6.004  18.226  0.00  0.00    +0.000 N 
ATOM     18  C   UNL     1       3.516   4.625  18.586  0.00  0.00    +0.000 C 
ATOM     19  C   UNL     1       3.501   3.717  17.337  0.00  0.00    +0.000 C 
ATOM     20  N   UNL     1       4.738   3.793  16.537  0.00  0.00    +0.000 NA
ATOM     21  C   UNL     1       4.969   5.200  16.150  0.00  0.00    +0.000 C 
ATOM     22  C   UNL     1       5.015   6.174  17.347  0.00  0.00    +0.000 C 
ATOM     23  N   UNL     1       2.985   8.105  17.659  0.00  0.00    +0.000 NA
ATOM     24  C   UNL     1       2.154   9.141  17.940  0.00  0.00    +0.000 A 
ATOM     25  H   UNL     1       4.623   3.234  15.694  0.00  0.00    +0.000 HD
ENDBRANCH   7  13
BRANCH   9  26
ATOM     26  C   UNL     1       0.070  13.592  20.741  0.00  0.00    +0.000 C 
BRANCH  26  27
ATOM     27  C   UNL     1       1.496  13.980  20.853  0.00  0.00    +0.000 A 
ATOM     28  C   UNL     1       2.417  14.234  19.860  0.00  0.00    +0.000 A 
ATOM     29  N   UNL     1       3.590  14.526  20.516  0.00  0.00    +0.000 N 
ATOM     30  N   UNL     1       3.367  14.501  21.854  0.00  0.00    +0.000 NA
ATOM     31  N   UNL     1       2.099  14.171  22.067  0.00  0.00    +0.000 NA
BRANCH  29  32
ATOM     32  C   UNL     1       4.860  14.819  19.960  0.00  0.00    +0.000 A 
ATOM     33  C   UNL     1       5.993  14.894  20.781  0.00  0.00    +0.000 A 
ATOM     34  C   UNL     1       7.239  15.187  20.224  0.00  0.00    +0.000 A 
ATOM     35  C   UNL     1       7.376  15.393  18.851  0.00  0.00    +0.000 A 
ATOM     36  C   UNL     1       6.248  15.337  18.033  0.00  0.00    +0.000 A 
ATOM     37  C   UNL     1       4.992  15.048  18.584  0.00  0.00    +0.000 A 
BRANCH  35  38
ATOM     38  O   UNL     1       8.643  15.690  18.434  0.00  0.00    +0.000 OA
ATOM     39  C   UNL     1       9.267  16.784  19.096  0.00  0.00    +0.000 C 
ENDBRANCH  35  38
ENDBRANCH  29  32
ENDBRANCH  26  27
ENDBRANCH   9  26
TORSDOF 5
ENDMDL
MODEL 8
REMARK VINA RESULT:      -8.3      3.143      7.879
REMARK  Name = 
REMARK  7 active torsions:
REMARK  status: ('A' for Active; 'I' for Inactive)
REMARK    1  A    between atoms: C_1  and  N_2
REMARK    2  A    between atoms: C_7  and  C_8
REMARK    3  A    between atoms: N_21  and  C_22
REMARK    4  A    between atoms: C_22  and  C_23
REMARK    5  A    between atoms: N_25  and  C_26
REMARK    6  A    between atoms: C_29  and  O_30
REMARK    7  A    between atoms: O_30  and  C_31
REMARK                            x       y       z     vdW  Elec       q    Type
REMARK                         _______ _______ _______ _____ _____    ______ ____
ROOT
ATOM      1  C   UNL     1       1.884   1.457  18.694  0.00  0.00    +0.000 C 
ATOM      2  N   UNL     1       3.064   2.287  18.580  0.00  0.00    +0.000 N 
ATOM      3  C   UNL     1       2.825   3.654  18.577  0.00  0.00    +0.000 A 
ATOM      4  N   UNL     1       1.744   4.122  19.227  0.00  0.00    +0.000 NA
ATOM      5  C   UNL     1       1.518   5.451  19.277  0.00  0.00    +0.000 A 
ATOM      6  C   UNL     1       2.395   6.316  18.644  0.00  0.00    +0.000 A 
ATOM      7  C   UNL     1       2.561   7.716  18.462  0.00  0.00    +0.000 A 
ATOM      8  N   UNL     1       3.663   7.975  17.735  0.00  0.00    +0.000 NA
ATOM      9  N   UNL     1       4.190   6.758  17.468  0.00  0.00    +0.000 N 
ATOM     10  C   UNL     1       3.461   5.724  17.994  0.00  0.00    +0.000 A 
ATOM     11  N   UNL     1       3.725   4.405  17.918  0.00  0.00    +0.000 NA
ATOM     12  H   UNL     1       3.681   2.078  17.807  0.00  0.00    +0.000 HD
ENDROOT
BRANCH   7  13
ATOM     13  C   UNL     1       1.729   8.803  18.965  0.00  0.00    +0.000 A 
ATOM     14  C   UNL     1       1.378   9.877  18.154  0.00  0.00    +0.000 A 
ATOM     15  C   UNL     1       0.575  10.897  18.668  0.00  0.00    +0.000 A 
ATOM     16  C   UNL     1       0.127  10.854  19.988  0.00  0.00    +0.000 A 
ATOM     17  N   UNL     1      -0.667  11.847  20.506  0.00  0.00    +0.000 N 
ATOM     18  C   UNL     1      -1.669  12.554  19.705  0.00  0.00    +0.000 C 
ATOM     19  C   UNL     1      -3.070  12.432  20.344  0.00  0.00    +0.000 C 
ATOM     20  N   UNL     1      -3.110  12.836  21.762  0.00  0.00    +0.000 NA
ATOM     21  C   UNL     1      -2.128  12.027  22.514  0.00  0.00    +0.000 C 
ATOM     22  C   UNL     1      -0.694  12.109  21.949  0.00  0.00    +0.000 C 
ATOM     23  N   UNL     1       0.484   9.826  20.788  0.00  0.00    +0.000 NA
ATOM     24  C   UNL     1       1.246   8.831  20.265  0.00  0.00    +0.000 A 
ATOM     25  H   UNL     1      -4.040  12.653  22.133  0.00  0.00    +0.000 HD
ENDBRANCH   7  13
BRANCH   9  26
ATOM     26  C   UNL     1       5.399   6.655  16.664  0.00  0.00    +0.000 C 
BRANCH  26  27
ATOM     27  C   UNL     1       6.551   7.274  17.360  0.00  0.00    +0.000 A 
ATOM     28  C   UNL     1       6.918   8.599  17.442  0.00  0.00    +0.000 A 
ATOM     29  N   UNL     1       8.075   8.613  18.186  0.00  0.00    +0.000 N 
ATOM     30  N   UNL     1       8.361   7.347  18.582  0.00  0.00    +0.000 NA
ATOM     31  N   UNL     1       7.442   6.528  18.086  0.00  0.00    +0.000 NA
BRANCH  29  32
ATOM     32  C   UNL     1       8.888   9.721  18.530  0.00  0.00    +0.000 A 
ATOM     33  C   UNL     1       9.204   9.980  19.871  0.00  0.00    +0.000 A 
ATOM     34  C   UNL     1      10.003  11.077  20.200  0.00  0.00    +0.000 A 
ATOM     35  C   UNL     1      10.505  11.916  19.205  0.00  0.00    +0.000 A 
ATOM     36  C   UNL     1      10.178  11.673  17.871  0.00  0.00    +0.000 A 
ATOM     37  C   UNL     1       9.373  10.577  17.532  0.00  0.00    +0.000 A 
BRANCH  35  38
ATOM     38  O   UNL     1      11.258  12.963  19.658  0.00  0.00    +0.000 OA
ATOM     39  C   UNL     1      10.541  14.160  19.935  0.00  0.00    +0.000 C 
ENDBRANCH  35  38
ENDBRANCH  29  32
ENDBRANCH  26  27
ENDBRANCH   9  26
TORSDOF 5
ENDMDL
MODEL 9
REMARK VINA RESULT:      -8.3      1.701      2.391
REMARK  Name = 
REMARK  7 active torsions:
REMARK  status: ('A' for Active; 'I' for Inactive)
REMARK    1  A    between atoms: C_1  and  N_2
REMARK    2  A    between atoms: C_7  and  C_8
REMARK    3  A    between atoms: N_21  and  C_22
REMARK    4  A    between atoms: C_22  and  C_23
REMARK    5  A    between atoms: N_25  and  C_26
REMARK    6  A    between atoms: C_29  and  O_30
REMARK    7  A    between atoms: O_30  and  C_31
REMARK                            x       y       z     vdW  Elec       q    Type
REMARK                         _______ _______ _______ _____ _____    ______ ____
ROOT
ATOM      1  C   UNL     1      -5.372  11.325  17.911  0.00  0.00    +0.000 C 
ATOM      2  N   UNL     1      -4.210  12.134  17.612  0.00  0.00    +0.000 N 
ATOM      3  C   UNL     1      -2.990  11.548  17.915  0.00  0.00    +0.000 A 
ATOM      4  N   UNL     1      -2.892  10.207  17.882  0.00  0.00    +0.000 NA
ATOM      5  C   UNL     1      -1.704   9.617  18.128  0.00  0.00    +0.000 A 
ATOM      6  C   UNL     1      -0.602  10.403  18.428  0.00  0.00    +0.000 A 
ATOM      7  C   UNL     1       0.779  10.230  18.717  0.00  0.00    +0.000 A 
ATOM      8  N   UNL     1       1.378  11.418  18.913  0.00  0.00    +0.000 NA
ATOM      9  N   UNL     1       0.392  12.329  18.743  0.00  0.00    +0.000 N 
ATOM     10  C   UNL     1      -0.823  11.767  18.450  0.00  0.00    +0.000 A 
ATOM     11  N   UNL     1      -1.989  12.396  18.211  0.00  0.00    +0.000 NA
ATOM     12  H   UNL     1      -4.210  13.069  17.995  0.00  0.00    +0.000 HD
ENDROOT
BRANCH   7  13
ATOM     13  C   UNL     1       1.544   8.990  18.793  0.00  0.00    +0.000 A 
ATOM     14  C   UNL     1       1.502   8.186  19.926  0.00  0.00    +0.000 A 
ATOM     15  C   UNL     1       2.242   7.003  19.962  0.00  0.00    +0.000 A 
ATOM     16  C   UNL     1       3.030   6.623  18.875  0.00  0.00    +0.000 A 
ATOM     17  N   UNL     1       3.759   5.460  18.893  0.00  0.00    +0.000 N 
ATOM     18  C   UNL     1       3.293   4.247  19.567  0.00  0.00    +0.000 C 
ATOM     19  C   UNL     1       3.235   3.057  18.583  0.00  0.00    +0.000 C 
ATOM     20  N   UNL     1       4.497   2.834  17.852  0.00  0.00    +0.000 NA
ATOM     21  C   UNL     1       4.860   4.077  17.139  0.00  0.00    +0.000 C 
ATOM     22  C   UNL     1       4.956   5.314  18.058  0.00  0.00    +0.000 C 
ATOM     23  N   UNL     1       3.094   7.411  17.780  0.00  0.00    +0.000 NA
ATOM     24  C   UNL     1       2.348   8.546  17.754  0.00  0.00    +0.000 A 
ATOM     25  H   UNL     1       4.358   2.092  17.169  0.00  0.00    +0.000 HD
ENDBRANCH   7  13
BRANCH   9  26
ATOM     26  C   UNL     1       0.681  13.746  18.909  0.00  0.00    +0.000 C 
BRANCH  26  27
ATOM     27  C   UNL     1       1.698  13.957  19.966  0.00  0.00    +0.000 A 
ATOM     28  C   UNL     1       3.033  14.275  19.848  0.00  0.00    +0.000 A 
ATOM     29  N   UNL     1       3.512  14.328  21.136  0.00  0.00    +0.000 N 
ATOM     30  N   UNL     1       2.488  14.103  21.998  0.00  0.00    +0.000 NA
ATOM     31  N   UNL     1       1.384  13.877  21.296  0.00  0.00    +0.000 NA
BRANCH  29  32
ATOM     32  C   UNL     1       4.837  14.574  21.574  0.00  0.00    +0.000 A 
ATOM     33  C   UNL     1       5.560  15.663  21.070  0.00  0.00    +0.000 A 
ATOM     34  C   UNL     1       6.866  15.894  21.505  0.00  0.00    +0.000 A 
ATOM     35  C   UNL     1       7.460  15.059  22.452  0.00  0.00    +0.000 A 
ATOM     36  C   UNL     1       6.751  13.963  22.942  0.00  0.00    +0.000 A 
ATOM     37  C   UNL     1       5.441  13.720  22.508  0.00  0.00    +0.000 A 
BRANCH  35  38
ATOM     38  O   UNL     1       8.747  15.381  22.781  0.00  0.00    +0.000 OA
ATOM     39  C   UNL     1       8.897  16.240  23.906  0.00  0.00    +0.000 C 
ENDBRANCH  35  38
ENDBRANCH  29  32
ENDBRANCH  26  27
ENDBRANCH   9  26
TORSDOF 5
ENDMDL
