MODEL 1
REMARK VINA RESULT:      -6.9      0.000      0.000
REMARK  Name = 
REMARK  2 active torsions:
REMARK  status: ('A' for Active; 'I' for Inactive)
REMARK    1  A    between atoms: C_1  and  N_2
REMARK    2  A    between atoms: C_7  and  C_8
REMARK                            x       y       z     vdW  Elec       q    Type
REMARK                         _______ _______ _______ _____ _____    ______ ____
ROOT
ATOM      1  C   UNL     1       4.936   4.365  18.854  0.00  0.00    +0.000 C 
ATOM      2  O   UNL     1       5.216   3.267  19.353  0.00  0.00    +0.000 OA
ATOM      3  N   UNL     1       3.757   4.981  19.271  0.00  0.00    +0.000 N 
ATOM      4  C   UNL     1       3.048   4.405  20.434  0.00  0.00    +0.000 C 
ATOM      5  C   UNL     1       1.914   5.353  20.813  0.00  0.00    +0.000 C 
ATOM      6  C   UNL     1       2.140   6.486  19.865  0.00  0.00    +0.000 A 
ATOM      7  C   UNL     1       1.504   7.720  19.876  0.00  0.00    +0.000 A 
ATOM      8  C   UNL     1       1.834   8.634  18.879  0.00  0.00    +0.000 A 
ATOM      9  C   UNL     1       2.700   8.263  17.842  0.00  0.00    +0.000 A 
ATOM     10  C   UNL     1       3.300   7.000  17.825  0.00  0.00    +0.000 A 
ATOM     11  C   UNL     1       3.097   6.160  18.907  0.00  0.00    +0.000 A 
ENDROOT
BRANCH   1  18
ATOM     12  C   UNL     1       7.766   5.881  19.324  0.00  0.00    +0.000 C 
ATOM     13  N   UNL     1       7.039   5.625  18.102  0.00  0.00    +0.000 N 
ATOM     14  N   UNL     1       7.634   6.035  16.957  0.00  0.00    +0.000 NA
ATOM     15  C   UNL     1       6.906   5.463  16.000  0.00  0.00    +0.000 A 
ATOM     16  C   UNL     1       5.800   4.779  16.522  0.00  0.00    +0.000 A 
ATOM     17 CL   UNL     1       4.680   3.919  15.580  0.00  0.00    +0.000 Cl
ATOM     18  C   UNL     1       5.848   4.959  17.898  0.00  0.00    +0.000 A 
ENDBRANCH   1  18
TORSDOF 1
ENDMDL
MODEL 2
REMARK VINA RESULT:      -6.9      2.380      5.224
REMARK  Name = 
REMARK  2 active torsions:
REMARK  status: ('A' for Active; 'I' for Inactive)
REMARK    1  A    between atoms: C_1  and  N_2
REMARK    2  A    between atoms: C_7  and  C_8
REMARK                            x       y       z     vdW  Elec       q    Type
REMARK                         _______ _______ _______ _____ _____    ______ ____
ROOT
ATOM      1  C   UNL     1       2.956   3.905  17.707  0.00  0.00    +0.000 C 
ATOM      2  O   UNL     1       2.163   3.340  16.943  0.00  0.00    +0.000 OA
ATOM      3  N   UNL     1       4.286   4.002  17.300  0.00  0.00    +0.000 N 
ATOM      4  C   UNL     1       4.611   3.639  15.903  0.00  0.00    +0.000 C 
ATOM      5  C   UNL     1       6.069   4.011  15.646  0.00  0.00    +0.000 C 
ATOM      6  C   UNL     1       6.442   4.674  16.932  0.00  0.00    +0.000 A 
ATOM      7  C   UNL     1       7.612   5.371  17.200  0.00  0.00    +0.000 A 
ATOM      8  C   UNL     1       7.785   5.889  18.481  0.00  0.00    +0.000 A 
ATOM      9  C   UNL     1       6.849   5.612  19.485  0.00  0.00    +0.000 A 
ATOM     10  C   UNL     1       5.695   4.873  19.206  0.00  0.00    +0.000 A 
ATOM     11  C   UNL     1       5.449   4.505  17.894  0.00  0.00    +0.000 A 
ENDROOT
BRANCH   1  18
ATOM     12  C   UNL     1       2.661   2.521  20.627  0.00  0.00    +0.000 C 
ATOM     13  N   UNL     1       2.319   3.855  20.190  0.00  0.00    +0.000 N 
ATOM     14  N   UNL     1       1.838   4.689  21.143  0.00  0.00    +0.000 NA
ATOM     15  C   UNL     1       1.853   5.883  20.554  0.00  0.00    +0.000 A 
ATOM     16  C   UNL     1       2.241   5.799  19.210  0.00  0.00    +0.000 A 
ATOM     17 CL   UNL     1       2.389   7.137  18.175  0.00  0.00    +0.000 Cl
ATOM     18  C   UNL     1       2.466   4.453  18.956  0.00  0.00    +0.000 A 
ENDBRANCH   1  18
TORSDOF 1
ENDMDL
MODEL 3
REMARK VINA RESULT:      -6.9      2.291      5.229
REMARK  Name = 
REMARK  2 active torsions:
REMARK  status: ('A' for Active; 'I' for Inactive)
REMARK    1  A    between atoms: C_1  and  N_2
REMARK    2  A    between atoms: C_7  and  C_8
REMARK                            x       y       z     vdW  Elec       q    Type
REMARK                         _______ _______ _______ _____ _____    ______ ____
ROOT
ATOM      1  C   UNL     1       3.008   3.955  17.524  0.00  0.00    +0.000 C 
ATOM      2  O   UNL     1       2.248   3.439  16.694  0.00  0.00    +0.000 OA
ATOM      3  N   UNL     1       4.338   4.143  17.150  0.00  0.00    +0.000 N 
ATOM      4  C   UNL     1       4.694   3.936  15.730  0.00  0.00    +0.000 C 
ATOM      5  C   UNL     1       6.139   4.387  15.535  0.00  0.00    +0.000 C 
ATOM      6  C   UNL     1       6.469   4.931  16.886  0.00  0.00    +0.000 A 
ATOM      7  C   UNL     1       7.608   5.642  17.242  0.00  0.00    +0.000 A 
ATOM      8  C   UNL     1       7.745   6.034  18.571  0.00  0.00    +0.000 A 
ATOM      9  C   UNL     1       6.807   5.622  19.527  0.00  0.00    +0.000 A 
ATOM     10  C   UNL     1       5.687   4.871  19.157  0.00  0.00    +0.000 A 
ATOM     11  C   UNL     1       5.473   4.628  17.810  0.00  0.00    +0.000 A 
ENDROOT
BRANCH   1  18
ATOM     12  C   UNL     1       2.548   6.917  18.766  0.00  0.00    +0.000 C 
ATOM     13  N   UNL     1       2.309   5.616  19.349  0.00  0.00    +0.000 N 
ATOM     14  N   UNL     1       1.768   5.607  20.590  0.00  0.00    +0.000 NA
ATOM     15  C   UNL     1       1.420   4.336  20.774  0.00  0.00    +0.000 A 
ATOM     16  C   UNL     1       1.825   3.523  19.708  0.00  0.00    +0.000 A 
ATOM     17 CL   UNL     1       1.520   1.855  19.612  0.00  0.00    +0.000 Cl
ATOM     18  C   UNL     1       2.481   4.356  18.813  0.00  0.00    +0.000 A 
ENDBRANCH   1  18
TORSDOF 1
ENDMDL
MODEL 4
REMARK VINA RESULT:      -6.8      2.434      5.254
REMARK  Name = 
REMARK  2 active torsions:
REMARK  status: ('A' for Active; 'I' for Inactive)
REMARK    1  A    between atoms: C_1  and  N_2
REMARK    2  A    between atoms: C_7  and  C_8
REMARK                            x       y       z     vdW  Elec       q    Type
REMARK                         _______ _______ _______ _____ _____    ______ ____
ROOT
ATOM      1  C   UNL     1       2.612   4.593  17.933  0.00  0.00    +0.000 C 
ATOM      2  O   UNL     1       1.689   4.101  17.270  0.00  0.00    +0.000 OA
ATOM      3  N   UNL     1       3.916   4.299  17.538  0.00  0.00    +0.000 N 
ATOM      4  C   UNL     1       4.111   3.623  16.238  0.00  0.00    +0.000 C 
ATOM      5  C   UNL     1       5.608   3.588  15.944  0.00  0.00    +0.000 C 
ATOM      6  C   UNL     1       6.159   4.367  17.093  0.00  0.00    +0.000 A 
ATOM      7  C   UNL     1       7.467   4.806  17.251  0.00  0.00    +0.000 A 
ATOM      8  C   UNL     1       7.790   5.492  18.419  0.00  0.00    +0.000 A 
ATOM      9  C   UNL     1       6.840   5.630  19.439  0.00  0.00    +0.000 A 
ATOM     10  C   UNL     1       5.538   5.145  19.279  0.00  0.00    +0.000 A 
ATOM     11  C   UNL     1       5.180   4.614  18.052  0.00  0.00    +0.000 A 
ENDROOT
BRANCH   1  18
ATOM     12  C   UNL     1       2.638   7.831  18.144  0.00  0.00    +0.000 C 
ATOM     13  N   UNL     1       2.332   6.835  19.146  0.00  0.00    +0.000 N 
ATOM     14  N   UNL     1       1.951   7.305  20.357  0.00  0.00    +0.000 NA
ATOM     15  C   UNL     1       1.491   6.225  20.984  0.00  0.00    +0.000 A 
ATOM     16  C   UNL     1       1.668   5.063  20.223  0.00  0.00    +0.000 A 
ATOM     17 CL   UNL     1       1.171   3.515  20.716  0.00  0.00    +0.000 Cl
ATOM     18  C   UNL     1       2.296   5.459  19.051  0.00  0.00    +0.000 A 
ENDBRANCH   1  18
TORSDOF 1
ENDMDL
MODEL 5
REMARK VINA RESULT:      -6.8      1.806      3.201
REMARK  Name = 
REMARK  2 active torsions:
REMARK  status: ('A' for Active; 'I' for Inactive)
REMARK    1  A    between atoms: C_1  and  N_2
REMARK    2  A    between atoms: C_7  and  C_8
REMARK                            x       y       z     vdW  Elec       q    Type
REMARK                         _______ _______ _______ _____ _____    ______ ____
ROOT
ATOM      1  C   UNL     1       4.068   6.362  17.861  0.00  0.00    +0.000 C 
ATOM      2  O   UNL     1       3.884   7.517  17.452  0.00  0.00    +0.000 OA
ATOM      3  N   UNL     1       3.404   5.977  19.024  0.00  0.00    +0.000 N 
ATOM      4  C   UNL     1       2.358   6.877  19.556  0.00  0.00    +0.000 C 
ATOM      5  C   UNL     1       1.652   6.156  20.701  0.00  0.00    +0.000 C 
ATOM      6  C   UNL     1       2.308   4.814  20.662  0.00  0.00    +0.000 A 
ATOM      7  C   UNL     1       1.934   3.683  21.375  0.00  0.00    +0.000 A 
ATOM      8  C   UNL     1       2.701   2.531  21.223  0.00  0.00    +0.000 A 
ATOM      9  C   UNL     1       3.874   2.562  20.457  0.00  0.00    +0.000 A 
ATOM     10  C   UNL     1       4.258   3.723  19.779  0.00  0.00    +0.000 A 
ATOM     11  C   UNL     1       3.402   4.811  19.800  0.00  0.00    +0.000 A 
ENDROOT
BRANCH   1  18
ATOM     12  C   UNL     1       7.292   6.386  17.499  0.00  0.00    +0.000 C 
ATOM     13  N   UNL     1       6.299   5.501  16.934  0.00  0.00    +0.000 N 
ATOM     14  N   UNL     1       6.768   4.490  16.166  0.00  0.00    +0.000 NA
ATOM     15  C   UNL     1       5.708   3.703  15.997  0.00  0.00    +0.000 A 
ATOM     16  C   UNL     1       4.552   4.255  16.564  0.00  0.00    +0.000 A 
ATOM     17 CL   UNL     1       3.030   3.501  16.550  0.00  0.00    +0.000 Cl
ATOM     18  C   UNL     1       4.930   5.475  17.107  0.00  0.00    +0.000 A 
ENDBRANCH   1  18
TORSDOF 1
ENDMDL
MODEL 6
REMARK VINA RESULT:      -6.7      1.565      1.977
REMARK  Name = 
REMARK  2 active torsions:
REMARK  status: ('A' for Active; 'I' for Inactive)
REMARK    1  A    between atoms: C_1  and  N_2
REMARK    2  A    between atoms: C_7  and  C_8
REMARK                            x       y       z     vdW  Elec       q    Type
REMARK                         _______ _______ _______ _____ _____    ______ ____
ROOT
ATOM      1  C   UNL     1       4.853   3.937  18.973  0.00  0.00    +0.000 C 
ATOM      2  O   UNL     1       5.034   2.840  19.519  0.00  0.00    +0.000 OA
ATOM      3  N   UNL     1       3.721   4.662  19.342  0.00  0.00    +0.000 N 
ATOM      4  C   UNL     1       2.947   4.191  20.511  0.00  0.00    +0.000 C 
ATOM      5  C   UNL     1       1.888   5.242  20.831  0.00  0.00    +0.000 C 
ATOM      6  C   UNL     1       2.222   6.315  19.845  0.00  0.00    +0.000 A 
ATOM      7  C   UNL     1       1.689   7.596  19.797  0.00  0.00    +0.000 A 
ATOM      8  C   UNL     1       2.109   8.440  18.772  0.00  0.00    +0.000 A 
ATOM      9  C   UNL     1       2.959   7.960  17.768  0.00  0.00    +0.000 A 
ATOM     10  C   UNL     1       3.455   6.653  17.811  0.00  0.00    +0.000 A 
ATOM     11  C   UNL     1       3.165   5.876  18.920  0.00  0.00    +0.000 A 
ENDROOT
BRANCH   1  18
ATOM     12  C   UNL     1       4.736   4.005  15.731  0.00  0.00    +0.000 C 
ATOM     13  N   UNL     1       5.784   4.423  16.634  0.00  0.00    +0.000 N 
ATOM     14  N   UNL     1       6.881   4.972  16.060  0.00  0.00    +0.000 NA
ATOM     15  C   UNL     1       7.549   5.491  17.088  0.00  0.00    +0.000 A 
ATOM     16  C   UNL     1       6.940   5.189  18.313  0.00  0.00    +0.000 A 
ATOM     17 CL   UNL     1       7.518   5.715  19.821  0.00  0.00    +0.000 Cl
ATOM     18  C   UNL     1       5.826   4.417  18.013  0.00  0.00    +0.000 A 
ENDBRANCH   1  18
TORSDOF 1
ENDMDL
MODEL 7
REMARK VINA RESULT:      -6.6      2.649      5.120
REMARK  Name = 
REMARK  2 active torsions:
REMARK  status: ('A' for Active; 'I' for Inactive)
REMARK    1  A    between atoms: C_1  and  N_2
REMARK    2  A    between atoms: C_7  and  C_8
REMARK                            x       y       z     vdW  Elec       q    Type
REMARK                         _______ _______ _______ _____ _____    ______ ____
ROOT
ATOM      1  C   UNL     1       3.371   3.786  17.543  0.00  0.00    +0.000 C 
ATOM      2  O   UNL     1       2.578   3.318  16.715  0.00  0.00    +0.000 OA
ATOM      3  N   UNL     1       4.559   4.333  17.060  0.00  0.00    +0.000 N 
ATOM      4  C   UNL     1       4.688   4.530  15.600  0.00  0.00    +0.000 C 
ATOM      5  C   UNL     1       5.973   5.312  15.341  0.00  0.00    +0.000 C 
ATOM      6  C   UNL     1       6.437   5.598  16.732  0.00  0.00    +0.000 A 
ATOM      7  C   UNL     1       7.477   6.438  17.106  0.00  0.00    +0.000 A 
ATOM      8  C   UNL     1       7.777   6.543  18.462  0.00  0.00    +0.000 A 
ATOM      9  C   UNL     1       7.112   5.737  19.395  0.00  0.00    +0.000 A 
ATOM     10  C   UNL     1       6.094   4.865  18.994  0.00  0.00    +0.000 A 
ATOM     11  C   UNL     1       5.690   4.890  17.670  0.00  0.00    +0.000 A 
ENDROOT
BRANCH   1  18
ATOM     12  C   UNL     1       4.106   1.628  19.852  0.00  0.00    +0.000 C 
ATOM     13  N   UNL     1       3.313   2.834  19.924  0.00  0.00    +0.000 N 
ATOM     14  N   UNL     1       2.826   3.157  21.145  0.00  0.00    +0.000 NA
ATOM     15  C   UNL     1       2.376   4.399  20.988  0.00  0.00    +0.000 A 
ATOM     16  C   UNL     1       2.479   4.829  19.659  0.00  0.00    +0.000 A 
ATOM     17 CL   UNL     1       2.018   6.370  19.116  0.00  0.00    +0.000 Cl
ATOM     18  C   UNL     1       3.020   3.766  18.949  0.00  0.00    +0.000 A 
ENDBRANCH   1  18
TORSDOF 1
ENDMDL
MODEL 8
REMARK VINA RESULT:      -6.6      2.226      3.613
REMARK  Name = 
REMARK  2 active torsions:
REMARK  status: ('A' for Active; 'I' for Inactive)
REMARK    1  A    between atoms: C_1  and  N_2
REMARK    2  A    between atoms: C_7  and  C_8
REMARK                            x       y       z     vdW  Elec       q    Type
REMARK                         _______ _______ _______ _____ _____    ______ ____
ROOT
ATOM      1  C   UNL     1       4.238   6.350  17.933  0.00  0.00    +0.000 C 
ATOM      2  O   UNL     1       4.100   7.508  17.516  0.00  0.00    +0.000 OA
ATOM      3  N   UNL     1       3.490   5.973  19.047  0.00  0.00    +0.000 N 
ATOM      4  C   UNL     1       2.423   6.889  19.508  0.00  0.00    +0.000 C 
ATOM      5  C   UNL     1       1.629   6.177  20.600  0.00  0.00    +0.000 C 
ATOM      6  C   UNL     1       2.266   4.826  20.602  0.00  0.00    +0.000 A 
ATOM      7  C   UNL     1       1.826   3.699  21.285  0.00  0.00    +0.000 A 
ATOM      8  C   UNL     1       2.584   2.536  21.184  0.00  0.00    +0.000 A 
ATOM      9  C   UNL     1       3.807   2.550  20.501  0.00  0.00    +0.000 A 
ATOM     10  C   UNL     1       4.255   3.706  19.853  0.00  0.00    +0.000 A 
ATOM     11  C   UNL     1       3.416   4.807  19.818  0.00  0.00    +0.000 A 
ENDROOT
BRANCH   1  18
ATOM     12  C   UNL     1       3.608   3.633  16.277  0.00  0.00    +0.000 C 
ATOM     13  N   UNL     1       4.869   4.282  16.555  0.00  0.00    +0.000 N 
ATOM     14  N   UNL     1       5.968   3.708  16.012  0.00  0.00    +0.000 NA
ATOM     15  C   UNL     1       6.922   4.617  16.194  0.00  0.00    +0.000 A 
ATOM     16  C   UNL     1       6.464   5.715  16.934  0.00  0.00    +0.000 A 
ATOM     17 CL   UNL     1       7.417   7.065  17.325  0.00  0.00    +0.000 Cl
ATOM     18  C   UNL     1       5.136   5.451  17.238  0.00  0.00    +0.000 A 
ENDBRANCH   1  18
TORSDOF 1
ENDMDL
MODEL 9
REMARK VINA RESULT:      -6.5      2.296      5.088
REMARK  Name = 
REMARK  2 active torsions:
REMARK  status: ('A' for Active; 'I' for Inactive)
REMARK    1  A    between atoms: C_1  and  N_2
REMARK    2  A    between atoms: C_7  and  C_8
REMARK                            x       y       z     vdW  Elec       q    Type
REMARK                         _______ _______ _______ _____ _____    ______ ____
ROOT
ATOM      1  C   UNL     1       3.529   3.839  17.519  0.00  0.00    +0.000 C 
ATOM      2  O   UNL     1       2.714   3.434  16.679  0.00  0.00    +0.000 OA
ATOM      3  N   UNL     1       4.672   4.484  17.047  0.00  0.00    +0.000 N 
ATOM      4  C   UNL     1       4.723   4.844  15.614  0.00  0.00    +0.000 C 
ATOM      5  C   UNL     1       5.965   5.701  15.387  0.00  0.00    +0.000 C 
ATOM      6  C   UNL     1       6.486   5.851  16.779  0.00  0.00    +0.000 A 
ATOM      7  C   UNL     1       7.513   6.686  17.198  0.00  0.00    +0.000 A 
ATOM      8  C   UNL     1       7.874   6.654  18.542  0.00  0.00    +0.000 A 
ATOM      9  C   UNL     1       7.284   5.724  19.408  0.00  0.00    +0.000 A 
ATOM     10  C   UNL     1       6.279   4.862  18.958  0.00  0.00    +0.000 A 
ATOM     11  C   UNL     1       5.811   5.015  17.664  0.00  0.00    +0.000 A 
ENDROOT
BRANCH   1  18
ATOM     12  C   UNL     1       2.222   5.876  19.680  0.00  0.00    +0.000 C 
ATOM     13  N   UNL     1       2.714   4.527  19.850  0.00  0.00    +0.000 N 
ATOM     14  N   UNL     1       2.577   3.994  21.087  0.00  0.00    +0.000 NA
ATOM     15  C   UNL     1       2.855   2.705  20.909  0.00  0.00    +0.000 A 
ATOM     16  C   UNL     1       3.263   2.435  19.596  0.00  0.00    +0.000 A 
ATOM     17 CL   UNL     1       3.669   0.889  19.023  0.00  0.00    +0.000 Cl
ATOM     18  C   UNL     1       3.247   3.651  18.927  0.00  0.00    +0.000 A 
ENDBRANCH   1  18
TORSDOF 1
ENDMDL
