MODEL 1
REMARK VINA RESULT:      -7.9      0.000      0.000
REMARK  Name = 
REMARK  7 active torsions:
REMARK  status: ('A' for Active; 'I' for Inactive)
REMARK    1  A    between atoms: CG_2  and  CB_4
REMARK    2  A    between atoms: CB_4  and  CA_5
REMARK    3  A    between atoms: CA_5  and  N_6
REMARK    4  A    between atoms: CA_5  and  C_22
REMARK    5  A    between atoms: N_6  and  C_7
REMARK    6  A    between atoms: C_13  and  C_14
REMARK    7  A    between atoms: C_22  and  OXT_24
REMARK                            x       y       z     vdW  Elec       q    Type
REMARK                         _______ _______ _______ _____ _____    ______ ____
ROOT
ATOM      1  C   UNK A   0       4.427   3.604  18.170  0.00  0.00    +0.000 A 
ATOM      2  N   UNK A   0       4.527   2.419  18.797  0.00  0.00    +0.000 NA
ATOM      3  C   UNK A   0       3.794   2.216  19.907  0.00  0.00    +0.000 A 
ATOM      4  N   UNK A   0       2.987   3.086  20.524  0.00  0.00    +0.000 NA
ATOM      5  C   UNK A   0       2.945   4.273  19.897  0.00  0.00    +0.000 A 
ATOM      6  S   UNK A   0       2.027   5.566  20.513  0.00  0.00    +0.000 S 
ATOM      7  C   UNK A   0       2.510   6.622  19.246  0.00  0.00    +0.000 A 
ATOM      8  C   UNK A   0       3.354   5.967  18.366  0.00  0.00    +0.000 A 
ATOM      9  C   UNK A   0       3.612   4.603  18.732  0.00  0.00    +0.000 A 
ENDROOT
BRANCH   7  10
ATOM     10  C   UNK A   0       2.007   8.002  19.166  0.00  0.00    +0.000 A 
ATOM     11  C   UNK A   0       1.309   8.605  20.224  0.00  0.00    +0.000 A 
ATOM     12  C   UNK A   0       0.817   9.908  20.107  0.00  0.00    +0.000 A 
ATOM     13  C   UNK A   0       1.027  10.632  18.935  0.00  0.00    +0.000 A 
ATOM     14  C   UNK A   0       1.740  10.061  17.885  0.00  0.00    +0.000 A 
ATOM     15  C   UNK A   0       2.228   8.756  18.002  0.00  0.00    +0.000 A 
ENDBRANCH   7  10
BRANCH   1  16
ATOM     16  N   ASN A   1       5.153   3.852  17.031  0.00  0.00    +0.000 N 
ATOM     17  H   ASN A   1       5.070   3.194  16.262  0.00  0.00    +0.000 HD
BRANCH  16  18
ATOM     18  CA  ASN A   1       6.182   4.895  16.943  0.00  0.00    +0.000 C 
BRANCH  18  19
ATOM     19  C   ASN A   1       6.559   4.949  15.445  0.00  0.00    +0.000 C 
ATOM     20  O   ASN A   1       5.919   4.477  14.519  0.00  0.00    +0.000 OA
BRANCH  19  21
ATOM     21  OXT ASN A   1       7.709   5.651  15.246  0.00  0.00    +0.000 OA
ATOM     22  HXT ASN A   1       7.503   6.501  14.800  0.00  0.00    +0.000 HD
ENDBRANCH  19  21
ENDBRANCH  18  19
BRANCH  18  23
ATOM     23  CB  ASN A   1       7.381   4.579  17.826  0.00  0.00    +0.000 C 
BRANCH  23  25
ATOM     24  ND2 ASN A   1       7.942   6.891  18.393  0.00  0.00    +0.000 N 
ATOM     25  CG  ASN A   1       7.590   5.663  18.862  0.00  0.00    +0.000 C 
ATOM     26  OD1 ASN A   1       7.457   5.472  20.065  0.00  0.00    +0.000 OA
ATOM     27 HD21 ASN A   1       8.079   7.645  19.053  0.00  0.00    +0.000 HD
ATOM     28 HD22 ASN A   1       8.032   7.106  17.400  0.00  0.00    +0.000 HD
ENDBRANCH  23  25
ENDBRANCH  18  23
ENDBRANCH  16  18
ENDBRANCH   1  16
TORSDOF 7
ENDMDL
MODEL 2
REMARK VINA RESULT:      -7.8      0.768      1.248
REMARK  Name = 
REMARK  7 active torsions:
REMARK  status: ('A' for Active; 'I' for Inactive)
REMARK    1  A    between atoms: CG_2  and  CB_4
REMARK    2  A    between atoms: CB_4  and  CA_5
REMARK    3  A    between atoms: CA_5  and  N_6
REMARK    4  A    between atoms: CA_5  and  C_22
REMARK    5  A    between atoms: N_6  and  C_7
REMARK    6  A    between atoms: C_13  and  C_14
REMARK    7  A    between atoms: C_22  and  OXT_24
REMARK                            x       y       z     vdW  Elec       q    Type
REMARK                         _______ _______ _______ _____ _____    ______ ____
ROOT
ATOM      1  C   UNK A   0       4.498   3.647  18.559  0.00  0.00    +0.000 A 
ATOM      2  N   UNK A   0       4.545   2.486  19.236  0.00  0.00    +0.000 NA
ATOM      3  C   UNK A   0       3.709   2.317  20.278  0.00  0.00    +0.000 A 
ATOM      4  N   UNK A   0       2.842   3.201  20.783  0.00  0.00    +0.000 NA
ATOM      5  C   UNK A   0       2.853   4.364  20.111  0.00  0.00    +0.000 A 
ATOM      6  S   UNK A   0       1.871   5.669  20.587  0.00  0.00    +0.000 S 
ATOM      7  C   UNK A   0       2.467   6.683  19.334  0.00  0.00    +0.000 A 
ATOM      8  C   UNK A   0       3.396   6.005  18.564  0.00  0.00    +0.000 A 
ATOM      9  C   UNK A   0       3.626   4.657  19.004  0.00  0.00    +0.000 A 
ENDROOT
BRANCH   7  10
ATOM     10  C   UNK A   0       1.966   8.055  19.156  0.00  0.00    +0.000 A 
ATOM     11  C   UNK A   0       2.134   8.761  17.955  0.00  0.00    +0.000 A 
ATOM     12  C   UNK A   0       1.673  10.074  17.826  0.00  0.00    +0.000 A 
ATOM     13  C   UNK A   0       1.027  10.696  18.892  0.00  0.00    +0.000 A 
ATOM     14  C   UNK A   0       0.827  10.003  20.082  0.00  0.00    +0.000 A 
ATOM     15  C   UNK A   0       1.292   8.691  20.211  0.00  0.00    +0.000 A 
ENDBRANCH   7  10
BRANCH   1  16
ATOM     16  N   ASN A   1       5.328   3.860  17.486  0.00  0.00    +0.000 N 
ATOM     17  H   ASN A   1       5.432   3.111  16.809  0.00  0.00    +0.000 HD
BRANCH  16  18
ATOM     18  CA  ASN A   1       6.217   5.024  17.375  0.00  0.00    +0.000 C 
BRANCH  18  19
ATOM     19  C   ASN A   1       6.297   5.313  15.859  0.00  0.00    +0.000 C 
ATOM     20  O   ASN A   1       5.353   5.476  15.102  0.00  0.00    +0.000 OA
BRANCH  19  21
ATOM     21  OXT ASN A   1       7.588   5.419  15.440  0.00  0.00    +0.000 OA
ATOM     22  HXT ASN A   1       8.022   4.539  15.488  0.00  0.00    +0.000 HD
ENDBRANCH  19  21
ENDBRANCH  18  19
BRANCH  18  23
ATOM     23  CB  ASN A   1       7.587   4.746  17.980  0.00  0.00    +0.000 C 
BRANCH  23  25
ATOM     24  ND2 ASN A   1       8.199   5.462  20.237  0.00  0.00    +0.000 N 
ATOM     25  CG  ASN A   1       7.982   5.841  18.948  0.00  0.00    +0.000 C 
ATOM     26  OD1 ASN A   1       8.107   7.013  18.615  0.00  0.00    +0.000 OA
ATOM     27 HD21 ASN A   1       8.477   6.162  20.911  0.00  0.00    +0.000 HD
ATOM     28 HD22 ASN A   1       8.140   4.494  20.554  0.00  0.00    +0.000 HD
ENDBRANCH  23  25
ENDBRANCH  18  23
ENDBRANCH  16  18
ENDBRANCH   1  16
TORSDOF 7
ENDMDL
MODEL 3
REMARK VINA RESULT:      -7.7      0.640      1.319
REMARK  Name = 
REMARK  7 active torsions:
REMARK  status: ('A' for Active; 'I' for Inactive)
REMARK    1  A    between atoms: CG_2  and  CB_4
REMARK    2  A    between atoms: CB_4  and  CA_5
REMARK    3  A    between atoms: CA_5  and  N_6
REMARK    4  A    between atoms: CA_5  and  C_22
REMARK    5  A    between atoms: N_6  and  C_7
REMARK    6  A    between atoms: C_13  and  C_14
REMARK    7  A    between atoms: C_22  and  OXT_24
REMARK                            x       y       z     vdW  Elec       q    Type
REMARK                         _______ _______ _______ _____ _____    ______ ____
ROOT
ATOM      1  C   UNK A   0       4.286   3.635  17.417  0.00  0.00    +0.000 A 
ATOM      2  N   UNK A   0       4.387   2.371  17.865  0.00  0.00    +0.000 NA
ATOM      3  C   UNK A   0       3.686   2.020  18.959  0.00  0.00    +0.000 A 
ATOM      4  N   UNK A   0       2.913   2.802  19.721  0.00  0.00    +0.000 NA
ATOM      5  C   UNK A   0       2.870   4.067  19.270  0.00  0.00    +0.000 A 
ATOM      6  S   UNK A   0       1.992   5.269  20.094  0.00  0.00    +0.000 S 
ATOM      7  C   UNK A   0       2.452   6.489  18.974  0.00  0.00    +0.000 A 
ATOM      8  C   UNK A   0       3.258   5.957  17.983  0.00  0.00    +0.000 A 
ATOM      9  C   UNK A   0       3.505   4.552  18.142  0.00  0.00    +0.000 A 
ENDROOT
BRANCH   7  10
ATOM     10  C   UNK A   0       1.969   7.873  19.109  0.00  0.00    +0.000 A 
ATOM     11  C   UNK A   0       2.016   8.786  18.045  0.00  0.00    +0.000 A 
ATOM     12  C   UNK A   0       1.577  10.103  18.213  0.00  0.00    +0.000 A 
ATOM     13  C   UNK A   0       1.075  10.522  19.443  0.00  0.00    +0.000 A 
ATOM     14  C   UNK A   0       0.996   9.623  20.502  0.00  0.00    +0.000 A 
ATOM     15  C   UNK A   0       1.438   8.307  20.335  0.00  0.00    +0.000 A 
ENDBRANCH   7  10
BRANCH   1  16
ATOM     16  N   ASN A   1       4.980   4.034  16.301  0.00  0.00    +0.000 N 
ATOM     17  H   ASN A   1       4.731   3.614  15.411  0.00  0.00    +0.000 HD
BRANCH  16  18
ATOM     18  CA  ASN A   1       6.181   4.877  16.358  0.00  0.00    +0.000 C 
BRANCH  18  19
ATOM     19  C   ASN A   1       6.860   4.686  14.983  0.00  0.00    +0.000 C 
ATOM     20  O   ASN A   1       7.713   5.406  14.491  0.00  0.00    +0.000 OA
BRANCH  19  21
ATOM     21  OXT ASN A   1       6.425   3.552  14.367  0.00  0.00    +0.000 OA
ATOM     22  HXT ASN A   1       5.897   3.791  13.574  0.00  0.00    +0.000 HD
ENDBRANCH  19  21
ENDBRANCH  18  19
BRANCH  18  23
ATOM     23  CB  ASN A   1       7.093   4.480  17.511  0.00  0.00    +0.000 C 
BRANCH  23  25
ATOM     24  ND2 ASN A   1       7.375   6.893  17.790  0.00  0.00    +0.000 N 
ATOM     25  CG  ASN A   1       7.404   5.672  18.391  0.00  0.00    +0.000 C 
ATOM     26  OD1 ASN A   1       7.671   5.570  19.581  0.00  0.00    +0.000 OA
ATOM     27 HD21 ASN A   1       7.564   7.715  18.347  0.00  0.00    +0.000 HD
ATOM     28 HD22 ASN A   1       7.125   7.029  16.811  0.00  0.00    +0.000 HD
ENDBRANCH  23  25
ENDBRANCH  18  23
ENDBRANCH  16  18
ENDBRANCH   1  16
TORSDOF 7
ENDMDL
MODEL 4
REMARK VINA RESULT:      -7.6      2.706      4.446
REMARK  Name = 
REMARK  7 active torsions:
REMARK  status: ('A' for Active; 'I' for Inactive)
REMARK    1  A    between atoms: CG_2  and  CB_4
REMARK    2  A    between atoms: CB_4  and  CA_5
REMARK    3  A    between atoms: CA_5  and  N_6
REMARK    4  A    between atoms: CA_5  and  C_22
REMARK    5  A    between atoms: N_6  and  C_7
REMARK    6  A    between atoms: C_13  and  C_14
REMARK    7  A    between atoms: C_22  and  OXT_24
REMARK                            x       y       z     vdW  Elec       q    Type
REMARK                         _______ _______ _______ _____ _____    ______ ____
ROOT
ATOM      1  C   UNK A   0       4.148   3.944  17.166  0.00  0.00    +0.000 A 
ATOM      2  N   UNK A   0       5.132   3.686  16.285  0.00  0.00    +0.000 NA
ATOM      3  C   UNK A   0       5.807   4.723  15.757  0.00  0.00    +0.000 A 
ATOM      4  N   UNK A   0       5.591   6.028  15.956  0.00  0.00    +0.000 NA
ATOM      5  C   UNK A   0       4.574   6.249  16.805  0.00  0.00    +0.000 A 
ATOM      6  S   UNK A   0       4.069   7.829  17.185  0.00  0.00    +0.000 S 
ATOM      7  C   UNK A   0       2.811   7.268  18.213  0.00  0.00    +0.000 A 
ATOM      8  C   UNK A   0       2.804   5.886  18.260  0.00  0.00    +0.000 A 
ATOM      9  C   UNK A   0       3.825   5.283  17.449  0.00  0.00    +0.000 A 
ENDROOT
BRANCH   7  10
ATOM     10  C   UNK A   0       1.938   8.207  18.937  0.00  0.00    +0.000 A 
ATOM     11  C   UNK A   0       1.643   8.051  20.300  0.00  0.00    +0.000 A 
ATOM     12  C   UNK A   0       0.787   8.943  20.953  0.00  0.00    +0.000 A 
ATOM     13  C   UNK A   0       0.223  10.009  20.256  0.00  0.00    +0.000 A 
ATOM     14  C   UNK A   0       0.524  10.194  18.910  0.00  0.00    +0.000 A 
ATOM     15  C   UNK A   0       1.378   9.301  18.257  0.00  0.00    +0.000 A 
ENDBRANCH   7  10
BRANCH   1  16
ATOM     16  N   ASN A   1       3.437   2.916  17.734  0.00  0.00    +0.000 N 
ATOM     17  H   ASN A   1       2.867   2.338  17.125  0.00  0.00    +0.000 HD
BRANCH  16  18
ATOM     18  CA  ASN A   1       3.302   2.737  19.185  0.00  0.00    +0.000 C 
BRANCH  18  19
ATOM     19  C   ASN A   1       4.381   1.694  19.554  0.00  0.00    +0.000 C 
ATOM     20  O   ASN A   1       5.096   1.710  20.542  0.00  0.00    +0.000 OA
BRANCH  19  21
ATOM     21  OXT ASN A   1       4.423   0.680  18.646  0.00  0.00    +0.000 OA
ATOM     22  HXT ASN A   1       5.345   0.562  18.328  0.00  0.00    +0.000 HD
ENDBRANCH  19  21
ENDBRANCH  18  19
BRANCH  18  23
ATOM     23  CB  ASN A   1       1.902   2.276  19.568  0.00  0.00    +0.000 C 
BRANCH  23  25
ATOM     24  ND2 ASN A   1       1.561   2.654  21.960  0.00  0.00    +0.000 N 
ATOM     25  CG  ASN A   1       1.345   3.116  20.698  0.00  0.00    +0.000 C 
ATOM     26  OD1 ASN A   1       0.731   4.159  20.513  0.00  0.00    +0.000 OA
ATOM     27 HD21 ASN A   1       1.216   3.194  22.742  0.00  0.00    +0.000 HD
ATOM     28 HD22 ASN A   1       2.096   1.810  22.164  0.00  0.00    +0.000 HD
ENDBRANCH  23  25
ENDBRANCH  18  23
ENDBRANCH  16  18
ENDBRANCH   1  16
TORSDOF 7
ENDMDL
MODEL 5
REMARK VINA RESULT:      -7.6      1.043      2.609
REMARK  Name = 
REMARK  7 active torsions:
REMARK  status: ('A' for Active; 'I' for Inactive)
REMARK    1  A    between atoms: CG_2  and  CB_4
REMARK    2  A    between atoms: CB_4  and  CA_5
REMARK    3  A    between atoms: CA_5  and  N_6
REMARK    4  A    between atoms: CA_5  and  C_22
REMARK    5  A    between atoms: N_6  and  C_7
REMARK    6  A    between atoms: C_13  and  C_14
REMARK    7  A    between atoms: C_22  and  OXT_24
REMARK                            x       y       z     vdW  Elec       q    Type
REMARK                         _______ _______ _______ _____ _____    ______ ____
ROOT
ATOM      1  C   UNK A   0       4.698   4.183  18.656  0.00  0.00    +0.000 A 
ATOM      2  N   UNK A   0       4.844   2.930  19.124  0.00  0.00    +0.000 NA
ATOM      3  C   UNK A   0       3.971   2.484  20.046  0.00  0.00    +0.000 A 
ATOM      4  N   UNK A   0       2.971   3.161  20.622  0.00  0.00    +0.000 NA
ATOM      5  C   UNK A   0       2.882   4.421  20.164  0.00  0.00    +0.000 A 
ATOM      6  S   UNK A   0       1.719   5.502  20.775  0.00  0.00    +0.000 S 
ATOM      7  C   UNK A   0       2.264   6.786  19.771  0.00  0.00    +0.000 A 
ATOM      8  C   UNK A   0       3.316   6.365  18.977  0.00  0.00    +0.000 A 
ATOM      9  C   UNK A   0       3.682   4.994  19.194  0.00  0.00    +0.000 A 
ENDROOT
BRANCH   7  10
ATOM     10  C   UNK A   0       1.610   8.104  19.792  0.00  0.00    +0.000 A 
ATOM     11  C   UNK A   0       1.556   8.928  18.657  0.00  0.00    +0.000 A 
ATOM     12  C   UNK A   0       0.953  10.188  18.716  0.00  0.00    +0.000 A 
ATOM     13  C   UNK A   0       0.388  10.638  19.906  0.00  0.00    +0.000 A 
ATOM     14  C   UNK A   0       0.409   9.825  21.035  0.00  0.00    +0.000 A 
ATOM     15  C   UNK A   0       1.014   8.566  20.977  0.00  0.00    +0.000 A 
ENDBRANCH   7  10
BRANCH   1  16
ATOM     16  N   ASN A   1       5.562   4.677  17.711  0.00  0.00    +0.000 N 
ATOM     17  H   ASN A   1       5.166   5.042  16.850  0.00  0.00    +0.000 HD
BRANCH  16  18
ATOM     18  CA  ASN A   1       7.020   4.525  17.794  0.00  0.00    +0.000 C 
BRANCH  18  19
ATOM     19  C   ASN A   1       7.485   5.688  18.699  0.00  0.00    +0.000 C 
ATOM     20  O   ASN A   1       7.815   6.804  18.332  0.00  0.00    +0.000 OA
BRANCH  19  21
ATOM     21  OXT ASN A   1       7.442   5.341  20.015  0.00  0.00    +0.000 OA
ATOM     22  HXT ASN A   1       7.739   4.411  20.120  0.00  0.00    +0.000 HD
ENDBRANCH  19  21
ENDBRANCH  18  19
BRANCH  18  23
ATOM     23  CB  ASN A   1       7.670   4.572  16.418  0.00  0.00    +0.000 C 
BRANCH  23  25
ATOM     24  ND2 ASN A   1       6.315   3.633  14.611  0.00  0.00    +0.000 N 
ATOM     25  CG  ASN A   1       6.629   4.744  15.332  0.00  0.00    +0.000 C 
ATOM     26  OD1 ASN A   1       6.083   5.814  15.095  0.00  0.00    +0.000 OA
ATOM     27 HD21 ASN A   1       5.614   3.704  13.886  0.00  0.00    +0.000 HD
ATOM     28 HD22 ASN A   1       6.718   2.714  14.795  0.00  0.00    +0.000 HD
ENDBRANCH  23  25
ENDBRANCH  18  23
ENDBRANCH  16  18
ENDBRANCH   1  16
TORSDOF 7
ENDMDL
MODEL 6
REMARK VINA RESULT:      -7.6      1.029      1.124
REMARK  Name = 
REMARK  7 active torsions:
REMARK  status: ('A' for Active; 'I' for Inactive)
REMARK    1  A    between atoms: CG_2  and  CB_4
REMARK    2  A    between atoms: CB_4  and  CA_5
REMARK    3  A    between atoms: CA_5  and  N_6
REMARK    4  A    between atoms: CA_5  and  C_22
REMARK    5  A    between atoms: N_6  and  C_7
REMARK    6  A    between atoms: C_13  and  C_14
REMARK    7  A    between atoms: C_22  and  OXT_24
REMARK                            x       y       z     vdW  Elec       q    Type
REMARK                         _______ _______ _______ _____ _____    ______ ____
ROOT
ATOM      1  C   UNK A   0       4.087   4.304  17.358  0.00  0.00    +0.000 A 
ATOM      2  N   UNK A   0       4.320   3.001  17.599  0.00  0.00    +0.000 NA
ATOM      3  C   UNK A   0       3.772   2.444  18.695  0.00  0.00    +0.000 A 
ATOM      4  N   UNK A   0       3.042   3.045  19.641  0.00  0.00    +0.000 NA
ATOM      5  C   UNK A   0       2.866   4.353  19.391  0.00  0.00    +0.000 A 
ATOM      6  S   UNK A   0       2.011   5.351  20.472  0.00  0.00    +0.000 S 
ATOM      7  C   UNK A   0       2.260   6.750  19.506  0.00  0.00    +0.000 A 
ATOM      8  C   UNK A   0       2.980   6.432  18.369  0.00  0.00    +0.000 A 
ATOM      9  C   UNK A   0       3.335   5.043  18.290  0.00  0.00    +0.000 A 
ENDROOT
BRANCH   7  10
ATOM     10  C   UNK A   0       1.706   8.057  19.895  0.00  0.00    +0.000 A 
ATOM     11  C   UNK A   0       1.299   8.334  21.209  0.00  0.00    +0.000 A 
ATOM     12  C   UNK A   0       0.749   9.576  21.542  0.00  0.00    +0.000 A 
ATOM     13  C   UNK A   0       0.608  10.562  20.568  0.00  0.00    +0.000 A 
ATOM     14  C   UNK A   0       1.031  10.315  19.265  0.00  0.00    +0.000 A 
ATOM     15  C   UNK A   0       1.578   9.072  18.933  0.00  0.00    +0.000 A 
ENDBRANCH   7  10
BRANCH   1  16
ATOM     16  N   ASN A   1       4.621   4.912  16.249  0.00  0.00    +0.000 N 
ATOM     17  H   ASN A   1       4.115   4.831  15.373  0.00  0.00    +0.000 HD
BRANCH  16  18
ATOM     18  CA  ASN A   1       5.968   5.496  16.221  0.00  0.00    +0.000 C 
BRANCH  18  19
ATOM     19  C   ASN A   1       6.691   4.757  15.072  0.00  0.00    +0.000 C 
ATOM     20  O   ASN A   1       6.342   3.711  14.551  0.00  0.00    +0.000 OA
BRANCH  19  21
ATOM     21  OXT ASN A   1       7.785   5.449  14.647  0.00  0.00    +0.000 OA
ATOM     22  HXT ASN A   1       7.497   6.243  14.145  0.00  0.00    +0.000 HD
ENDBRANCH  19  21
ENDBRANCH  18  19
BRANCH  18  23
ATOM     23  CB  ASN A   1       6.683   5.325  17.555  0.00  0.00    +0.000 C 
BRANCH  23  25
ATOM     24  ND2 ASN A   1       7.370   7.617  17.046  0.00  0.00    +0.000 N 
ATOM     25  CG  ASN A   1       7.472   6.569  17.908  0.00  0.00    +0.000 C 
ATOM     26  OD1 ASN A   1       8.171   6.653  18.910  0.00  0.00    +0.000 OA
ATOM     27 HD21 ASN A   1       7.872   8.470  17.254  0.00  0.00    +0.000 HD
ATOM     28 HD22 ASN A   1       6.775   7.605  16.218  0.00  0.00    +0.000 HD
ENDBRANCH  23  25
ENDBRANCH  18  23
ENDBRANCH  16  18
ENDBRANCH   1  16
TORSDOF 7
ENDMDL
MODEL 7
REMARK VINA RESULT:      -7.6      1.174      1.583
REMARK  Name = 
REMARK  7 active torsions:
REMARK  status: ('A' for Active; 'I' for Inactive)
REMARK    1  A    between atoms: CG_2  and  CB_4
REMARK    2  A    between atoms: CB_4  and  CA_5
REMARK    3  A    between atoms: CA_5  and  N_6
REMARK    4  A    between atoms: CA_5  and  C_22
REMARK    5  A    between atoms: N_6  and  C_7
REMARK    6  A    between atoms: C_13  and  C_14
REMARK    7  A    between atoms: C_22  and  OXT_24
REMARK                            x       y       z     vdW  Elec       q    Type
REMARK                         _______ _______ _______ _____ _____    ______ ____
ROOT
ATOM      1  C   UNK A   0       4.908   3.664  19.364  0.00  0.00    +0.000 A 
ATOM      2  N   UNK A   0       4.853   2.460  19.959  0.00  0.00    +0.000 NA
ATOM      3  C   UNK A   0       3.768   2.158  20.696  0.00  0.00    +0.000 A 
ATOM      4  N   UNK A   0       2.720   2.943  20.970  0.00  0.00    +0.000 NA
ATOM      5  C   UNK A   0       2.829   4.153  20.397  0.00  0.00    +0.000 A 
ATOM      6  S   UNK A   0       1.646   5.352  20.634  0.00  0.00    +0.000 S 
ATOM      7  C   UNK A   0       2.493   6.496  19.671  0.00  0.00    +0.000 A 
ATOM      8  C   UNK A   0       3.659   5.940  19.174  0.00  0.00    +0.000 A 
ATOM      9  C   UNK A   0       3.863   4.580  19.586  0.00  0.00    +0.000 A 
ENDROOT
BRANCH   7  10
ATOM     10  C   UNK A   0       1.953   7.843  19.429  0.00  0.00    +0.000 A 
ATOM     11  C   UNK A   0       2.063   8.479  18.183  0.00  0.00    +0.000 A 
ATOM     12  C   UNK A   0       1.566   9.771  17.992  0.00  0.00    +0.000 A 
ATOM     13  C   UNK A   0       0.941  10.442  19.040  0.00  0.00    +0.000 A 
ATOM     14  C   UNK A   0       0.798   9.818  20.276  0.00  0.00    +0.000 A 
ATOM     15  C   UNK A   0       1.299   8.526  20.467  0.00  0.00    +0.000 A 
ENDBRANCH   7  10
BRANCH   1  16
ATOM     16  N   ASN A   1       5.993   4.013  18.597  0.00  0.00    +0.000 N 
ATOM     17  H   ASN A   1       6.918   3.811  18.963  0.00  0.00    +0.000 HD
BRANCH  16  18
ATOM     18  CA  ASN A   1       5.891   4.832  17.383  0.00  0.00    +0.000 C 
BRANCH  18  19
ATOM     19  C   ASN A   1       5.274   3.891  16.325  0.00  0.00    +0.000 C 
ATOM     20  O   ASN A   1       4.086   3.764  16.073  0.00  0.00    +0.000 OA
BRANCH  19  21
ATOM     21  OXT ASN A   1       6.236   3.220  15.634  0.00  0.00    +0.000 OA
ATOM     22  HXT ASN A   1       6.289   2.294  15.960  0.00  0.00    +0.000 HD
ENDBRANCH  19  21
ENDBRANCH  18  19
BRANCH  18  23
ATOM     23  CB  ASN A   1       7.249   5.371  16.952  0.00  0.00    +0.000 C 
BRANCH  23  25
ATOM     24  ND2 ASN A   1       7.492   7.795  17.162  0.00  0.00    +0.000 N 
ATOM     25  CG  ASN A   1       7.634   6.586  17.769  0.00  0.00    +0.000 C 
ATOM     26  OD1 ASN A   1       8.053   6.512  18.918  0.00  0.00    +0.000 OA
ATOM     27 HD21 ASN A   1       7.726   8.632  17.679  0.00  0.00    +0.000 HD
ATOM     28 HD22 ASN A   1       7.115   7.908  16.221  0.00  0.00    +0.000 HD
ENDBRANCH  23  25
ENDBRANCH  18  23
ENDBRANCH  16  18
ENDBRANCH   1  16
TORSDOF 7
ENDMDL
MODEL 8
REMARK VINA RESULT:      -7.6      1.249      1.697
REMARK  Name = 
REMARK  7 active torsions:
REMARK  status: ('A' for Active; 'I' for Inactive)
REMARK    1  A    between atoms: CG_2  and  CB_4
REMARK    2  A    between atoms: CB_4  and  CA_5
REMARK    3  A    between atoms: CA_5  and  N_6
REMARK    4  A    between atoms: CA_5  and  C_22
REMARK    5  A    between atoms: N_6  and  C_7
REMARK    6  A    between atoms: C_13  and  C_14
REMARK    7  A    between atoms: C_22  and  OXT_24
REMARK                            x       y       z     vdW  Elec       q    Type
REMARK                         _______ _______ _______ _____ _____    ______ ____
ROOT
ATOM      1  C   UNK A   0       4.196   4.611  17.354  0.00  0.00    +0.000 A 
ATOM      2  N   UNK A   0       4.483   3.311  17.549  0.00  0.00    +0.000 NA
ATOM      3  C   UNK A   0       3.953   2.692  18.620  0.00  0.00    +0.000 A 
ATOM      4  N   UNK A   0       3.192   3.226  19.581  0.00  0.00    +0.000 NA
ATOM      5  C   UNK A   0       2.962   4.534  19.378  0.00  0.00    +0.000 A 
ATOM      6  S   UNK A   0       2.060   5.455  20.488  0.00  0.00    +0.000 S 
ATOM      7  C   UNK A   0       2.255   6.898  19.575  0.00  0.00    +0.000 A 
ATOM      8  C   UNK A   0       2.995   6.652  18.432  0.00  0.00    +0.000 A 
ATOM      9  C   UNK A   0       3.408   5.283  18.306  0.00  0.00    +0.000 A 
ENDROOT
BRANCH   7  10
ATOM     10  C   UNK A   0       1.644   8.166  20.007  0.00  0.00    +0.000 A 
ATOM     11  C   UNK A   0       1.352   9.200  19.105  0.00  0.00    +0.000 A 
ATOM     12  C   UNK A   0       0.799  10.404  19.550  0.00  0.00    +0.000 A 
ATOM     13  C   UNK A   0       0.520  10.588  20.902  0.00  0.00    +0.000 A 
ATOM     14  C   UNK A   0       0.778   9.564  21.809  0.00  0.00    +0.000 A 
ATOM     15  C   UNK A   0       1.334   8.361  21.363  0.00  0.00    +0.000 A 
ENDBRANCH   7  10
BRANCH   1  16
ATOM     16  N   ASN A   1       4.711   5.281  16.271  0.00  0.00    +0.000 N 
ATOM     17  H   ASN A   1       4.142   5.335  15.432  0.00  0.00    +0.000 HD
BRANCH  16  18
ATOM     18  CA  ASN A   1       6.102   5.744  16.198  0.00  0.00    +0.000 C 
BRANCH  18  19
ATOM     19  C   ASN A   1       6.754   4.857  15.113  0.00  0.00    +0.000 C 
ATOM     20  O   ASN A   1       6.318   3.802  14.682  0.00  0.00    +0.000 OA
BRANCH  19  21
ATOM     21  OXT ASN A   1       7.894   5.421  14.628  0.00  0.00    +0.000 OA
ATOM     22  HXT ASN A   1       7.664   6.122  13.979  0.00  0.00    +0.000 HD
ENDBRANCH  19  21
ENDBRANCH  18  19
BRANCH  18  23
ATOM     23  CB  ASN A   1       6.808   5.622  17.542  0.00  0.00    +0.000 C 
BRANCH  23  25
ATOM     24  ND2 ASN A   1       8.302   6.873  19.019  0.00  0.00    +0.000 N 
ATOM     25  CG  ASN A   1       7.618   6.865  17.843  0.00  0.00    +0.000 C 
ATOM     26  OD1 ASN A   1       7.671   7.826  17.085  0.00  0.00    +0.000 OA
ATOM     27 HD21 ASN A   1       8.865   7.681  19.250  0.00  0.00    +0.000 HD
ATOM     28 HD22 ASN A   1       8.316   6.084  19.664  0.00  0.00    +0.000 HD
ENDBRANCH  23  25
ENDBRANCH  18  23
ENDBRANCH  16  18
ENDBRANCH   1  16
TORSDOF 7
ENDMDL
MODEL 9
REMARK VINA RESULT:      -7.5      1.341      1.388
REMARK  Name = 
REMARK  7 active torsions:
REMARK  status: ('A' for Active; 'I' for Inactive)
REMARK    1  A    between atoms: CG_2  and  CB_4
REMARK    2  A    between atoms: CB_4  and  CA_5
REMARK    3  A    between atoms: CA_5  and  N_6
REMARK    4  A    between atoms: CA_5  and  C_22
REMARK    5  A    between atoms: N_6  and  C_7
REMARK    6  A    between atoms: C_13  and  C_14
REMARK    7  A    between atoms: C_22  and  OXT_24
REMARK                            x       y       z     vdW  Elec       q    Type
REMARK                         _______ _______ _______ _____ _____    ______ ____
ROOT
ATOM      1  C   UNK A   0       4.906   3.637  19.373  0.00  0.00    +0.000 A 
ATOM      2  N   UNK A   0       4.835   2.428  19.958  0.00  0.00    +0.000 NA
ATOM      3  C   UNK A   0       3.738   2.127  20.676  0.00  0.00    +0.000 A 
ATOM      4  N   UNK A   0       2.691   2.916  20.940  0.00  0.00    +0.000 NA
ATOM      5  C   UNK A   0       2.815   4.130  20.378  0.00  0.00    +0.000 A 
ATOM      6  S   UNK A   0       1.636   5.334  20.607  0.00  0.00    +0.000 S 
ATOM      7  C   UNK A   0       2.504   6.480  19.666  0.00  0.00    +0.000 A 
ATOM      8  C   UNK A   0       3.674   5.922  19.182  0.00  0.00    +0.000 A 
ATOM      9  C   UNK A   0       3.864   4.557  19.587  0.00  0.00    +0.000 A 
ENDROOT
BRANCH   7  10
ATOM     10  C   UNK A   0       1.975   7.833  19.427  0.00  0.00    +0.000 A 
ATOM     11  C   UNK A   0       1.304   8.558  20.422  0.00  0.00    +0.000 A 
ATOM     12  C   UNK A   0       0.786   9.829  20.154  0.00  0.00    +0.000 A 
ATOM     13  C   UNK A   0       0.942  10.397  18.892  0.00  0.00    +0.000 A 
ATOM     14  C   UNK A   0       1.628   9.703  17.900  0.00  0.00    +0.000 A 
ATOM     15  C   UNK A   0       2.143   8.431  18.167  0.00  0.00    +0.000 A 
ENDBRANCH   7  10
BRANCH   1  16
ATOM     16  N   ASN A   1       6.005   3.985  18.626  0.00  0.00    +0.000 N 
ATOM     17  H   ASN A   1       6.922   3.746  18.990  0.00  0.00    +0.000 HD
BRANCH  16  18
ATOM     18  CA  ASN A   1       5.933   4.851  17.442  0.00  0.00    +0.000 C 
BRANCH  18  19
ATOM     19  C   ASN A   1       5.297   3.965  16.347  0.00  0.00    +0.000 C 
ATOM     20  O   ASN A   1       4.116   3.929  16.040  0.00  0.00    +0.000 OA
BRANCH  19  21
ATOM     21  OXT ASN A   1       6.237   3.228  15.695  0.00  0.00    +0.000 OA
ATOM     22  HXT ASN A   1       7.106   3.333  16.142  0.00  0.00    +0.000 HD
ENDBRANCH  19  21
ENDBRANCH  18  19
BRANCH  18  23
ATOM     23  CB  ASN A   1       7.307   5.368  17.038  0.00  0.00    +0.000 C 
BRANCH  23  25
ATOM     24  ND2 ASN A   1       8.154   6.743  18.874  0.00  0.00    +0.000 N 
ATOM     25  CG  ASN A   1       7.572   6.730  17.644  0.00  0.00    +0.000 C 
ATOM     26  OD1 ASN A   1       7.289   7.778  17.079  0.00  0.00    +0.000 OA
ATOM     27 HD21 ASN A   1       8.359   7.633  19.308  0.00  0.00    +0.000 HD
ATOM     28 HD22 ASN A   1       8.439   5.897  19.368  0.00  0.00    +0.000 HD
ENDBRANCH  23  25
ENDBRANCH  18  23
ENDBRANCH  16  18
ENDBRANCH   1  16
TORSDOF 7
ENDMDL
