MODEL 1
REMARK VINA RESULT:      -8.4      0.000      0.000
REMARK  Name = 
REMARK  2 active torsions:
REMARK  status: ('A' for Active; 'I' for Inactive)
REMARK    1  A    between atoms: C_4  and  C_5
REMARK    2  A    between atoms: C_4  and  C_11
REMARK                            x       y       z     vdW  Elec       q    Type
REMARK                         _______ _______ _______ _____ _____    ______ ____
ROOT
ATOM      1  O   UNL     1       7.064   5.305  20.043  0.00  0.00    +0.000 OA
ATOM      2  C   UNL     1       6.080   5.418  19.331  0.00  0.00    +0.000 C 
ATOM      3  O   UNL     1       4.772   5.384  19.784  0.00  0.00    +0.000 OA
ATOM      4  C   UNL     1       3.835   5.502  18.663  0.00  0.00    +0.000 C 
ATOM      5  C   UNL     1       4.720   5.669  17.474  0.00  0.00    +0.000 A 
ATOM      6  C   UNL     1       4.653   5.841  16.071  0.00  0.00    +0.000 A 
ATOM      7  C   UNL     1       5.928   5.875  15.527  0.00  0.00    +0.000 A 
ATOM      8  S   UNL     1       7.165   5.710  16.729  0.00  0.00    +0.000 S 
ATOM      9  C   UNL     1       6.004   5.603  17.917  0.00  0.00    +0.000 A 
ENDROOT
BRANCH   4  10
ATOM     10  C   UNL     1       3.098   4.162  18.584  0.00  0.00    +0.000 A 
ATOM     11  C   UNL     1       1.699   4.118  18.749  0.00  0.00    +0.000 A 
ATOM     12  C   UNL     1       1.014   2.902  18.835  0.00  0.00    +0.000 A 
ATOM     13  C   UNL     1       1.709   1.698  18.768  0.00  0.00    +0.000 A 
ATOM     14  C   UNL     1       3.088   1.709  18.603  0.00  0.00    +0.000 A 
ATOM     15  C   UNL     1       3.773   2.923  18.515  0.00  0.00    +0.000 A 
ENDBRANCH   4  10
BRANCH   4  16
ATOM     16  C   UNL     1       3.002   6.782  18.754  0.00  0.00    +0.000 A 
ATOM     17  C   UNL     1       2.319   7.120  19.940  0.00  0.00    +0.000 A 
ATOM     18  C   UNL     1       1.569   8.297  20.033  0.00  0.00    +0.000 A 
ATOM     19  C   UNL     1       1.488   9.161  18.943  0.00  0.00    +0.000 A 
ATOM     20  C   UNL     1       2.144   8.847  17.760  0.00  0.00    +0.000 A 
ATOM     21  C   UNL     1       2.888   7.667  17.661  0.00  0.00    +0.000 A 
ENDBRANCH   4  16
TORSDOF 2
ENDMDL
MODEL 2
REMARK VINA RESULT:      -8.3      0.160      1.058
REMARK  Name = 
REMARK  2 active torsions:
REMARK  status: ('A' for Active; 'I' for Inactive)
REMARK    1  A    between atoms: C_4  and  C_5
REMARK    2  A    between atoms: C_4  and  C_11
REMARK                            x       y       z     vdW  Elec       q    Type
REMARK                         _______ _______ _______ _____ _____    ______ ____
ROOT
ATOM      1  O   UNL     1       7.156   5.346  20.000  0.00  0.00    +0.000 OA
ATOM      2  C   UNL     1       6.144   5.415  19.323  0.00  0.00    +0.000 C 
ATOM      3  O   UNL     1       4.855   5.417  19.830  0.00  0.00    +0.000 OA
ATOM      4  C   UNL     1       3.874   5.463  18.743  0.00  0.00    +0.000 C 
ATOM      5  C   UNL     1       4.709   5.546  17.510  0.00  0.00    +0.000 A 
ATOM      6  C   UNL     1       4.585   5.624  16.103  0.00  0.00    +0.000 A 
ATOM      7  C   UNL     1       5.836   5.617  15.506  0.00  0.00    +0.000 A 
ATOM      8  S   UNL     1       7.122   5.528  16.665  0.00  0.00    +0.000 S 
ATOM      9  C   UNL     1       6.010   5.505  17.904  0.00  0.00    +0.000 A 
ENDROOT
BRANCH   4  10
ATOM     10  C   UNL     1       3.132   4.125  18.784  0.00  0.00    +0.000 A 
ATOM     11  C   UNL     1       3.856   2.917  18.729  0.00  0.00    +0.000 A 
ATOM     12  C   UNL     1       3.207   1.684  18.610  0.00  0.00    +0.000 A 
ATOM     13  C   UNL     1       1.819   1.625  18.533  0.00  0.00    +0.000 A 
ATOM     14  C   UNL     1       1.077   2.798  18.587  0.00  0.00    +0.000 A 
ATOM     15  C   UNL     1       1.724   4.030  18.707  0.00  0.00    +0.000 A 
ENDBRANCH   4  10
BRANCH   4  16
ATOM     16  C   UNL     1       3.047   6.750  18.781  0.00  0.00    +0.000 A 
ATOM     17  C   UNL     1       2.313   7.107  19.932  0.00  0.00    +0.000 A 
ATOM     18  C   UNL     1       1.568   8.289  19.977  0.00  0.00    +0.000 A 
ATOM     19  C   UNL     1       1.544   9.142  18.875  0.00  0.00    +0.000 A 
ATOM     20  C   UNL     1       2.250   8.809  17.726  0.00  0.00    +0.000 A 
ATOM     21  C   UNL     1       2.989   7.623  17.675  0.00  0.00    +0.000 A 
ENDBRANCH   4  16
TORSDOF 2
ENDMDL
MODEL 3
REMARK VINA RESULT:      -8.3      0.156      1.491
REMARK  Name = 
REMARK  2 active torsions:
REMARK  status: ('A' for Active; 'I' for Inactive)
REMARK    1  A    between atoms: C_4  and  C_5
REMARK    2  A    between atoms: C_4  and  C_11
REMARK                            x       y       z     vdW  Elec       q    Type
REMARK                         _______ _______ _______ _____ _____    ______ ____
ROOT
ATOM      1  O   UNL     1       7.166   5.353  20.002  0.00  0.00    +0.000 OA
ATOM      2  C   UNL     1       6.154   5.428  19.326  0.00  0.00    +0.000 C 
ATOM      3  O   UNL     1       4.865   5.429  19.835  0.00  0.00    +0.000 OA
ATOM      4  C   UNL     1       3.883   5.483  18.749  0.00  0.00    +0.000 C 
ATOM      5  C   UNL     1       4.717   5.571  17.515  0.00  0.00    +0.000 A 
ATOM      6  C   UNL     1       4.592   5.657  16.109  0.00  0.00    +0.000 A 
ATOM      7  C   UNL     1       5.843   5.651  15.511  0.00  0.00    +0.000 A 
ATOM      8  S   UNL     1       7.129   5.554  16.668  0.00  0.00    +0.000 S 
ATOM      9  C   UNL     1       6.018   5.526  17.908  0.00  0.00    +0.000 A 
ENDROOT
BRANCH   4  10
ATOM     10  C   UNL     1       3.139   4.145  18.783  0.00  0.00    +0.000 A 
ATOM     11  C   UNL     1       3.861   2.936  18.728  0.00  0.00    +0.000 A 
ATOM     12  C   UNL     1       3.211   1.704  18.603  0.00  0.00    +0.000 A 
ATOM     13  C   UNL     1       1.824   1.648  18.519  0.00  0.00    +0.000 A 
ATOM     14  C   UNL     1       1.083   2.822  18.573  0.00  0.00    +0.000 A 
ATOM     15  C   UNL     1       1.731   4.052  18.699  0.00  0.00    +0.000 A 
ENDBRANCH   4  10
BRANCH   4  16
ATOM     16  C   UNL     1       3.058   6.771  18.795  0.00  0.00    +0.000 A 
ATOM     17  C   UNL     1       3.009   7.640  17.686  0.00  0.00    +0.000 A 
ATOM     18  C   UNL     1       2.245   8.811  17.717  0.00  0.00    +0.000 A 
ATOM     19  C   UNL     1       1.511   9.135  18.857  0.00  0.00    +0.000 A 
ATOM     20  C   UNL     1       1.550   8.301  19.966  0.00  0.00    +0.000 A 
ATOM     21  C   UNL     1       2.320   7.134  19.941  0.00  0.00    +0.000 A 
ENDBRANCH   4  16
TORSDOF 2
ENDMDL
MODEL 4
REMARK VINA RESULT:      -8.3      0.108      1.057
REMARK  Name = 
REMARK  2 active torsions:
REMARK  status: ('A' for Active; 'I' for Inactive)
REMARK    1  A    between atoms: C_4  and  C_5
REMARK    2  A    between atoms: C_4  and  C_11
REMARK                            x       y       z     vdW  Elec       q    Type
REMARK                         _______ _______ _______ _____ _____    ______ ____
ROOT
ATOM      1  O   UNL     1       7.035   5.257  20.039  0.00  0.00    +0.000 OA
ATOM      2  C   UNL     1       6.051   5.386  19.331  0.00  0.00    +0.000 C 
ATOM      3  O   UNL     1       4.744   5.378  19.790  0.00  0.00    +0.000 OA
ATOM      4  C   UNL     1       3.805   5.509  18.673  0.00  0.00    +0.000 C 
ATOM      5  C   UNL     1       4.687   5.655  17.479  0.00  0.00    +0.000 A 
ATOM      6  C   UNL     1       4.616   5.824  16.076  0.00  0.00    +0.000 A 
ATOM      7  C   UNL     1       5.889   5.833  15.526  0.00  0.00    +0.000 A 
ATOM      8  S   UNL     1       7.129   5.649  16.723  0.00  0.00    +0.000 S 
ATOM      9  C   UNL     1       5.971   5.567  17.917  0.00  0.00    +0.000 A 
ENDROOT
BRANCH   4  10
ATOM     10  C   UNL     1       3.042   4.184  18.601  0.00  0.00    +0.000 A 
ATOM     11  C   UNL     1       1.687   4.129  18.985  0.00  0.00    +0.000 A 
ATOM     12  C   UNL     1       1.005   2.912  19.078  0.00  0.00    +0.000 A 
ATOM     13  C   UNL     1       1.660   1.717  18.801  0.00  0.00    +0.000 A 
ATOM     14  C   UNL     1       2.995   1.737  18.417  0.00  0.00    +0.000 A 
ATOM     15  C   UNL     1       3.677   2.952  18.322  0.00  0.00    +0.000 A 
ENDBRANCH   4  10
BRANCH   4  16
ATOM     16  C   UNL     1       2.996   6.805  18.763  0.00  0.00    +0.000 A 
ATOM     17  C   UNL     1       2.920   7.690  17.667  0.00  0.00    +0.000 A 
ATOM     18  C   UNL     1       2.170   8.868  17.739  0.00  0.00    +0.000 A 
ATOM     19  C   UNL     1       1.478   9.185  18.906  0.00  0.00    +0.000 A 
ATOM     20  C   UNL     1       1.545   8.336  20.003  0.00  0.00    +0.000 A 
ATOM     21  C   UNL     1       2.301   7.161  19.937  0.00  0.00    +0.000 A 
ENDBRANCH   4  16
TORSDOF 2
ENDMDL
MODEL 5
REMARK VINA RESULT:      -8.0      1.455      4.631
REMARK  Name = 
REMARK  2 active torsions:
REMARK  status: ('A' for Active; 'I' for Inactive)
REMARK    1  A    between atoms: C_4  and  C_5
REMARK    2  A    between atoms: C_4  and  C_11
REMARK                            x       y       z     vdW  Elec       q    Type
REMARK                         _______ _______ _______ _____ _____    ______ ____
ROOT
ATOM      1  O   UNL     1       5.591   6.449  15.036  0.00  0.00    +0.000 OA
ATOM      2  C   UNL     1       5.156   6.160  16.138  0.00  0.00    +0.000 C 
ATOM      3  O   UNL     1       3.812   6.024  16.444  0.00  0.00    +0.000 OA
ATOM      4  C   UNL     1       3.636   5.719  17.866  0.00  0.00    +0.000 C 
ATOM      5  C   UNL     1       5.030   5.627  18.388  0.00  0.00    +0.000 A 
ATOM      6  C   UNL     1       5.739   5.382  19.587  0.00  0.00    +0.000 A 
ATOM      7  C   UNL     1       7.104   5.509  19.376  0.00  0.00    +0.000 A 
ATOM      8  S   UNL     1       7.485   5.908  17.733  0.00  0.00    +0.000 S 
ATOM      9  C   UNL     1       5.865   5.900  17.350  0.00  0.00    +0.000 A 
ENDROOT
BRANCH   4  10
ATOM     10  C   UNL     1       2.927   6.931  18.475  0.00  0.00    +0.000 A 
ATOM     11  C   UNL     1       2.457   6.878  19.803  0.00  0.00    +0.000 A 
ATOM     12  C   UNL     1       1.675   7.905  20.341  0.00  0.00    +0.000 A 
ATOM     13  C   UNL     1       1.331   9.006  19.563  0.00  0.00    +0.000 A 
ATOM     14  C   UNL     1       1.780   9.089  18.251  0.00  0.00    +0.000 A 
ATOM     15  C   UNL     1       2.563   8.065  17.714  0.00  0.00    +0.000 A 
ENDBRANCH   4  10
BRANCH   4  16
ATOM     16  C   UNL     1       3.014   4.337  18.075  0.00  0.00    +0.000 A 
ATOM     17  C   UNL     1       3.809   3.172  18.046  0.00  0.00    +0.000 A 
ATOM     18  C   UNL     1       3.248   1.908  18.252  0.00  0.00    +0.000 A 
ATOM     19  C   UNL     1       1.882   1.781  18.494  0.00  0.00    +0.000 A 
ATOM     20  C   UNL     1       1.075   2.911  18.519  0.00  0.00    +0.000 A 
ATOM     21  C   UNL     1       1.632   4.176  18.305  0.00  0.00    +0.000 A 
ENDBRANCH   4  16
TORSDOF 2
ENDMDL
MODEL 6
REMARK VINA RESULT:      -8.0      1.451      4.603
REMARK  Name = 
REMARK  2 active torsions:
REMARK  status: ('A' for Active; 'I' for Inactive)
REMARK    1  A    between atoms: C_4  and  C_5
REMARK    2  A    between atoms: C_4  and  C_11
REMARK                            x       y       z     vdW  Elec       q    Type
REMARK                         _______ _______ _______ _____ _____    ______ ____
ROOT
ATOM      1  O   UNL     1       5.582   6.397  15.021  0.00  0.00    +0.000 OA
ATOM      2  C   UNL     1       5.150   6.123  16.127  0.00  0.00    +0.000 C 
ATOM      3  O   UNL     1       3.806   5.992  16.437  0.00  0.00    +0.000 OA
ATOM      4  C   UNL     1       3.632   5.705  17.864  0.00  0.00    +0.000 C 
ATOM      5  C   UNL     1       5.027   5.619  18.384  0.00  0.00    +0.000 A 
ATOM      6  C   UNL     1       5.739   5.388  19.585  0.00  0.00    +0.000 A 
ATOM      7  C   UNL     1       7.103   5.510  19.369  0.00  0.00    +0.000 A 
ATOM      8  S   UNL     1       7.481   5.888  17.721  0.00  0.00    +0.000 S 
ATOM      9  C   UNL     1       5.860   5.877  17.341  0.00  0.00    +0.000 A 
ENDROOT
BRANCH   4  10
ATOM     10  C   UNL     1       2.926   6.927  18.459  0.00  0.00    +0.000 A 
ATOM     11  C   UNL     1       2.467   6.894  19.792  0.00  0.00    +0.000 A 
ATOM     12  C   UNL     1       1.687   7.928  20.318  0.00  0.00    +0.000 A 
ATOM     13  C   UNL     1       1.335   9.017  19.526  0.00  0.00    +0.000 A 
ATOM     14  C   UNL     1       1.774   9.079  18.209  0.00  0.00    +0.000 A 
ATOM     15  C   UNL     1       2.555   8.048  17.683  0.00  0.00    +0.000 A 
ENDBRANCH   4  10
BRANCH   4  16
ATOM     16  C   UNL     1       3.009   4.327  18.092  0.00  0.00    +0.000 A 
ATOM     17  C   UNL     1       1.631   4.189  18.357  0.00  0.00    +0.000 A 
ATOM     18  C   UNL     1       1.054   2.929  18.551  0.00  0.00    +0.000 A 
ATOM     19  C   UNL     1       1.842   1.782  18.482  0.00  0.00    +0.000 A 
ATOM     20  C   UNL     1       3.204   1.891  18.232  0.00  0.00    +0.000 A 
ATOM     21  C   UNL     1       3.785   3.150  18.046  0.00  0.00    +0.000 A 
ENDBRANCH   4  16
TORSDOF 2
ENDMDL
MODEL 7
REMARK VINA RESULT:      -7.8      2.414      4.516
REMARK  Name = 
REMARK  2 active torsions:
REMARK  status: ('A' for Active; 'I' for Inactive)
REMARK    1  A    between atoms: C_4  and  C_5
REMARK    2  A    between atoms: C_4  and  C_11
REMARK                            x       y       z     vdW  Elec       q    Type
REMARK                         _______ _______ _______ _____ _____    ______ ____
ROOT
ATOM      1  O   UNL     1       1.732   3.277  16.840  0.00  0.00    +0.000 OA
ATOM      2  C   UNL     1       2.139   4.064  17.678  0.00  0.00    +0.000 C 
ATOM      3  O   UNL     1       2.721   5.288  17.392  0.00  0.00    +0.000 OA
ATOM      4  C   UNL     1       3.139   5.960  18.625  0.00  0.00    +0.000 C 
ATOM      5  C   UNL     1       2.696   5.033  19.706  0.00  0.00    +0.000 A 
ATOM      6  C   UNL     1       2.698   4.908  21.115  0.00  0.00    +0.000 A 
ATOM      7  C   UNL     1       2.140   3.697  21.495  0.00  0.00    +0.000 A 
ATOM      8  S   UNL     1       1.620   2.754  20.137  0.00  0.00    +0.000 S 
ATOM      9  C   UNL     1       2.135   3.952  19.101  0.00  0.00    +0.000 A 
ENDROOT
BRANCH   4  10
ATOM     10  C   UNL     1       4.668   6.019  18.579  0.00  0.00    +0.000 A 
ATOM     11  C   UNL     1       5.315   6.704  17.531  0.00  0.00    +0.000 A 
ATOM     12  C   UNL     1       6.703   6.649  17.372  0.00  0.00    +0.000 A 
ATOM     13  C   UNL     1       7.481   5.901  18.250  0.00  0.00    +0.000 A 
ATOM     14  C   UNL     1       6.873   5.216  19.295  0.00  0.00    +0.000 A 
ATOM     15  C   UNL     1       5.487   5.271  19.455  0.00  0.00    +0.000 A 
ENDBRANCH   4  10
BRANCH   4  16
ATOM     16  C   UNL     1       2.371   7.265  18.847  0.00  0.00    +0.000 A 
ATOM     17  C   UNL     1       2.085   8.129  17.770  0.00  0.00    +0.000 A 
ATOM     18  C   UNL     1       1.370   9.316  17.965  0.00  0.00    +0.000 A 
ATOM     19  C   UNL     1       0.924   9.661  19.240  0.00  0.00    +0.000 A 
ATOM     20  C   UNL     1       1.201   8.831  20.318  0.00  0.00    +0.000 A 
ATOM     21  C   UNL     1       1.923   7.649  20.128  0.00  0.00    +0.000 A 
ENDBRANCH   4  16
TORSDOF 2
ENDMDL
MODEL 8
REMARK VINA RESULT:      -7.8      2.404      4.392
REMARK  Name = 
REMARK  2 active torsions:
REMARK  status: ('A' for Active; 'I' for Inactive)
REMARK    1  A    between atoms: C_4  and  C_5
REMARK    2  A    between atoms: C_4  and  C_11
REMARK                            x       y       z     vdW  Elec       q    Type
REMARK                         _______ _______ _______ _____ _____    ______ ____
ROOT
ATOM      1  O   UNL     1       1.762   3.303  16.797  0.00  0.00    +0.000 OA
ATOM      2  C   UNL     1       2.164   4.080  17.646  0.00  0.00    +0.000 C 
ATOM      3  O   UNL     1       2.738   5.311  17.378  0.00  0.00    +0.000 OA
ATOM      4  C   UNL     1       3.152   5.968  18.621  0.00  0.00    +0.000 C 
ATOM      5  C   UNL     1       2.714   5.023  19.688  0.00  0.00    +0.000 A 
ATOM      6  C   UNL     1       2.716   4.879  21.095  0.00  0.00    +0.000 A 
ATOM      7  C   UNL     1       2.164   3.659  21.457  0.00  0.00    +0.000 A 
ATOM      8  S   UNL     1       1.651   2.732  20.086  0.00  0.00    +0.000 S 
ATOM      9  C   UNL     1       2.159   3.947  19.068  0.00  0.00    +0.000 A 
ENDROOT
BRANCH   4  10
ATOM     10  C   UNL     1       4.680   6.037  18.577  0.00  0.00    +0.000 A 
ATOM     11  C   UNL     1       5.325   6.703  17.515  0.00  0.00    +0.000 A 
ATOM     12  C   UNL     1       6.714   6.655  17.361  0.00  0.00    +0.000 A 
ATOM     13  C   UNL     1       7.495   5.931  18.257  0.00  0.00    +0.000 A 
ATOM     14  C   UNL     1       6.890   5.265  19.315  0.00  0.00    +0.000 A 
ATOM     15  C   UNL     1       5.503   5.315  19.471  0.00  0.00    +0.000 A 
ENDBRANCH   4  10
BRANCH   4  16
ATOM     16  C   UNL     1       2.376   7.265  18.861  0.00  0.00    +0.000 A 
ATOM     17  C   UNL     1       1.905   7.602  20.147  0.00  0.00    +0.000 A 
ATOM     18  C   UNL     1       1.209   8.793  20.374  0.00  0.00    +0.000 A 
ATOM     19  C   UNL     1       0.971   9.674  19.321  0.00  0.00    +0.000 A 
ATOM     20  C   UNL     1       1.416   9.362  18.043  0.00  0.00    +0.000 A 
ATOM     21  C   UNL     1       2.105   8.168  17.811  0.00  0.00    +0.000 A 
ENDBRANCH   4  16
TORSDOF 2
ENDMDL
MODEL 9
REMARK VINA RESULT:      -7.8      2.273      4.414
REMARK  Name = 
REMARK  2 active torsions:
REMARK  status: ('A' for Active; 'I' for Inactive)
REMARK    1  A    between atoms: C_4  and  C_5
REMARK    2  A    between atoms: C_4  and  C_11
REMARK                            x       y       z     vdW  Elec       q    Type
REMARK                         _______ _______ _______ _____ _____    ______ ____
ROOT
ATOM      1  O   UNL     1       2.107   3.065  16.558  0.00  0.00    +0.000 OA
ATOM      2  C   UNL     1       2.489   3.836  17.422  0.00  0.00    +0.000 C 
ATOM      3  O   UNL     1       3.039   5.084  17.177  0.00  0.00    +0.000 OA
ATOM      4  C   UNL     1       3.433   5.729  18.432  0.00  0.00    +0.000 C 
ATOM      5  C   UNL     1       3.011   4.757  19.482  0.00  0.00    +0.000 A 
ATOM      6  C   UNL     1       3.010   4.590  20.887  0.00  0.00    +0.000 A 
ATOM      7  C   UNL     1       2.483   3.353  21.226  0.00  0.00    +0.000 A 
ATOM      8  S   UNL     1       1.994   2.439  19.837  0.00  0.00    +0.000 S 
ATOM      9  C   UNL     1       2.481   3.681  18.841  0.00  0.00    +0.000 A 
ENDROOT
BRANCH   4  10
ATOM     10  C   UNL     1       4.961   5.829  18.395  0.00  0.00    +0.000 A 
ATOM     11  C   UNL     1       5.728   5.280  19.442  0.00  0.00    +0.000 A 
ATOM     12  C   UNL     1       7.109   5.486  19.519  0.00  0.00    +0.000 A 
ATOM     13  C   UNL     1       7.759   6.254  18.558  0.00  0.00    +0.000 A 
ATOM     14  C   UNL     1       7.031   6.807  17.512  0.00  0.00    +0.000 A 
ATOM     15  C   UNL     1       5.652   6.601  17.434  0.00  0.00    +0.000 A 
ENDBRANCH   4  10
BRANCH   4  16
ATOM     16  C   UNL     1       2.630   7.005  18.689  0.00  0.00    +0.000 A 
ATOM     17  C   UNL     1       2.141   7.307  19.977  0.00  0.00    +0.000 A 
ATOM     18  C   UNL     1       1.420   8.480  20.221  0.00  0.00    +0.000 A 
ATOM     19  C   UNL     1       1.174   9.377  19.183  0.00  0.00    +0.000 A 
ATOM     20  C   UNL     1       1.636   9.099  17.903  0.00  0.00    +0.000 A 
ATOM     21  C   UNL     1       2.351   7.923  17.655  0.00  0.00    +0.000 A 
ENDBRANCH   4  16
TORSDOF 2
ENDMDL
