MODEL 1
REMARK VINA RESULT:      -7.3      0.000      0.000
REMARK  Name = 
REMARK  8 active torsions:
REMARK  status: ('A' for Active; 'I' for Inactive)
REMARK    1  A    between atoms: C_1  and  C_2
REMARK    2  A    between atoms: C_2  and  C_3
REMARK    3  A    between atoms: C_2  and  C_4
REMARK    4  A    between atoms: C_2  and  O_5
REMARK    5  A    between atoms: O_5  and  C_6
REMARK    6  A    between atoms: C_13  and  N_14
REMARK    7  A    between atoms: N_14  and  C_15
REMARK    8  A    between atoms: C_15  and  C_16
REMARK                            x       y       z     vdW  Elec       q    Type
REMARK                         _______ _______ _______ _____ _____    ______ ____
ROOT
ATOM      1  C   UNL     1       3.399   2.523  18.534  0.00  0.00    +0.000 C 
ATOM      2  O   UNL     1       2.995   1.849  17.589  0.00  0.00    +0.000 OA
ATOM      3  N   UNL     1       4.320   3.503  18.335  0.00  0.00    +0.000 N 
ATOM      4  C   UNL     1       4.740   3.808  16.979  0.00  0.00    +0.000 C 
ATOM      5  C   UNL     1       5.702   4.934  17.164  0.00  0.00    +0.000 A 
ATOM      6  C   UNL     1       6.358   5.660  16.191  0.00  0.00    +0.000 A 
ATOM      7  C   UNL     1       7.247   6.655  16.613  0.00  0.00    +0.000 A 
ATOM      8  C   UNL     1       7.458   6.933  17.979  0.00  0.00    +0.000 A 
ATOM      9  C   UNL     1       6.793   6.155  18.941  0.00  0.00    +0.000 A 
ATOM     10  C   UNL     1       5.901   5.176  18.524  0.00  0.00    +0.000 A 
ATOM     11  C   UNL     1       5.048   4.256  19.348  0.00  0.00    +0.000 C 
ENDROOT
BRANCH   8  12
ATOM     12  N   UNL     1       8.409   7.913  18.304  0.00  0.00    +0.000 N 
ATOM     13  H   UNL     1       8.571   7.907  19.311  0.00  0.00    +0.000 HD
BRANCH  12  14
ATOM     14  C   UNL     1       8.155   9.284  17.846  0.00  0.00    +0.000 C 
BRANCH  14  15
ATOM     15  C   UNL     1       8.939  10.352  18.562  0.00  0.00    +0.000 A 
ATOM     16  C   UNL     1       9.294  11.580  18.031  0.00  0.00    +0.000 A 
ATOM     17  S   UNL     1      10.155  12.501  19.189  0.00  0.00    +0.000 S 
ATOM     18  C   UNL     1       9.987  11.212  20.307  0.00  0.00    +0.000 A 
ATOM     19  N   UNL     1       9.342  10.150  19.877  0.00  0.00    +0.000 NA
ENDBRANCH  14  15
ENDBRANCH  12  14
ENDBRANCH   8  12
BRANCH   1  20
ATOM     20  O   UNL     1       2.975   2.386  19.829  0.00  0.00    +0.000 OA
BRANCH  20  22
ATOM     21  C   UNL     1       1.304   2.570  21.611  0.00  0.00    +0.000 C 
ATOM     22  C   UNL     1       1.649   2.900  20.152  0.00  0.00    +0.000 C 
ATOM     23  C   UNL     1       0.598   2.355  19.170  0.00  0.00    +0.000 C 
ATOM     24  C   UNL     1       1.662   4.440  20.035  0.00  0.00    +0.000 C 
ENDBRANCH  20  22
ENDBRANCH   1  20
TORSDOF 5
ENDMDL
MODEL 2
REMARK VINA RESULT:      -7.2      0.681      1.250
REMARK  Name = 
REMARK  8 active torsions:
REMARK  status: ('A' for Active; 'I' for Inactive)
REMARK    1  A    between atoms: C_1  and  C_2
REMARK    2  A    between atoms: C_2  and  C_3
REMARK    3  A    between atoms: C_2  and  C_4
REMARK    4  A    between atoms: C_2  and  O_5
REMARK    5  A    between atoms: O_5  and  C_6
REMARK    6  A    between atoms: C_13  and  N_14
REMARK    7  A    between atoms: N_14  and  C_15
REMARK    8  A    between atoms: C_15  and  C_16
REMARK                            x       y       z     vdW  Elec       q    Type
REMARK                         _______ _______ _______ _____ _____    ______ ____
ROOT
ATOM      1  C   UNL     1       3.400   2.508  18.557  0.00  0.00    +0.000 C 
ATOM      2  O   UNL     1       2.986   1.847  17.607  0.00  0.00    +0.000 OA
ATOM      3  N   UNL     1       4.319   3.492  18.360  0.00  0.00    +0.000 N 
ATOM      4  C   UNL     1       4.723   3.814  17.003  0.00  0.00    +0.000 C 
ATOM      5  C   UNL     1       5.687   4.938  17.192  0.00  0.00    +0.000 A 
ATOM      6  C   UNL     1       6.332   5.677  16.221  0.00  0.00    +0.000 A 
ATOM      7  C   UNL     1       7.225   6.666  16.645  0.00  0.00    +0.000 A 
ATOM      8  C   UNL     1       7.452   6.927  18.012  0.00  0.00    +0.000 A 
ATOM      9  C   UNL     1       6.799   6.136  18.972  0.00  0.00    +0.000 A 
ATOM     10  C   UNL     1       5.902   5.162  18.552  0.00  0.00    +0.000 A 
ATOM     11  C   UNL     1       5.059   4.231  19.374  0.00  0.00    +0.000 C 
ENDROOT
BRANCH   8  12
ATOM     12  N   UNL     1       8.407   7.902  18.339  0.00  0.00    +0.000 N 
ATOM     13  H   UNL     1       8.501   7.959  19.353  0.00  0.00    +0.000 HD
BRANCH  12  14
ATOM     14  C   UNL     1       8.224   9.246  17.778  0.00  0.00    +0.000 C 
BRANCH  14  15
ATOM     15  C   UNL     1       8.903  10.354  18.539  0.00  0.00    +0.000 A 
ATOM     16  C   UNL     1       9.427  10.249  19.815  0.00  0.00    +0.000 A 
ATOM     17  S   UNL     1      10.133  11.733  20.293  0.00  0.00    +0.000 S 
ATOM     18  C   UNL     1       9.700  12.402  18.774  0.00  0.00    +0.000 A 
ATOM     19  N   UNL     1       9.067  11.600  17.945  0.00  0.00    +0.000 NA
ENDBRANCH  14  15
ENDBRANCH  12  14
ENDBRANCH   8  12
BRANCH   1  20
ATOM     20  O   UNL     1       2.992   2.355  19.854  0.00  0.00    +0.000 OA
BRANCH  20  22
ATOM     21  C   UNL     1       1.714   4.443  19.961  0.00  0.00    +0.000 C 
ATOM     22  C   UNL     1       1.701   2.929  20.217  0.00  0.00    +0.000 C 
ATOM     23  C   UNL     1       1.343   2.590  21.675  0.00  0.00    +0.000 C 
ATOM     24  C   UNL     1       0.609   2.332  19.303  0.00  0.00    +0.000 C 
ENDBRANCH  20  22
ENDBRANCH   1  20
TORSDOF 5
ENDMDL
MODEL 3
REMARK VINA RESULT:      -7.1      6.348      7.613
REMARK  Name = 
REMARK  8 active torsions:
REMARK  status: ('A' for Active; 'I' for Inactive)
REMARK    1  A    between atoms: C_1  and  C_2
REMARK    2  A    between atoms: C_2  and  C_3
REMARK    3  A    between atoms: C_2  and  C_4
REMARK    4  A    between atoms: C_2  and  O_5
REMARK    5  A    between atoms: O_5  and  C_6
REMARK    6  A    between atoms: C_13  and  N_14
REMARK    7  A    between atoms: N_14  and  C_15
REMARK    8  A    between atoms: C_15  and  C_16
REMARK                            x       y       z     vdW  Elec       q    Type
REMARK                         _______ _______ _______ _____ _____    ______ ____
ROOT
ATOM      1  C   UNL     1       3.700   5.019  18.746  0.00  0.00    +0.000 C 
ATOM      2  O   UNL     1       4.465   4.876  17.795  0.00  0.00    +0.000 OA
ATOM      3  N   UNL     1       3.037   6.194  18.924  0.00  0.00    +0.000 N 
ATOM      4  C   UNL     1       3.169   7.234  17.921  0.00  0.00    +0.000 C 
ATOM      5  C   UNL     1       2.288   8.322  18.438  0.00  0.00    +0.000 A 
ATOM      6  C   UNL     1       1.987   9.529  17.841  0.00  0.00    +0.000 A 
ATOM      7  C   UNL     1       1.157  10.410  18.541  0.00  0.00    +0.000 A 
ATOM      8  C   UNL     1       0.620  10.082  19.803  0.00  0.00    +0.000 A 
ATOM      9  C   UNL     1       0.971   8.856  20.393  0.00  0.00    +0.000 A 
ATOM     10  C   UNL     1       1.784   7.975  19.693  0.00  0.00    +0.000 A 
ATOM     11  C   UNL     1       2.258   6.606  20.085  0.00  0.00    +0.000 C 
ENDROOT
BRANCH   8  12
ATOM     12  N   UNL     1      -0.159  11.054  20.451  0.00  0.00    +0.000 N 
ATOM     13  H   UNL     1      -0.937  10.600  20.931  0.00  0.00    +0.000 HD
BRANCH  12  14
ATOM     14  C   UNL     1      -0.654  12.176  19.645  0.00  0.00    +0.000 C 
BRANCH  14  15
ATOM     15  C   UNL     1      -2.044  12.001  19.092  0.00  0.00    +0.000 A 
ATOM     16  C   UNL     1      -2.355  11.478  17.849  0.00  0.00    +0.000 A 
ATOM     17  S   UNL     1      -4.052  11.431  17.632  0.00  0.00    +0.000 S 
ATOM     18  C   UNL     1      -4.249  12.099  19.199  0.00  0.00    +0.000 A 
ATOM     19  N   UNL     1      -3.144  12.355  19.865  0.00  0.00    +0.000 NA
ENDBRANCH  14  15
ENDBRANCH  12  14
ENDBRANCH   8  12
BRANCH   1  20
ATOM     20  O   UNL     1       3.423   4.056  19.678  0.00  0.00    +0.000 OA
BRANCH  20  22
ATOM     21  C   UNL     1       3.282   1.778  18.786  0.00  0.00    +0.000 C 
ATOM     22  C   UNL     1       2.497   2.999  19.287  0.00  0.00    +0.000 C 
ATOM     23  C   UNL     1       1.492   3.512  18.241  0.00  0.00    +0.000 C 
ATOM     24  C   UNL     1       1.704   2.538  20.530  0.00  0.00    +0.000 C 
ENDBRANCH  20  22
ENDBRANCH   1  20
TORSDOF 5
ENDMDL
MODEL 4
REMARK VINA RESULT:      -7.0      5.318      7.243
REMARK  Name = 
REMARK  8 active torsions:
REMARK  status: ('A' for Active; 'I' for Inactive)
REMARK    1  A    between atoms: C_1  and  C_2
REMARK    2  A    between atoms: C_2  and  C_3
REMARK    3  A    between atoms: C_2  and  C_4
REMARK    4  A    between atoms: C_2  and  O_5
REMARK    5  A    between atoms: O_5  and  C_6
REMARK    6  A    between atoms: C_13  and  N_14
REMARK    7  A    between atoms: N_14  and  C_15
REMARK    8  A    between atoms: C_15  and  C_16
REMARK                            x       y       z     vdW  Elec       q    Type
REMARK                         _______ _______ _______ _____ _____    ______ ____
ROOT
ATOM      1  C   UNL     1       0.749  10.548  20.810  0.00  0.00    +0.000 C 
ATOM      2  O   UNL     1       0.448  10.669  21.996  0.00  0.00    +0.000 OA
ATOM      3  N   UNL     1       1.199   9.357  20.334  0.00  0.00    +0.000 N 
ATOM      4  C   UNL     1       1.220   8.208  21.221  0.00  0.00    +0.000 C 
ATOM      5  C   UNL     1       1.727   7.110  20.346  0.00  0.00    +0.000 A 
ATOM      6  C   UNL     1       1.882   5.776  20.661  0.00  0.00    +0.000 A 
ATOM      7  C   UNL     1       2.413   4.934  19.677  0.00  0.00    +0.000 A 
ATOM      8  C   UNL     1       2.759   5.413  18.397  0.00  0.00    +0.000 A 
ATOM      9  C   UNL     1       2.612   6.783  18.121  0.00  0.00    +0.000 A 
ATOM     10  C   UNL     1       2.073   7.616  19.093  0.00  0.00    +0.000 A 
ATOM     11  C   UNL     1       1.780   9.087  19.025  0.00  0.00    +0.000 C 
ENDROOT
BRANCH   8  12
ATOM     12  N   UNL     1       3.334   4.504  17.495  0.00  0.00    +0.000 N 
ATOM     13  H   UNL     1       2.659   3.772  17.275  0.00  0.00    +0.000 HD
BRANCH  12  14
ATOM     14  C   UNL     1       4.621   3.902  17.867  0.00  0.00    +0.000 C 
BRANCH  14  15
ATOM     15  C   UNL     1       5.762   4.874  18.012  0.00  0.00    +0.000 A 
ATOM     16  C   UNL     1       6.080   5.880  17.116  0.00  0.00    +0.000 A 
ATOM     17  S   UNL     1       7.430   6.770  17.677  0.00  0.00    +0.000 S 
ATOM     18  C   UNL     1       7.488   5.765  19.065  0.00  0.00    +0.000 A 
ATOM     19  N   UNL     1       6.579   4.817  19.135  0.00  0.00    +0.000 NA
ENDBRANCH  14  15
ENDBRANCH  12  14
ENDBRANCH   8  12
BRANCH   1  20
ATOM     20  O   UNL     1       0.651  11.542  19.874  0.00  0.00    +0.000 OA
BRANCH  20  22
ATOM     21  C   UNL     1      -1.372  10.602  18.861  0.00  0.00    +0.000 C 
ATOM     22  C   UNL     1      -0.684  11.870  19.389  0.00  0.00    +0.000 C 
ATOM     23  C   UNL     1      -0.622  12.981  18.326  0.00  0.00    +0.000 C 
ATOM     24  C   UNL     1      -1.539  12.382  20.569  0.00  0.00    +0.000 C 
ENDBRANCH  20  22
ENDBRANCH   1  20
TORSDOF 5
ENDMDL
MODEL 5
REMARK VINA RESULT:      -7.0      6.304      7.440
REMARK  Name = 
REMARK  8 active torsions:
REMARK  status: ('A' for Active; 'I' for Inactive)
REMARK    1  A    between atoms: C_1  and  C_2
REMARK    2  A    between atoms: C_2  and  C_3
REMARK    3  A    between atoms: C_2  and  C_4
REMARK    4  A    between atoms: C_2  and  O_5
REMARK    5  A    between atoms: O_5  and  C_6
REMARK    6  A    between atoms: C_13  and  N_14
REMARK    7  A    between atoms: N_14  and  C_15
REMARK    8  A    between atoms: C_15  and  C_16
REMARK                            x       y       z     vdW  Elec       q    Type
REMARK                         _______ _______ _______ _____ _____    ______ ____
ROOT
ATOM      1  C   UNL     1       3.590   5.040  18.722  0.00  0.00    +0.000 C 
ATOM      2  O   UNL     1       4.323   4.889  17.747  0.00  0.00    +0.000 OA
ATOM      3  N   UNL     1       2.949   6.223  18.923  0.00  0.00    +0.000 N 
ATOM      4  C   UNL     1       3.063   7.263  17.917  0.00  0.00    +0.000 C 
ATOM      5  C   UNL     1       2.213   8.362  18.463  0.00  0.00    +0.000 A 
ATOM      6  C   UNL     1       1.910   9.574  17.876  0.00  0.00    +0.000 A 
ATOM      7  C   UNL     1       1.114  10.465  18.603  0.00  0.00    +0.000 A 
ATOM      8  C   UNL     1       0.612  10.142  19.881  0.00  0.00    +0.000 A 
ATOM      9  C   UNL     1       0.965   8.911  20.458  0.00  0.00    +0.000 A 
ATOM     10  C   UNL     1       1.744   8.020  19.732  0.00  0.00    +0.000 A 
ATOM     11  C   UNL     1       2.211   6.644  20.107  0.00  0.00    +0.000 C 
ENDROOT
BRANCH   8  12
ATOM     12  N   UNL     1      -0.132  11.123  20.555  0.00  0.00    +0.000 N 
ATOM     13  H   UNL     1       0.304  12.034  20.418  0.00  0.00    +0.000 HD
BRANCH  12  14
ATOM     14  C   UNL     1      -0.404  10.908  21.981  0.00  0.00    +0.000 C 
BRANCH  14  15
ATOM     15  C   UNL     1      -1.192  12.001  22.654  0.00  0.00    +0.000 A 
ATOM     16  C   UNL     1      -0.806  13.326  22.753  0.00  0.00    +0.000 A 
ATOM     17  S   UNL     1      -2.005  14.235  23.569  0.00  0.00    +0.000 S 
ATOM     18  C   UNL     1      -2.948  12.812  23.723  0.00  0.00    +0.000 A 
ATOM     19  N   UNL     1      -2.431  11.714  23.215  0.00  0.00    +0.000 NA
ENDBRANCH  14  15
ENDBRANCH  12  14
ENDBRANCH   8  12
BRANCH   1  20
ATOM     20  O   UNL     1       3.329   4.079  19.661  0.00  0.00    +0.000 OA
BRANCH  20  22
ATOM     21  C   UNL     1       1.446   3.549  18.186  0.00  0.00    +0.000 C 
ATOM     22  C   UNL     1       2.370   3.041  19.302  0.00  0.00    +0.000 C 
ATOM     23  C   UNL     1       1.583   2.573  20.538  0.00  0.00    +0.000 C 
ATOM     24  C   UNL     1       3.133   1.826  18.729  0.00  0.00    +0.000 C 
ENDBRANCH  20  22
ENDBRANCH   1  20
TORSDOF 5
ENDMDL
MODEL 6
REMARK VINA RESULT:      -6.9      6.586      7.851
REMARK  Name = 
REMARK  8 active torsions:
REMARK  status: ('A' for Active; 'I' for Inactive)
REMARK    1  A    between atoms: C_1  and  C_2
REMARK    2  A    between atoms: C_2  and  C_3
REMARK    3  A    between atoms: C_2  and  C_4
REMARK    4  A    between atoms: C_2  and  O_5
REMARK    5  A    between atoms: O_5  and  C_6
REMARK    6  A    between atoms: C_13  and  N_14
REMARK    7  A    between atoms: N_14  and  C_15
REMARK    8  A    between atoms: C_15  and  C_16
REMARK                            x       y       z     vdW  Elec       q    Type
REMARK                         _______ _______ _______ _____ _____    ______ ____
ROOT
ATOM      1  C   UNL     1       3.426   5.244  19.014  0.00  0.00    +0.000 C 
ATOM      2  O   UNL     1       4.181   5.055  18.063  0.00  0.00    +0.000 OA
ATOM      3  N   UNL     1       2.781   6.433  19.154  0.00  0.00    +0.000 N 
ATOM      4  C   UNL     1       2.919   7.433  18.111  0.00  0.00    +0.000 C 
ATOM      5  C   UNL     1       2.057   8.552  18.595  0.00  0.00    +0.000 A 
ATOM      6  C   UNL     1       1.767   9.740  17.956  0.00  0.00    +0.000 A 
ATOM      7  C   UNL     1       0.955  10.658  18.629  0.00  0.00    +0.000 A 
ATOM      8  C   UNL     1       0.424  10.385  19.906  0.00  0.00    +0.000 A 
ATOM      9  C   UNL     1       0.763   9.176  20.538  0.00  0.00    +0.000 A 
ATOM     10  C   UNL     1       1.558   8.259  19.865  0.00  0.00    +0.000 A 
ATOM     11  C   UNL     1       2.016   6.898  20.304  0.00  0.00    +0.000 C 
ENDROOT
BRANCH   8  12
ATOM     12  N   UNL     1      -0.336  11.390  20.525  0.00  0.00    +0.000 N 
ATOM     13  H   UNL     1      -1.062  10.962  21.099  0.00  0.00    +0.000 HD
BRANCH  12  14
ATOM     14  C   UNL     1      -0.924  12.422  19.663  0.00  0.00    +0.000 C 
BRANCH  14  15
ATOM     15  C   UNL     1      -2.361  12.190  19.277  0.00  0.00    +0.000 A 
ATOM     16  C   UNL     1      -2.790  11.492  18.161  0.00  0.00    +0.000 A 
ATOM     17  S   UNL     1      -4.501  11.440  18.115  0.00  0.00    +0.000 S 
ATOM     18  C   UNL     1      -4.546  12.337  19.575  0.00  0.00    +0.000 A 
ATOM     19  N   UNL     1      -3.382  12.672  20.088  0.00  0.00    +0.000 NA
ENDBRANCH  14  15
ENDBRANCH  12  14
ENDBRANCH   8  12
BRANCH   1  20
ATOM     20  O   UNL     1       3.143   4.319  19.983  0.00  0.00    +0.000 OA
BRANCH  20  22
ATOM     21  C   UNL     1       1.296   2.931  20.799  0.00  0.00    +0.000 C 
ATOM     22  C   UNL     1       2.236   3.235  19.624  0.00  0.00    +0.000 C 
ATOM     23  C   UNL     1       3.022   1.992  19.173  0.00  0.00    +0.000 C 
ATOM     24  C   UNL     1       1.345   3.692  18.448  0.00  0.00    +0.000 C 
ENDBRANCH  20  22
ENDBRANCH   1  20
TORSDOF 5
ENDMDL
MODEL 7
REMARK VINA RESULT:      -6.9      6.852      8.134
REMARK  Name = 
REMARK  8 active torsions:
REMARK  status: ('A' for Active; 'I' for Inactive)
REMARK    1  A    between atoms: C_1  and  C_2
REMARK    2  A    between atoms: C_2  and  C_3
REMARK    3  A    between atoms: C_2  and  C_4
REMARK    4  A    between atoms: C_2  and  O_5
REMARK    5  A    between atoms: O_5  and  C_6
REMARK    6  A    between atoms: C_13  and  N_14
REMARK    7  A    between atoms: N_14  and  C_15
REMARK    8  A    between atoms: C_15  and  C_16
REMARK                            x       y       z     vdW  Elec       q    Type
REMARK                         _______ _______ _______ _____ _____    ______ ____
ROOT
ATOM      1  C   UNL     1       3.351   5.758  19.182  0.00  0.00    +0.000 C 
ATOM      2  O   UNL     1       4.060   5.653  18.184  0.00  0.00    +0.000 OA
ATOM      3  N   UNL     1       2.586   6.867  19.368  0.00  0.00    +0.000 N 
ATOM      4  C   UNL     1       2.542   7.873  18.323  0.00  0.00    +0.000 C 
ATOM      5  C   UNL     1       1.592   8.889  18.865  0.00  0.00    +0.000 A 
ATOM      6  C   UNL     1       1.130  10.034  18.250  0.00  0.00    +0.000 A 
ATOM      7  C   UNL     1       0.263  10.857  18.978  0.00  0.00    +0.000 A 
ATOM      8  C   UNL     1      -0.150  10.529  20.286  0.00  0.00    +0.000 A 
ATOM      9  C   UNL     1       0.363   9.369  20.890  0.00  0.00    +0.000 A 
ATOM     10  C   UNL     1       1.213   8.545  20.164  0.00  0.00    +0.000 A 
ATOM     11  C   UNL     1       1.849   7.246  20.567  0.00  0.00    +0.000 C 
ENDROOT
BRANCH   8  12
ATOM     12  N   UNL     1      -0.978  11.444  20.956  0.00  0.00    +0.000 N 
ATOM     13  H   UNL     1      -0.972  12.334  20.457  0.00  0.00    +0.000 HD
BRANCH  12  14
ATOM     14  C   UNL     1      -0.725  11.668  22.384  0.00  0.00    +0.000 C 
BRANCH  14  15
ATOM     15  C   UNL     1      -1.789  12.451  23.106  0.00  0.00    +0.000 A 
ATOM     16  C   UNL     1      -1.693  13.778  23.486  0.00  0.00    +0.000 A 
ATOM     17  S   UNL     1      -3.137  14.282  24.255  0.00  0.00    +0.000 S 
ATOM     18  C   UNL     1      -3.783  12.711  24.023  0.00  0.00    +0.000 A 
ATOM     19  N   UNL     1      -3.001  11.844  23.419  0.00  0.00    +0.000 NA
ENDBRANCH  14  15
ENDBRANCH  12  14
ENDBRANCH   8  12
BRANCH   1  20
ATOM     20  O   UNL     1       3.238   4.811  20.164  0.00  0.00    +0.000 OA
BRANCH  20  22
ATOM     21  C   UNL     1       3.441   2.487  19.415  0.00  0.00    +0.000 C 
ATOM     22  C   UNL     1       2.481   3.607  19.842  0.00  0.00    +0.000 C 
ATOM     23  C   UNL     1       1.418   3.900  18.769  0.00  0.00    +0.000 C 
ATOM     24  C   UNL     1       1.757   3.111  21.113  0.00  0.00    +0.000 C 
ENDBRANCH  20  22
ENDBRANCH   1  20
TORSDOF 5
ENDMDL
MODEL 8
REMARK VINA RESULT:      -6.9      6.416      7.661
REMARK  Name = 
REMARK  8 active torsions:
REMARK  status: ('A' for Active; 'I' for Inactive)
REMARK    1  A    between atoms: C_1  and  C_2
REMARK    2  A    between atoms: C_2  and  C_3
REMARK    3  A    between atoms: C_2  and  C_4
REMARK    4  A    between atoms: C_2  and  O_5
REMARK    5  A    between atoms: O_5  and  C_6
REMARK    6  A    between atoms: C_13  and  N_14
REMARK    7  A    between atoms: N_14  and  C_15
REMARK    8  A    between atoms: C_15  and  C_16
REMARK                            x       y       z     vdW  Elec       q    Type
REMARK                         _______ _______ _______ _____ _____    ______ ____
ROOT
ATOM      1  C   UNL     1       3.688   4.972  18.446  0.00  0.00    +0.000 C 
ATOM      2  O   UNL     1       4.336   4.879  17.405  0.00  0.00    +0.000 OA
ATOM      3  N   UNL     1       3.038   6.127  18.749  0.00  0.00    +0.000 N 
ATOM      4  C   UNL     1       3.036   7.208  17.780  0.00  0.00    +0.000 C 
ATOM      5  C   UNL     1       2.210   8.261  18.443  0.00  0.00    +0.000 A 
ATOM      6  C   UNL     1       1.825   9.484  17.935  0.00  0.00    +0.000 A 
ATOM      7  C   UNL     1       1.074  10.324  18.764  0.00  0.00    +0.000 A 
ATOM      8  C   UNL     1       0.696   9.938  20.067  0.00  0.00    +0.000 A 
ATOM      9  C   UNL     1       1.130   8.696  20.560  0.00  0.00    +0.000 A 
ATOM     10  C   UNL     1       1.864   7.856  19.733  0.00  0.00    +0.000 A 
ATOM     11  C   UNL     1       2.397   6.481  20.010  0.00  0.00    +0.000 C 
ENDROOT
BRANCH   8  12
ATOM     12  N   UNL     1      -0.011  10.870  20.842  0.00  0.00    +0.000 N 
ATOM     13  H   UNL     1      -0.706  10.383  21.408  0.00  0.00    +0.000 HD
BRANCH  12  14
ATOM     14  C   UNL     1      -0.638  11.998  20.143  0.00  0.00    +0.000 C 
BRANCH  14  15
ATOM     15  C   UNL     1      -2.047  12.313  20.571  0.00  0.00    +0.000 A 
ATOM     16  C   UNL     1      -2.446  12.614  21.862  0.00  0.00    +0.000 A 
ATOM     17  S   UNL     1      -4.127  12.934  21.904  0.00  0.00    +0.000 S 
ATOM     18  C   UNL     1      -4.200  12.657  20.214  0.00  0.00    +0.000 A 
ATOM     19  N   UNL     1      -3.066  12.342  19.627  0.00  0.00    +0.000 NA
ENDBRANCH  14  15
ENDBRANCH  12  14
ENDBRANCH   8  12
BRANCH   1  20
ATOM     20  O   UNL     1       3.536   3.969  19.364  0.00  0.00    +0.000 OA
BRANCH  20  22
ATOM     21  C   UNL     1       1.770   2.553  20.302  0.00  0.00    +0.000 C 
ATOM     22  C   UNL     1       2.577   2.917  19.048  0.00  0.00    +0.000 C 
ATOM     23  C   UNL     1       3.286   1.695  18.439  0.00  0.00    +0.000 C 
ATOM     24  C   UNL     1       1.566   3.452  18.009  0.00  0.00    +0.000 C 
ENDBRANCH  20  22
ENDBRANCH   1  20
TORSDOF 5
ENDMDL
MODEL 9
REMARK VINA RESULT:      -6.9      6.800      8.157
REMARK  Name = 
REMARK  8 active torsions:
REMARK  status: ('A' for Active; 'I' for Inactive)
REMARK    1  A    between atoms: C_1  and  C_2
REMARK    2  A    between atoms: C_2  and  C_3
REMARK    3  A    between atoms: C_2  and  C_4
REMARK    4  A    between atoms: C_2  and  O_5
REMARK    5  A    between atoms: O_5  and  C_6
REMARK    6  A    between atoms: C_13  and  N_14
REMARK    7  A    between atoms: N_14  and  C_15
REMARK    8  A    between atoms: C_15  and  C_16
REMARK                            x       y       z     vdW  Elec       q    Type
REMARK                         _______ _______ _______ _____ _____    ______ ____
ROOT
ATOM      1  C   UNL     1       3.275   5.630  18.583  0.00  0.00    +0.000 C 
ATOM      2  O   UNL     1       3.841   5.817  17.508  0.00  0.00    +0.000 OA
ATOM      3  N   UNL     1       2.573   6.634  19.173  0.00  0.00    +0.000 N 
ATOM      4  C   UNL     1       2.419   7.892  18.467  0.00  0.00    +0.000 C 
ATOM      5  C   UNL     1       1.578   8.705  19.396  0.00  0.00    +0.000 A 
ATOM      6  C   UNL     1       1.070   9.972  19.194  0.00  0.00    +0.000 A 
ATOM      7  C   UNL     1       0.332  10.548  20.234  0.00  0.00    +0.000 A 
ATOM      8  C   UNL     1       0.088   9.861  21.441  0.00  0.00    +0.000 A 
ATOM      9  C   UNL     1       0.645   8.584  21.621  0.00  0.00    +0.000 A 
ATOM     10  C   UNL     1       1.366   8.006  20.585  0.00  0.00    +0.000 A 
ATOM     11  C   UNL     1       2.014   6.654  20.519  0.00  0.00    +0.000 C 
ENDROOT
BRANCH   8  12
ATOM     12  N   UNL     1      -0.617  10.543  22.446  0.00  0.00    +0.000 N 
ATOM     13  H   UNL     1      -1.544  10.131  22.548  0.00  0.00    +0.000 HD
BRANCH  12  14
ATOM     14  C   UNL     1      -0.728  12.001  22.327  0.00  0.00    +0.000 C 
BRANCH  14  15
ATOM     15  C   UNL     1      -1.835  12.626  23.134  0.00  0.00    +0.000 A 
ATOM     16  C   UNL     1      -1.849  13.926  23.609  0.00  0.00    +0.000 A 
ATOM     17  S   UNL     1      -3.307  14.235  24.451  0.00  0.00    +0.000 S 
ATOM     18  C   UNL     1      -3.814  12.631  24.119  0.00  0.00    +0.000 A 
ATOM     19  N   UNL     1      -2.975  11.887  23.431  0.00  0.00    +0.000 NA
ENDBRANCH  14  15
ENDBRANCH  12  14
ENDBRANCH   8  12
BRANCH   1  20
ATOM     20  O   UNL     1       3.267   4.444  19.266  0.00  0.00    +0.000 OA
BRANCH  20  22
ATOM     21  C   UNL     1       1.428   2.992  19.984  0.00  0.00    +0.000 C 
ATOM     22  C   UNL     1       2.328   3.423  18.816  0.00  0.00    +0.000 C 
ATOM     23  C   UNL     1       3.073   2.233  18.188  0.00  0.00    +0.000 C 
ATOM     24  C   UNL     1       1.400   4.031  17.741  0.00  0.00    +0.000 C 
ENDBRANCH  20  22
ENDBRANCH   1  20
TORSDOF 5
ENDMDL
