MODEL 1
REMARK VINA RESULT:      -8.4      0.000      0.000
REMARK  Name = 
REMARK  3 active torsions:
REMARK  status: ('A' for Active; 'I' for Inactive)
REMARK    1  A    between atoms: C_1  and  C_2
REMARK    2  A    between atoms: C_2  and  N_3
REMARK    3  A    between atoms: C_2  and  C_17
REMARK                            x       y       z     vdW  Elec       q    Type
REMARK                         _______ _______ _______ _____ _____    ______ ____
ROOT
ATOM      1  N   UNL     1       5.869   4.881  16.721  0.00  0.00    +0.000 N 
ATOM      2  C   UNL     1       6.784   4.404  17.603  0.00  0.00    +0.000 C 
ATOM      3  O   UNL     1       7.995   4.560  17.476  0.00  0.00    +0.000 OA
ATOM      4  N   UNL     1       6.287   3.764  18.710  0.00  0.00    +0.000 N 
ATOM      5  C   UNL     1       4.941   3.535  19.031  0.00  0.00    +0.000 A 
ATOM      6  C   UNL     1       4.632   3.080  20.309  0.00  0.00    +0.000 A 
ATOM      7  C   UNL     1       3.262   2.966  20.574  0.00  0.00    +0.000 A 
ATOM      8  N   UNL     1       2.560   2.621  21.696  0.00  0.00    +0.000 N 
ATOM      9  N   UNL     1       1.224   2.635  21.539  0.00  0.00    +0.000 NA
ATOM     10  C   UNL     1       1.055   3.014  20.275  0.00  0.00    +0.000 A 
ATOM     11  N   UNL     1      -0.143   3.176  19.705  0.00  0.00    +0.000 N 
ATOM     12  C   UNL     1       2.289   3.234  19.621  0.00  0.00    +0.000 A 
ATOM     13  C   UNL     1       2.689   3.634  18.354  0.00  0.00    +0.000 A 
ATOM     14  N   UNL     1       4.004   3.796  18.086  0.00  0.00    +0.000 NA
ATOM     15  H   UNL     1       4.906   4.658  16.953  0.00  0.00    +0.000 HD
ATOM     16  H   UNL     1       6.999   3.498  19.373  0.00  0.00    +0.000 HD
ATOM     17  H   UNL     1       2.926   2.378  22.610  0.00  0.00    +0.000 HD
ATOM     18  H   UNL     1      -0.975   2.933  20.229  0.00  0.00    +0.000 HD
ATOM     19  H   UNL     1      -0.283   3.364  18.721  0.00  0.00    +0.000 HD
ENDROOT
BRANCH   1  21
ATOM     20  C   UNL     1       4.968   6.711  15.349  0.00  0.00    +0.000 C 
ATOM     21  C   UNL     1       6.144   5.766  15.614  0.00  0.00    +0.000 C 
BRANCH  21  22
ATOM     22  C   UNL     1       6.449   5.005  14.331  0.00  0.00    +0.000 A 
ATOM     23  C   UNL     1       7.579   5.364  13.577  0.00  0.00    +0.000 A 
ATOM     24  C   UNL     1       7.825   4.788  12.327  0.00  0.00    +0.000 A 
ATOM     25  C   UNL     1       6.948   3.834  11.816  0.00  0.00    +0.000 A 
ATOM     26  C   UNL     1       5.841   3.455  12.565  0.00  0.00    +0.000 A 
ATOM     27  F   UNL     1       4.996   2.539  12.073  0.00  0.00    +0.000 F 
ATOM     28  C   UNL     1       5.581   4.030  13.805  0.00  0.00    +0.000 A 
ENDBRANCH  21  22
ENDBRANCH   1  21
TORSDOF 2
ENDMDL
MODEL 2
REMARK VINA RESULT:      -8.2      3.624      4.371
REMARK  Name = 
REMARK  3 active torsions:
REMARK  status: ('A' for Active; 'I' for Inactive)
REMARK    1  A    between atoms: C_1  and  C_2
REMARK    2  A    between atoms: C_2  and  N_3
REMARK    3  A    between atoms: C_2  and  C_17
REMARK                            x       y       z     vdW  Elec       q    Type
REMARK                         _______ _______ _______ _____ _____    ______ ____
ROOT
ATOM      1  N   UNL     1       5.234   4.778  18.161  0.00  0.00    +0.000 N 
ATOM      2  C   UNL     1       4.630   4.132  19.191  0.00  0.00    +0.000 C 
ATOM      3  O   UNL     1       5.015   3.055  19.638  0.00  0.00    +0.000 OA
ATOM      4  N   UNL     1       3.567   4.775  19.773  0.00  0.00    +0.000 N 
ATOM      5  C   UNL     1       3.024   6.018  19.419  0.00  0.00    +0.000 A 
ATOM      6  C   UNL     1       2.101   6.608  20.277  0.00  0.00    +0.000 A 
ATOM      7  C   UNL     1       1.679   7.886  19.894  0.00  0.00    +0.000 A 
ATOM      8  N   UNL     1       0.848   8.803  20.478  0.00  0.00    +0.000 N 
ATOM      9  N   UNL     1       0.700   9.942  19.777  0.00  0.00    +0.000 NA
ATOM     10  C   UNL     1       1.470   9.760  18.707  0.00  0.00    +0.000 A 
ATOM     11  N   UNL     1       1.627  10.674  17.744  0.00  0.00    +0.000 N 
ATOM     12  C   UNL     1       2.106   8.498  18.723  0.00  0.00    +0.000 A 
ATOM     13  C   UNL     1       2.988   7.815  17.898  0.00  0.00    +0.000 A 
ATOM     14  N   UNL     1       3.447   6.597  18.268  0.00  0.00    +0.000 NA
ATOM     15  H   UNL     1       4.790   5.650  17.894  0.00  0.00    +0.000 HD
ATOM     16  H   UNL     1       3.202   4.295  20.582  0.00  0.00    +0.000 HD
ATOM     17  H   UNL     1       0.360   8.727  21.363  0.00  0.00    +0.000 HD
ATOM     18  H   UNL     1       1.082  11.528  17.781  0.00  0.00    +0.000 HD
ATOM     19  H   UNL     1       2.128  10.510  16.880  0.00  0.00    +0.000 HD
ENDROOT
BRANCH   1  21
ATOM     20  C   UNL     1       7.633   5.294  18.034  0.00  0.00    +0.000 C 
ATOM     21  C   UNL     1       6.486   4.403  17.547  0.00  0.00    +0.000 C 
BRANCH  21  22
ATOM     22  C   UNL     1       6.428   4.478  16.027  0.00  0.00    +0.000 A 
ATOM     23  C   UNL     1       5.382   3.827  15.352  0.00  0.00    +0.000 A 
ATOM     24  C   UNL     1       5.362   3.753  13.956  0.00  0.00    +0.000 A 
ATOM     25  C   UNL     1       6.383   4.338  13.213  0.00  0.00    +0.000 A 
ATOM     26  C   UNL     1       7.409   5.005  13.871  0.00  0.00    +0.000 A 
ATOM     27  F   UNL     1       8.393   5.568  13.157  0.00  0.00    +0.000 F 
ATOM     28  C   UNL     1       7.445   5.075  15.261  0.00  0.00    +0.000 A 
ENDBRANCH  21  22
ENDBRANCH   1  21
TORSDOF 2
ENDMDL
MODEL 3
REMARK VINA RESULT:      -8.1      3.060      7.450
REMARK  Name = 
REMARK  3 active torsions:
REMARK  status: ('A' for Active; 'I' for Inactive)
REMARK    1  A    between atoms: C_1  and  C_2
REMARK    2  A    between atoms: C_2  and  N_3
REMARK    3  A    between atoms: C_2  and  C_17
REMARK                            x       y       z     vdW  Elec       q    Type
REMARK                         _______ _______ _______ _____ _____    ______ ____
ROOT
ATOM      1  N   UNL     1       5.316   3.806  18.657  0.00  0.00    +0.000 N 
ATOM      2  C   UNL     1       6.267   4.761  18.815  0.00  0.00    +0.000 C 
ATOM      3  O   UNL     1       6.642   5.174  19.909  0.00  0.00    +0.000 OA
ATOM      4  N   UNL     1       6.856   5.229  17.667  0.00  0.00    +0.000 N 
ATOM      5  C   UNL     1       6.580   4.843  16.348  0.00  0.00    +0.000 A 
ATOM      6  C   UNL     1       7.445   5.258  15.341  0.00  0.00    +0.000 A 
ATOM      7  C   UNL     1       7.148   4.753  14.069  0.00  0.00    +0.000 A 
ATOM      8  N   UNL     1       7.770   4.869  12.856  0.00  0.00    +0.000 N 
ATOM      9  N   UNL     1       7.156   4.214  11.854  0.00  0.00    +0.000 NA
ATOM     10  C   UNL     1       6.106   3.645  12.441  0.00  0.00    +0.000 A 
ATOM     11  N   UNL     1       5.226   2.872  11.797  0.00  0.00    +0.000 N 
ATOM     12  C   UNL     1       6.047   3.944  13.821  0.00  0.00    +0.000 A 
ATOM     13  C   UNL     1       5.207   3.622  14.877  0.00  0.00    +0.000 A 
ATOM     14  N   UNL     1       5.497   4.059  16.123  0.00  0.00    +0.000 NA
ATOM     15  H   UNL     1       5.102   3.582  17.691  0.00  0.00    +0.000 HD
ATOM     16  H   UNL     1       7.609   5.878  17.839  0.00  0.00    +0.000 HD
ATOM     17  H   UNL     1       8.626   5.367  12.640  0.00  0.00    +0.000 HD
ATOM     18  H   UNL     1       5.309   2.763  10.793  0.00  0.00    +0.000 HD
ATOM     19  H   UNL     1       4.372   2.518  12.208  0.00  0.00    +0.000 HD
ENDROOT
BRANCH   1  21
ATOM     20  C   UNL     1       4.677   1.535  19.346  0.00  0.00    +0.000 C 
ATOM     21  C   UNL     1       4.725   3.021  19.715  0.00  0.00    +0.000 C 
BRANCH  21  22
ATOM     22  C   UNL     1       3.313   3.479  20.053  0.00  0.00    +0.000 A 
ATOM     23  C   UNL     1       2.254   2.561  19.949  0.00  0.00    +0.000 A 
ATOM     24  C   UNL     1       0.927   2.969  20.117  0.00  0.00    +0.000 A 
ATOM     25  C   UNL     1       0.640   4.301  20.401  0.00  0.00    +0.000 A 
ATOM     26  C   UNL     1       1.681   5.212  20.529  0.00  0.00    +0.000 A 
ATOM     27  F   UNL     1       1.404   6.494  20.800  0.00  0.00    +0.000 F 
ATOM     28  C   UNL     1       3.005   4.819  20.353  0.00  0.00    +0.000 A 
ENDBRANCH  21  22
ENDBRANCH   1  21
TORSDOF 2
ENDMDL
MODEL 4
REMARK VINA RESULT:      -8.0      6.028      7.775
REMARK  Name = 
REMARK  3 active torsions:
REMARK  status: ('A' for Active; 'I' for Inactive)
REMARK    1  A    between atoms: C_1  and  C_2
REMARK    2  A    between atoms: C_2  and  N_3
REMARK    3  A    between atoms: C_2  and  C_17
REMARK                            x       y       z     vdW  Elec       q    Type
REMARK                         _______ _______ _______ _____ _____    ______ ____
ROOT
ATOM      1  N   UNL     1       1.405   8.955  19.264  0.00  0.00    +0.000 N 
ATOM      2  C   UNL     1       2.194   8.897  18.161  0.00  0.00    +0.000 C 
ATOM      3  O   UNL     1       2.391   9.852  17.415  0.00  0.00    +0.000 OA
ATOM      4  N   UNL     1       2.828   7.703  17.928  0.00  0.00    +0.000 N 
ATOM      5  C   UNL     1       2.748   6.531  18.694  0.00  0.00    +0.000 A 
ATOM      6  C   UNL     1       3.647   5.502  18.430  0.00  0.00    +0.000 A 
ATOM      7  C   UNL     1       3.557   4.408  19.298  0.00  0.00    +0.000 A 
ATOM      8  N   UNL     1       4.280   3.252  19.412  0.00  0.00    +0.000 N 
ATOM      9  N   UNL     1       3.870   2.439  20.402  0.00  0.00    +0.000 NA
ATOM     10  C   UNL     1       2.854   3.096  20.955  0.00  0.00    +0.000 A 
ATOM     11  N   UNL     1       2.161   2.640  22.004  0.00  0.00    +0.000 N 
ATOM     12  C   UNL     1       2.610   4.330  20.310  0.00  0.00    +0.000 A 
ATOM     13  C   UNL     1       1.717   5.379  20.469  0.00  0.00    +0.000 A 
ATOM     14  N   UNL     1       1.812   6.468  19.673  0.00  0.00    +0.000 NA
ATOM     15  H   UNL     1       1.326   8.079  19.770  0.00  0.00    +0.000 HD
ATOM     16  H   UNL     1       3.463   7.731  17.145  0.00  0.00    +0.000 HD
ATOM     17  H   UNL     1       5.077   2.958  18.859  0.00  0.00    +0.000 HD
ATOM     18  H   UNL     1       2.362   1.715  22.363  0.00  0.00    +0.000 HD
ATOM     19  H   UNL     1       1.326   3.081  22.368  0.00  0.00    +0.000 HD
ENDROOT
BRANCH   1  21
ATOM     20  C   UNL     1       0.516   9.979  21.313  0.00  0.00    +0.000 C 
ATOM     21  C   UNL     1       0.821  10.151  19.822  0.00  0.00    +0.000 C 
BRANCH  21  22
ATOM     22  C   UNL     1      -0.465  10.551  19.110  0.00  0.00    +0.000 A 
ATOM     23  C   UNL     1      -1.257  11.575  19.656  0.00  0.00    +0.000 A 
ATOM     24  C   UNL     1      -2.509  11.883  19.116  0.00  0.00    +0.000 A 
ATOM     25  C   UNL     1      -2.983  11.179  18.012  0.00  0.00    +0.000 A 
ATOM     26  C   UNL     1      -2.196  10.182  17.450  0.00  0.00    +0.000 A 
ATOM     27  F   UNL     1      -2.653   9.502  16.389  0.00  0.00    +0.000 F 
ATOM     28  C   UNL     1      -0.953   9.859  17.987  0.00  0.00    +0.000 A 
ENDBRANCH  21  22
ENDBRANCH   1  21
TORSDOF 2
ENDMDL
MODEL 5
REMARK VINA RESULT:      -7.9      2.775      7.244
REMARK  Name = 
REMARK  3 active torsions:
REMARK  status: ('A' for Active; 'I' for Inactive)
REMARK    1  A    between atoms: C_1  and  C_2
REMARK    2  A    between atoms: C_2  and  N_3
REMARK    3  A    between atoms: C_2  and  C_17
REMARK                            x       y       z     vdW  Elec       q    Type
REMARK                         _______ _______ _______ _____ _____    ______ ____
ROOT
ATOM      1  N   UNL     1       5.323   3.932  18.653  0.00  0.00    +0.000 N 
ATOM      2  C   UNL     1       6.335   4.825  18.797  0.00  0.00    +0.000 C 
ATOM      3  O   UNL     1       6.742   5.222  19.885  0.00  0.00    +0.000 OA
ATOM      4  N   UNL     1       6.946   5.245  17.642  0.00  0.00    +0.000 N 
ATOM      5  C   UNL     1       6.638   4.866  16.328  0.00  0.00    +0.000 A 
ATOM      6  C   UNL     1       7.522   5.216  15.312  0.00  0.00    +0.000 A 
ATOM      7  C   UNL     1       7.185   4.721  14.047  0.00  0.00    +0.000 A 
ATOM      8  N   UNL     1       7.806   4.787  12.829  0.00  0.00    +0.000 N 
ATOM      9  N   UNL     1       7.144   4.165  11.837  0.00  0.00    +0.000 NA
ATOM     10  C   UNL     1       6.064   3.669  12.434  0.00  0.00    +0.000 A 
ATOM     11  N   UNL     1       5.132   2.951  11.801  0.00  0.00    +0.000 N 
ATOM     12  C   UNL     1       6.032   3.984  13.812  0.00  0.00    +0.000 A 
ATOM     13  C   UNL     1       5.179   3.725  14.875  0.00  0.00    +0.000 A 
ATOM     14  N   UNL     1       5.504   4.153  16.116  0.00  0.00    +0.000 NA
ATOM     15  H   UNL     1       5.089   3.715  17.690  0.00  0.00    +0.000 HD
ATOM     16  H   UNL     1       7.741   5.845  17.804  0.00  0.00    +0.000 HD
ATOM     17  H   UNL     1       8.691   5.227  12.604  0.00  0.00    +0.000 HD
ATOM     18  H   UNL     1       5.201   2.828  10.797  0.00  0.00    +0.000 HD
ATOM     19  H   UNL     1       4.259   2.656  12.220  0.00  0.00    +0.000 HD
ENDROOT
BRANCH   1  21
ATOM     20  C   UNL     1       4.983   1.696  19.614  0.00  0.00    +0.000 C 
ATOM     21  C   UNL     1       4.689   3.195  19.720  0.00  0.00    +0.000 C 
BRANCH  21  22
ATOM     22  C   UNL     1       3.178   3.390  19.737  0.00  0.00    +0.000 A 
ATOM     23  C   UNL     1       2.627   4.374  20.575  0.00  0.00    +0.000 A 
ATOM     24  C   UNL     1       1.242   4.498  20.726  0.00  0.00    +0.000 A 
ATOM     25  C   UNL     1       0.388   3.646  20.031  0.00  0.00    +0.000 A 
ATOM     26  C   UNL     1       0.923   2.687  19.181  0.00  0.00    +0.000 A 
ATOM     27  F   UNL     1       0.101   1.867  18.514  0.00  0.00    +0.000 F 
ATOM     28  C   UNL     1       2.300   2.547  19.032  0.00  0.00    +0.000 A 
ENDBRANCH  21  22
ENDBRANCH   1  21
TORSDOF 2
ENDMDL
MODEL 6
REMARK VINA RESULT:      -7.8      5.417      6.556
REMARK  Name = 
REMARK  3 active torsions:
REMARK  status: ('A' for Active; 'I' for Inactive)
REMARK    1  A    between atoms: C_1  and  C_2
REMARK    2  A    between atoms: C_2  and  N_3
REMARK    3  A    between atoms: C_2  and  C_17
REMARK                            x       y       z     vdW  Elec       q    Type
REMARK                         _______ _______ _______ _____ _____    ______ ____
ROOT
ATOM      1  N   UNL     1       3.260   6.188  18.408  0.00  0.00    +0.000 N 
ATOM      2  C   UNL     1       2.886   5.758  19.640  0.00  0.00    +0.000 C 
ATOM      3  O   UNL     1       3.218   4.674  20.111  0.00  0.00    +0.000 OA
ATOM      4  N   UNL     1       2.140   6.631  20.390  0.00  0.00    +0.000 N 
ATOM      5  C   UNL     1       1.709   7.915  20.026  0.00  0.00    +0.000 A 
ATOM      6  C   UNL     1       1.166   8.736  21.010  0.00  0.00    +0.000 A 
ATOM      7  C   UNL     1       0.847  10.030  20.582  0.00  0.00    +0.000 A 
ATOM      8  N   UNL     1       0.363  11.131  21.234  0.00  0.00    +0.000 N 
ATOM      9  N   UNL     1       0.191  12.209  20.449  0.00  0.00    +0.000 NA
ATOM     10  C   UNL     1       0.589  11.797  19.248  0.00  0.00    +0.000 A 
ATOM     11  N   UNL     1       0.599  12.577  18.163  0.00  0.00    +0.000 N 
ATOM     12  C   UNL     1       1.009  10.447  19.267  0.00  0.00    +0.000 A 
ATOM     13  C   UNL     1       1.509   9.544  18.339  0.00  0.00    +0.000 A 
ATOM     14  N   UNL     1       1.867   8.303  18.737  0.00  0.00    +0.000 NA
ATOM     15  H   UNL     1       2.893   7.099  18.153  0.00  0.00    +0.000 HD
ATOM     16  H   UNL     1       1.954   6.300  21.324  0.00  0.00    +0.000 HD
ATOM     17  H   UNL     1       0.141  11.224  22.219  0.00  0.00    +0.000 HD
ATOM     18  H   UNL     1       0.220  13.514  18.227  0.00  0.00    +0.000 HD
ATOM     19  H   UNL     1       0.803  12.248  17.228  0.00  0.00    +0.000 HD
ENDROOT
BRANCH   1  21
ATOM     20  C   UNL     1       4.098   4.015  17.623  0.00  0.00    +0.000 C 
ATOM     21  C   UNL     1       4.215   5.541  17.541  0.00  0.00    +0.000 C 
BRANCH  21  22
ATOM     22  C   UNL     1       5.650   5.932  17.870  0.00  0.00    +0.000 A 
ATOM     23  C   UNL     1       6.343   5.215  18.859  0.00  0.00    +0.000 A 
ATOM     24  C   UNL     1       7.610   5.622  19.290  0.00  0.00    +0.000 A 
ATOM     25  C   UNL     1       8.207   6.748  18.730  0.00  0.00    +0.000 A 
ATOM     26  C   UNL     1       7.539   7.449  17.734  0.00  0.00    +0.000 A 
ATOM     27  F   UNL     1       8.113   8.534  17.196  0.00  0.00    +0.000 F 
ATOM     28  C   UNL     1       6.273   7.060  17.305  0.00  0.00    +0.000 A 
ENDBRANCH  21  22
ENDBRANCH   1  21
TORSDOF 2
ENDMDL
MODEL 7
REMARK VINA RESULT:      -7.8      6.373      8.045
REMARK  Name = 
REMARK  3 active torsions:
REMARK  status: ('A' for Active; 'I' for Inactive)
REMARK    1  A    between atoms: C_1  and  C_2
REMARK    2  A    between atoms: C_2  and  N_3
REMARK    3  A    between atoms: C_2  and  C_17
REMARK                            x       y       z     vdW  Elec       q    Type
REMARK                         _______ _______ _______ _____ _____    ______ ____
ROOT
ATOM      1  N   UNL     1       1.424   8.963  19.237  0.00  0.00    +0.000 N 
ATOM      2  C   UNL     1       2.213   8.887  18.135  0.00  0.00    +0.000 C 
ATOM      3  O   UNL     1       2.420   9.833  17.380  0.00  0.00    +0.000 OA
ATOM      4  N   UNL     1       2.839   7.686  17.917  0.00  0.00    +0.000 N 
ATOM      5  C   UNL     1       2.748   6.522  18.694  0.00  0.00    +0.000 A 
ATOM      6  C   UNL     1       3.640   5.484  18.442  0.00  0.00    +0.000 A 
ATOM      7  C   UNL     1       3.540   4.400  19.322  0.00  0.00    +0.000 A 
ATOM      8  N   UNL     1       4.253   3.240  19.449  0.00  0.00    +0.000 N 
ATOM      9  N   UNL     1       3.835   2.440  20.447  0.00  0.00    +0.000 NA
ATOM     10  C   UNL     1       2.823   3.111  20.992  0.00  0.00    +0.000 A 
ATOM     11  N   UNL     1       2.125   2.672  22.044  0.00  0.00    +0.000 N 
ATOM     12  C   UNL     1       2.590   4.340  20.333  0.00  0.00    +0.000 A 
ATOM     13  C   UNL     1       1.706   5.398  20.480  0.00  0.00    +0.000 A 
ATOM     14  N   UNL     1       1.810   6.477  19.673  0.00  0.00    +0.000 NA
ATOM     15  H   UNL     1       1.337   8.093  19.752  0.00  0.00    +0.000 HD
ATOM     16  H   UNL     1       3.475   7.701  17.133  0.00  0.00    +0.000 HD
ATOM     17  H   UNL     1       5.048   2.934  18.900  0.00  0.00    +0.000 HD
ATOM     18  H   UNL     1       2.319   1.749  22.413  0.00  0.00    +0.000 HD
ATOM     19  H   UNL     1       1.294   3.123  22.402  0.00  0.00    +0.000 HD
ENDROOT
BRANCH   1  21
ATOM     20  C   UNL     1       0.700  10.079  21.303  0.00  0.00    +0.000 C 
ATOM     21  C   UNL     1       0.848  10.170  19.781  0.00  0.00    +0.000 C 
BRANCH  21  22
ATOM     22  C   UNL     1      -0.516  10.480  19.181  0.00  0.00    +0.000 A 
ATOM     23  C   UNL     1      -0.876   9.883  17.961  0.00  0.00    +0.000 A 
ATOM     24  C   UNL     1      -2.058  10.240  17.305  0.00  0.00    +0.000 A 
ATOM     25  C   UNL     1      -2.904  11.193  17.865  0.00  0.00    +0.000 A 
ATOM     26  C   UNL     1      -2.569  11.770  19.083  0.00  0.00    +0.000 A 
ATOM     27  F   UNL     1      -3.383  12.688  19.622  0.00  0.00    +0.000 F 
ATOM     28  C   UNL     1      -1.390  11.431  19.740  0.00  0.00    +0.000 A 
ENDBRANCH  21  22
ENDBRANCH   1  21
TORSDOF 2
ENDMDL
MODEL 8
REMARK VINA RESULT:      -7.7      3.205      7.513
REMARK  Name = 
REMARK  3 active torsions:
REMARK  status: ('A' for Active; 'I' for Inactive)
REMARK    1  A    between atoms: C_1  and  C_2
REMARK    2  A    between atoms: C_2  and  N_3
REMARK    3  A    between atoms: C_2  and  C_17
REMARK                            x       y       z     vdW  Elec       q    Type
REMARK                         _______ _______ _______ _____ _____    ______ ____
ROOT
ATOM      1  N   UNL     1       5.326   3.703  18.656  0.00  0.00    +0.000 N 
ATOM      2  C   UNL     1       6.191   4.732  18.847  0.00  0.00    +0.000 C 
ATOM      3  O   UNL     1       6.508   5.158  19.954  0.00  0.00    +0.000 OA
ATOM      4  N   UNL     1       6.761   5.265  17.719  0.00  0.00    +0.000 N 
ATOM      5  C   UNL     1       6.545   4.878  16.389  0.00  0.00    +0.000 A 
ATOM      6  C   UNL     1       7.392   5.379  15.406  0.00  0.00    +0.000 A 
ATOM      7  C   UNL     1       7.164   4.870  14.122  0.00  0.00    +0.000 A 
ATOM      8  N   UNL     1       7.798   5.056  12.923  0.00  0.00    +0.000 N 
ATOM      9  N   UNL     1       7.261   4.368  11.900  0.00  0.00    +0.000 NA
ATOM     10  C   UNL     1       6.251   3.704  12.457  0.00  0.00    +0.000 A 
ATOM     11  N   UNL     1       5.452   2.871  11.783  0.00  0.00    +0.000 N 
ATOM     12  C   UNL     1       6.140   3.977  13.839  0.00  0.00    +0.000 A 
ATOM     13  C   UNL     1       5.308   3.569  14.873  0.00  0.00    +0.000 A 
ATOM     14  N   UNL     1       5.536   4.010  16.130  0.00  0.00    +0.000 NA
ATOM     15  H   UNL     1       5.151   3.477  17.683  0.00  0.00    +0.000 HD
ATOM     16  H   UNL     1       7.454   5.972  17.915  0.00  0.00    +0.000 HD
ATOM     17  H   UNL     1       8.614   5.627  12.732  0.00  0.00    +0.000 HD
ATOM     18  H   UNL     1       5.563   2.785  10.780  0.00  0.00    +0.000 HD
ATOM     19  H   UNL     1       4.623   2.441  12.171  0.00  0.00    +0.000 HD
ENDROOT
BRANCH   1  21
ATOM     20  C   UNL     1       4.902   1.374  19.317  0.00  0.00    +0.000 C 
ATOM     21  C   UNL     1       4.782   2.855  19.690  0.00  0.00    +0.000 C 
BRANCH  21  22
ATOM     22  C   UNL     1       3.318   3.163  19.976  0.00  0.00    +0.000 A 
ATOM     23  C   UNL     1       2.645   4.092  19.165  0.00  0.00    +0.000 A 
ATOM     24  C   UNL     1       1.346   4.507  19.470  0.00  0.00    +0.000 A 
ATOM     25  C   UNL     1       0.695   3.991  20.588  0.00  0.00    +0.000 A 
ATOM     26  C   UNL     1       1.342   3.054  21.382  0.00  0.00    +0.000 A 
ATOM     27  F   UNL     1       0.717   2.558  22.458  0.00  0.00    +0.000 F 
ATOM     28  C   UNL     1       2.640   2.642  21.094  0.00  0.00    +0.000 A 
ENDBRANCH  21  22
ENDBRANCH   1  21
TORSDOF 2
ENDMDL
MODEL 9
REMARK VINA RESULT:      -7.6      6.107      7.899
REMARK  Name = 
REMARK  3 active torsions:
REMARK  status: ('A' for Active; 'I' for Inactive)
REMARK    1  A    between atoms: C_1  and  C_2
REMARK    2  A    between atoms: C_2  and  N_3
REMARK    3  A    between atoms: C_2  and  C_17
REMARK                            x       y       z     vdW  Elec       q    Type
REMARK                         _______ _______ _______ _____ _____    ______ ____
ROOT
ATOM      1  N   UNL     1       1.547   8.744  19.509  0.00  0.00    +0.000 N 
ATOM      2  C   UNL     1       2.148   8.745  18.292  0.00  0.00    +0.000 C 
ATOM      3  O   UNL     1       2.224   9.736  17.572  0.00  0.00    +0.000 OA
ATOM      4  N   UNL     1       2.736   7.568  17.903  0.00  0.00    +0.000 N 
ATOM      5  C   UNL     1       2.779   6.360  18.613  0.00  0.00    +0.000 A 
ATOM      6  C   UNL     1       3.624   5.352  18.159  0.00  0.00    +0.000 A 
ATOM      7  C   UNL     1       3.673   4.217  18.976  0.00  0.00    +0.000 A 
ATOM      8  N   UNL     1       4.404   3.061  18.916  0.00  0.00    +0.000 N 
ATOM      9  N   UNL     1       4.158   2.198  19.918  0.00  0.00    +0.000 NA
ATOM     10  C   UNL     1       3.244   2.821  20.658  0.00  0.00    +0.000 A 
ATOM     11  N   UNL     1       2.728   2.310  21.781  0.00  0.00    +0.000 N 
ATOM     12  C   UNL     1       2.901   4.082  20.122  0.00  0.00    +0.000 A 
ATOM     13  C   UNL     1       2.046   5.117  20.473  0.00  0.00    +0.000 A 
ATOM     14  N   UNL     1       2.013   6.243  19.726  0.00  0.00    +0.000 NA
ATOM     15  H   UNL     1       1.550   7.844  19.978  0.00  0.00    +0.000 HD
ATOM     16  H   UNL     1       3.237   7.639  17.030  0.00  0.00    +0.000 HD
ATOM     17  H   UNL     1       5.101   2.800  18.228  0.00  0.00    +0.000 HD
ATOM     18  H   UNL     1       2.984   1.370  22.058  0.00  0.00    +0.000 HD
ATOM     19  H   UNL     1       1.963   2.727  22.295  0.00  0.00    +0.000 HD
ENDROOT
BRANCH   1  21
ATOM     20  C   UNL     1       0.482   9.533  21.579  0.00  0.00    +0.000 C 
ATOM     21  C   UNL     1       1.061   9.908  20.212  0.00  0.00    +0.000 C 
BRANCH  21  22
ATOM     22  C   UNL     1      -0.009  10.652  19.423  0.00  0.00    +0.000 A 
ATOM     23  C   UNL     1      -1.101   9.933  18.910  0.00  0.00    +0.000 A 
ATOM     24  C   UNL     1      -2.035  10.545  18.068  0.00  0.00    +0.000 A 
ATOM     25  C   UNL     1      -1.895  11.889  17.734  0.00  0.00    +0.000 A 
ATOM     26  C   UNL     1      -0.831  12.614  18.255  0.00  0.00    +0.000 A 
ATOM     27  F   UNL     1      -0.695  13.907  17.933  0.00  0.00    +0.000 F 
ATOM     28  C   UNL     1       0.110  12.013  19.086  0.00  0.00    +0.000 A 
ENDBRANCH  21  22
ENDBRANCH   1  21
TORSDOF 2
ENDMDL
