MODEL 1
REMARK VINA RESULT:      -8.9      0.000      0.000
REMARK  Name = 
REMARK  7 active torsions:
REMARK  status: ('A' for Active; 'I' for Inactive)
REMARK    1  A    between atoms: C_1  and  O_2
REMARK    2  A    between atoms: O_2  and  C_3
REMARK    3  A    between atoms: C_8  and  C_10
REMARK    4  A    between atoms: C_12  and  C_13
REMARK    5  A    between atoms: C_22  and  C_23
REMARK    6  A    between atoms: C_30  and  O_31
REMARK    7  A    between atoms: O_31  and  C_32
REMARK                            x       y       z     vdW  Elec       q    Type
REMARK                         _______ _______ _______ _____ _____    ______ ____
ROOT
ATOM      1  C   UNL     1       3.748   5.412  17.571  0.00  0.00    +0.000 A 
ATOM      2  C   UNL     1       4.554   5.508  16.418  0.00  0.00    +0.000 A 
ATOM      3  C   UNL     1       5.271   4.411  15.924  0.00  0.00    +0.000 A 
ATOM      4  C   UNL     1       5.126   3.238  16.659  0.00  0.00    +0.000 A 
ATOM      5  N   UNL     1       4.330   3.087  17.748  0.00  0.00    +0.000 NA
ATOM      6  C   UNL     1       3.610   4.163  18.183  0.00  0.00    +0.000 A 
ENDROOT
BRANCH   1  12
ATOM      7  C   UNL     1       0.339   9.733  20.992  0.00  0.00    +0.000 A 
ATOM      8  C   UNL     1       0.666   8.613  21.760  0.00  0.00    +0.000 A 
ATOM      9  C   UNL     1       1.431   7.585  21.209  0.00  0.00    +0.000 A 
ATOM     10  C   UNL     1       1.888   7.719  19.905  0.00  0.00    +0.000 A 
ATOM     11  N   UNL     1       2.636   6.676  19.345  0.00  0.00    +0.000 N 
ATOM     12  C   UNL     1       3.137   6.683  18.053  0.00  0.00    +0.000 C 
ATOM     13  O   UNL     1       3.229   7.654  17.310  0.00  0.00    +0.000 OA
ATOM     14  N   UNL     1       1.601   8.795  19.167  0.00  0.00    +0.000 NA
ATOM     15  C   UNL     1       0.838   9.776  19.692  0.00  0.00    +0.000 A 
ATOM     16  H   UNL     1       2.667   5.824  19.881  0.00  0.00    +0.000 HD
BRANCH   7  18
ATOM     17  C   UNL     1      -0.711  10.389  23.012  0.00  0.00    +0.000 C 
ATOM     18  O   UNL     1      -0.416  10.665  21.648  0.00  0.00    +0.000 OA
ENDBRANCH   7  18
BRANCH  15  19
ATOM     19  O   UNL     1       0.572  10.858  18.882  0.00  0.00    +0.000 OA
ATOM     20  C   UNL     1      -0.681  10.754  18.204  0.00  0.00    +0.000 C 
ENDBRANCH  15  19
ENDBRANCH   1  12
BRANCH   3  21
ATOM     21  C   UNL     1       6.135   4.495  14.728  0.00  0.00    +0.000 A 
ATOM     22  C   UNL     1       7.149   5.454  14.605  0.00  0.00    +0.000 A 
ATOM     23  N   UNL     1       7.961   5.607  13.529  0.00  0.00    +0.000 NA
ATOM     24  C   UNL     1       7.775   4.743  12.506  0.00  0.00    +0.000 A 
ATOM     25  C   UNL     1       6.819   3.744  12.518  0.00  0.00    +0.000 A 
ATOM     26 CL   UNL     1       6.645   2.677  11.184  0.00  0.00    +0.000 Cl
ATOM     27  C   UNL     1       5.994   3.623  13.635  0.00  0.00    +0.000 A 
ENDBRANCH   3  21
BRANCH   6  28
ATOM     28  C   UNL     1       2.693   3.864  19.303  0.00  0.00    +0.000 A 
ATOM     29  C   UNL     1       1.396   3.397  19.095  0.00  0.00    +0.000 A 
ATOM     30  C   UNL     1       0.604   3.066  20.193  0.00  0.00    +0.000 A 
ATOM     31  C   UNL     1       1.117   3.215  21.475  0.00  0.00    +0.000 A 
ATOM     32  C   UNL     1       2.402   3.701  21.607  0.00  0.00    +0.000 A 
ATOM     33  N   UNL     1       3.187   4.025  20.556  0.00  0.00    +0.000 NA
ENDBRANCH   6  28
TORSDOF 5
ENDMDL
MODEL 2
REMARK VINA RESULT:      -8.3      1.108      1.310
REMARK  Name = 
REMARK  7 active torsions:
REMARK  status: ('A' for Active; 'I' for Inactive)
REMARK    1  A    between atoms: C_1  and  O_2
REMARK    2  A    between atoms: O_2  and  C_3
REMARK    3  A    between atoms: C_8  and  C_10
REMARK    4  A    between atoms: C_12  and  C_13
REMARK    5  A    between atoms: C_22  and  C_23
REMARK    6  A    between atoms: C_30  and  O_31
REMARK    7  A    between atoms: O_31  and  C_32
REMARK                            x       y       z     vdW  Elec       q    Type
REMARK                         _______ _______ _______ _____ _____    ______ ____
ROOT
ATOM      1  C   UNL     1       3.731   5.352  17.389  0.00  0.00    +0.000 A 
ATOM      2  C   UNL     1       4.478   5.416  16.194  0.00  0.00    +0.000 A 
ATOM      3  C   UNL     1       5.148   4.299  15.681  0.00  0.00    +0.000 A 
ATOM      4  C   UNL     1       5.020   3.139  16.440  0.00  0.00    +0.000 A 
ATOM      5  N   UNL     1       4.278   3.019  17.571  0.00  0.00    +0.000 NA
ATOM      6  C   UNL     1       3.601   4.115  18.025  0.00  0.00    +0.000 A 
ENDROOT
BRANCH   1  12
ATOM      7  C   UNL     1       0.501   9.772  20.856  0.00  0.00    +0.000 A 
ATOM      8  C   UNL     1       0.791   8.636  21.614  0.00  0.00    +0.000 A 
ATOM      9  C   UNL     1       1.516   7.584  21.053  0.00  0.00    +0.000 A 
ATOM     10  C   UNL     1       1.970   7.710  19.747  0.00  0.00    +0.000 A 
ATOM     11  N   UNL     1       2.675   6.645  19.176  0.00  0.00    +0.000 N 
ATOM     12  C   UNL     1       3.169   6.642  17.882  0.00  0.00    +0.000 C 
ATOM     13  O   UNL     1       3.292   7.613  17.144  0.00  0.00    +0.000 OA
ATOM     14  N   UNL     1       1.718   8.801  19.017  0.00  0.00    +0.000 NA
ATOM     15  C   UNL     1       0.993   9.805  19.553  0.00  0.00    +0.000 A 
ATOM     16  H   UNL     1       2.679   5.789  19.707  0.00  0.00    +0.000 HD
BRANCH   7  18
ATOM     17  C   UNL     1      -0.686  10.372  22.817  0.00  0.00    +0.000 C 
ATOM     18  O   UNL     1      -0.216  10.727  21.521  0.00  0.00    +0.000 OA
ENDBRANCH   7  18
BRANCH  15  19
ATOM     19  O   UNL     1       0.762  10.901  18.751  0.00  0.00    +0.000 OA
ATOM     20  C   UNL     1       1.787  11.892  18.848  0.00  0.00    +0.000 C 
ENDBRANCH  15  19
ENDBRANCH   1  12
BRANCH   3  21
ATOM     21  C   UNL     1       5.951   4.349  14.441  0.00  0.00    +0.000 A 
ATOM     22  C   UNL     1       5.618   3.601  13.304  0.00  0.00    +0.000 A 
ATOM     23  N   UNL     1       6.322   3.577  12.145  0.00  0.00    +0.000 NA
ATOM     24  C   UNL     1       7.423   4.360  12.091  0.00  0.00    +0.000 A 
ATOM     25  C   UNL     1       7.843   5.156  13.141  0.00  0.00    +0.000 A 
ATOM     26 CL   UNL     1       9.248   6.130  12.999  0.00  0.00    +0.000 Cl
ATOM     27  C   UNL     1       7.103   5.147  14.323  0.00  0.00    +0.000 A 
ENDBRANCH   3  21
BRANCH   6  28
ATOM     28  C   UNL     1       2.738   3.849  19.196  0.00  0.00    +0.000 A 
ATOM     29  C   UNL     1       1.431   3.383  19.062  0.00  0.00    +0.000 A 
ATOM     30  C   UNL     1       0.691   3.085  20.205  0.00  0.00    +0.000 A 
ATOM     31  C   UNL     1       1.265   3.264  21.456  0.00  0.00    +0.000 A 
ATOM     32  C   UNL     1       2.557   3.748  21.514  0.00  0.00    +0.000 A 
ATOM     33  N   UNL     1       3.291   4.041  20.419  0.00  0.00    +0.000 NA
ENDBRANCH   6  28
TORSDOF 5
ENDMDL
MODEL 3
REMARK VINA RESULT:      -7.8      2.811      4.687
REMARK  Name = 
REMARK  7 active torsions:
REMARK  status: ('A' for Active; 'I' for Inactive)
REMARK    1  A    between atoms: C_1  and  O_2
REMARK    2  A    between atoms: O_2  and  C_3
REMARK    3  A    between atoms: C_8  and  C_10
REMARK    4  A    between atoms: C_12  and  C_13
REMARK    5  A    between atoms: C_22  and  C_23
REMARK    6  A    between atoms: C_30  and  O_31
REMARK    7  A    between atoms: O_31  and  C_32
REMARK                            x       y       z     vdW  Elec       q    Type
REMARK                         _______ _______ _______ _____ _____    ______ ____
ROOT
ATOM      1  C   UNL     1       5.469   5.103  16.013  0.00  0.00    +0.000 A 
ATOM      2  C   UNL     1       5.093   4.309  14.910  0.00  0.00    +0.000 A 
ATOM      3  C   UNL     1       5.920   4.160  13.790  0.00  0.00    +0.000 A 
ATOM      4  C   UNL     1       7.125   4.854  13.855  0.00  0.00    +0.000 A 
ATOM      5  N   UNL     1       7.548   5.595  14.911  0.00  0.00    +0.000 NA
ATOM      6  C   UNL     1       6.738   5.688  16.007  0.00  0.00    +0.000 A 
ENDROOT
BRANCH   1  12
ATOM      7  C   UNL     1       1.419   7.705  20.351  0.00  0.00    +0.000 A 
ATOM      8  C   UNL     1       1.716   8.602  19.322  0.00  0.00    +0.000 A 
ATOM      9  C   UNL     1       2.545   8.213  18.270  0.00  0.00    +0.000 A 
ATOM     10  C   UNL     1       3.032   6.913  18.251  0.00  0.00    +0.000 A 
ATOM     11  N   UNL     1       3.884   6.530  17.208  0.00  0.00    +0.000 N 
ATOM     12  C   UNL     1       4.444   5.270  17.082  0.00  0.00    +0.000 C 
ATOM     13  O   UNL     1       4.106   4.256  17.684  0.00  0.00    +0.000 OA
ATOM     14  N   UNL     1       2.739   6.038  19.217  0.00  0.00    +0.000 NA
ATOM     15  C   UNL     1       1.958   6.425  20.248  0.00  0.00    +0.000 A 
ATOM     16  H   UNL     1       4.209   7.276  16.614  0.00  0.00    +0.000 HD
BRANCH   7  18
ATOM     17  C   UNL     1       1.116   9.300  22.077  0.00  0.00    +0.000 C 
ATOM     18  O   UNL     1       0.599   8.211  21.321  0.00  0.00    +0.000 OA
ENDBRANCH   7  18
BRANCH  15  19
ATOM     19  O   UNL     1       1.694   5.481  21.216  0.00  0.00    +0.000 OA
ATOM     20  C   UNL     1       1.833   4.141  20.743  0.00  0.00    +0.000 C 
ENDBRANCH  15  19
ENDBRANCH   1  12
BRANCH   3  21
ATOM     21  C   UNL     1       5.536   3.348  12.616  0.00  0.00    +0.000 A 
ATOM     22  C   UNL     1       6.267   2.221  12.216  0.00  0.00    +0.000 A 
ATOM     23  N   UNL     1       5.989   1.447  11.137  0.00  0.00    +0.000 NA
ATOM     24  C   UNL     1       4.905   1.793  10.408  0.00  0.00    +0.000 A 
ATOM     25  C   UNL     1       4.096   2.873  10.714  0.00  0.00    +0.000 A 
ATOM     26 CL   UNL     1       2.729   3.249   9.747  0.00  0.00    +0.000 Cl
ATOM     27  C   UNL     1       4.417   3.655  11.822  0.00  0.00    +0.000 A 
ENDBRANCH   3  21
BRANCH   6  28
ATOM     28  C   UNL     1       7.339   6.422  17.141  0.00  0.00    +0.000 A 
ATOM     29  C   UNL     1       7.688   5.788  18.333  0.00  0.00    +0.000 A 
ATOM     30  C   UNL     1       8.315   6.522  19.339  0.00  0.00    +0.000 A 
ATOM     31  C   UNL     1       8.573   7.871  19.140  0.00  0.00    +0.000 A 
ATOM     32  C   UNL     1       8.182   8.438  17.944  0.00  0.00    +0.000 A 
ATOM     33  N   UNL     1       7.575   7.745  16.956  0.00  0.00    +0.000 NA
ENDBRANCH   6  28
TORSDOF 5
ENDMDL
MODEL 4
REMARK VINA RESULT:      -7.7      4.820      9.152
REMARK  Name = 
REMARK  7 active torsions:
REMARK  status: ('A' for Active; 'I' for Inactive)
REMARK    1  A    between atoms: C_1  and  O_2
REMARK    2  A    between atoms: O_2  and  C_3
REMARK    3  A    between atoms: C_8  and  C_10
REMARK    4  A    between atoms: C_12  and  C_13
REMARK    5  A    between atoms: C_22  and  C_23
REMARK    6  A    between atoms: C_30  and  O_31
REMARK    7  A    between atoms: O_31  and  C_32
REMARK                            x       y       z     vdW  Elec       q    Type
REMARK                         _______ _______ _______ _____ _____    ______ ____
ROOT
ATOM      1  C   UNL     1      -0.323  11.811  21.137  0.00  0.00    +0.000 A 
ATOM      2  C   UNL     1       0.293  10.701  20.521  0.00  0.00    +0.000 A 
ATOM      3  C   UNL     1       0.558   9.519  21.223  0.00  0.00    +0.000 A 
ATOM      4  C   UNL     1       0.173   9.533  22.561  0.00  0.00    +0.000 A 
ATOM      5  N   UNL     1      -0.460  10.560  23.185  0.00  0.00    +0.000 NA
ATOM      6  C   UNL     1      -0.743  11.685  22.464  0.00  0.00    +0.000 A 
ENDROOT
BRANCH   1  12
ATOM      7  C   UNL     1       1.054  17.331  18.035  0.00  0.00    +0.000 A 
ATOM      8  C   UNL     1       2.200  16.558  18.243  0.00  0.00    +0.000 A 
ATOM      9  C   UNL     1       2.102  15.313  18.865  0.00  0.00    +0.000 A 
ATOM     10  C   UNL     1       0.847  14.848  19.233  0.00  0.00    +0.000 A 
ATOM     11  N   UNL     1       0.753  13.611  19.879  0.00  0.00    +0.000 N 
ATOM     12  C   UNL     1      -0.437  13.043  20.307  0.00  0.00    +0.000 C 
ATOM     13  O   UNL     1      -1.569  13.386  19.983  0.00  0.00    +0.000 OA
ATOM     14  N   UNL     1      -0.259  15.568  19.021  0.00  0.00    +0.000 NA
ATOM     15  C   UNL     1      -0.160  16.784  18.444  0.00  0.00    +0.000 A 
ATOM     16  H   UNL     1       1.626  13.202  20.169  0.00  0.00    +0.000 HD
BRANCH   7  18
ATOM     17  C   UNL     1       0.902  18.618  16.052  0.00  0.00    +0.000 C 
ATOM     18  O   UNL     1       1.286  18.529  17.419  0.00  0.00    +0.000 OA
ENDBRANCH   7  18
BRANCH  15  19
ATOM     19  O   UNL     1      -1.333  17.480  18.256  0.00  0.00    +0.000 OA
ATOM     20  C   UNL     1      -2.136  17.552  19.435  0.00  0.00    +0.000 C 
ENDBRANCH  15  19
ENDBRANCH   1  12
BRANCH   3  21
ATOM     21  C   UNL     1       1.219   8.352  20.602  0.00  0.00    +0.000 A 
ATOM     22  C   UNL     1       1.170   7.074  21.173  0.00  0.00    +0.000 A 
ATOM     23  N   UNL     1       1.773   5.966  20.673  0.00  0.00    +0.000 NA
ATOM     24  C   UNL     1       2.459   6.121  19.519  0.00  0.00    +0.000 A 
ATOM     25  C   UNL     1       2.565   7.328  18.853  0.00  0.00    +0.000 A 
ATOM     26 CL   UNL     1       3.448   7.449  17.386  0.00  0.00    +0.000 Cl
ATOM     27  C   UNL     1       1.943   8.449  19.400  0.00  0.00    +0.000 A 
ENDBRANCH   3  21
BRANCH   6  28
ATOM     28  C   UNL     1      -1.530  12.694  23.204  0.00  0.00    +0.000 A 
ATOM     29  C   UNL     1      -2.889  12.527  23.468  0.00  0.00    +0.000 A 
ATOM     30  C   UNL     1      -3.560  13.481  24.231  0.00  0.00    +0.000 A 
ATOM     31  C   UNL     1      -2.866  14.585  24.708  0.00  0.00    +0.000 A 
ATOM     32  C   UNL     1      -1.527  14.696  24.391  0.00  0.00    +0.000 A 
ATOM     33  N   UNL     1      -0.858  13.782  23.655  0.00  0.00    +0.000 NA
ENDBRANCH   6  28
TORSDOF 5
ENDMDL
MODEL 5
REMARK VINA RESULT:      -7.5      5.354     11.408
REMARK  Name = 
REMARK  7 active torsions:
REMARK  status: ('A' for Active; 'I' for Inactive)
REMARK    1  A    between atoms: C_1  and  O_2
REMARK    2  A    between atoms: O_2  and  C_3
REMARK    3  A    between atoms: C_8  and  C_10
REMARK    4  A    between atoms: C_12  and  C_13
REMARK    5  A    between atoms: C_22  and  C_23
REMARK    6  A    between atoms: C_30  and  O_31
REMARK    7  A    between atoms: O_31  and  C_32
REMARK                            x       y       z     vdW  Elec       q    Type
REMARK                         _______ _______ _______ _____ _____    ______ ____
ROOT
ATOM      1  C   UNL     1      -0.338  12.053  21.270  0.00  0.00    +0.000 A 
ATOM      2  C   UNL     1      -1.611  11.885  21.855  0.00  0.00    +0.000 A 
ATOM      3  C   UNL     1      -2.406  12.977  22.222  0.00  0.00    +0.000 A 
ATOM      4  C   UNL     1      -1.841  14.224  21.968  0.00  0.00    +0.000 A 
ATOM      5  N   UNL     1      -0.642  14.435  21.370  0.00  0.00    +0.000 NA
ATOM      6  C   UNL     1       0.094  13.350  20.984  0.00  0.00    +0.000 A 
ENDROOT
BRANCH   1  12
ATOM      7  C   UNL     1       2.514   6.971  18.438  0.00  0.00    +0.000 A 
ATOM      8  C   UNL     1       2.303   8.012  17.531  0.00  0.00    +0.000 A 
ATOM      9  C   UNL     1       1.731   9.209  17.961  0.00  0.00    +0.000 A 
ATOM     10  C   UNL     1       1.416   9.354  19.305  0.00  0.00    +0.000 A 
ATOM     11  N   UNL     1       0.820  10.546  19.731  0.00  0.00    +0.000 N 
ATOM     12  C   UNL     1       0.448  10.808  21.039  0.00  0.00    +0.000 C 
ATOM     13  O   UNL     1       0.792  10.182  22.037  0.00  0.00    +0.000 OA
ATOM     14  N   UNL     1       1.633   8.374  20.187  0.00  0.00    +0.000 NA
ATOM     15  C   UNL     1       2.162   7.206  19.765  0.00  0.00    +0.000 A 
ATOM     16  H   UNL     1       0.520  11.170  18.999  0.00  0.00    +0.000 HD
BRANCH   7  18
ATOM     17  C   UNL     1       4.501   5.816  17.859  0.00  0.00    +0.000 C 
ATOM     18  O   UNL     1       3.078   5.851  17.890  0.00  0.00    +0.000 OA
ENDBRANCH   7  18
BRANCH  15  19
ATOM     19  O   UNL     1       2.358   6.232  20.719  0.00  0.00    +0.000 OA
ATOM     20  C   UNL     1       1.446   5.139  20.599  0.00  0.00    +0.000 C 
ENDBRANCH  15  19
ENDBRANCH   1  12
BRANCH   3  21
ATOM     21  C   UNL     1      -3.733  12.822  22.854  0.00  0.00    +0.000 A 
ATOM     22  C   UNL     1      -3.886  12.368  24.171  0.00  0.00    +0.000 A 
ATOM     23  N   UNL     1      -5.070  12.177  24.804  0.00  0.00    +0.000 NA
ATOM     24  C   UNL     1      -6.186  12.470  24.099  0.00  0.00    +0.000 A 
ATOM     25  C   UNL     1      -6.163  12.942  22.799  0.00  0.00    +0.000 A 
ATOM     26 CL   UNL     1      -7.620  13.300  21.968  0.00  0.00    +0.000 Cl
ATOM     27  C   UNL     1      -4.929  13.115  22.174  0.00  0.00    +0.000 A 
ENDBRANCH   3  21
BRANCH   6  28
ATOM     28  C   UNL     1       1.328  13.690  20.243  0.00  0.00    +0.000 A 
ATOM     29  C   UNL     1       2.480  14.137  20.889  0.00  0.00    +0.000 A 
ATOM     30  C   UNL     1       3.633  14.374  20.142  0.00  0.00    +0.000 A 
ATOM     31  C   UNL     1       3.612  14.169  18.769  0.00  0.00    +0.000 A 
ATOM     32  C   UNL     1       2.430  13.745  18.195  0.00  0.00    +0.000 A 
ATOM     33  N   UNL     1       1.303  13.508  18.900  0.00  0.00    +0.000 NA
ENDBRANCH   6  28
TORSDOF 5
ENDMDL
MODEL 6
REMARK VINA RESULT:      -7.1      4.851      9.199
REMARK  Name = 
REMARK  7 active torsions:
REMARK  status: ('A' for Active; 'I' for Inactive)
REMARK    1  A    between atoms: C_1  and  O_2
REMARK    2  A    between atoms: O_2  and  C_3
REMARK    3  A    between atoms: C_8  and  C_10
REMARK    4  A    between atoms: C_12  and  C_13
REMARK    5  A    between atoms: C_22  and  C_23
REMARK    6  A    between atoms: C_30  and  O_31
REMARK    7  A    between atoms: O_31  and  C_32
REMARK                            x       y       z     vdW  Elec       q    Type
REMARK                         _______ _______ _______ _____ _____    ______ ____
ROOT
ATOM      1  C   UNL     1       1.139  11.875  18.676  0.00  0.00    +0.000 A 
ATOM      2  C   UNL     1       2.198  12.742  19.016  0.00  0.00    +0.000 A 
ATOM      3  C   UNL     1       2.019  14.128  19.105  0.00  0.00    +0.000 A 
ATOM      4  C   UNL     1       0.728  14.570  18.828  0.00  0.00    +0.000 A 
ATOM      5  N   UNL     1      -0.330  13.771  18.539  0.00  0.00    +0.000 NA
ATOM      6  C   UNL     1      -0.135  12.420  18.501  0.00  0.00    +0.000 A 
ENDROOT
BRANCH   1  12
ATOM      7  C   UNL     1       2.516   5.653  19.852  0.00  0.00    +0.000 A 
ATOM      8  C   UNL     1       1.735   6.207  20.869  0.00  0.00    +0.000 A 
ATOM      9  C   UNL     1       1.305   7.531  20.779  0.00  0.00    +0.000 A 
ATOM     10  C   UNL     1       1.634   8.264  19.647  0.00  0.00    +0.000 A 
ATOM     11  N   UNL     1       1.223   9.599  19.569  0.00  0.00    +0.000 N 
ATOM     12  C   UNL     1       1.498  10.438  18.501  0.00  0.00    +0.000 C 
ATOM     13  O   UNL     1       1.902  10.103  17.393  0.00  0.00    +0.000 OA
ATOM     14  N   UNL     1       2.362   7.739  18.657  0.00  0.00    +0.000 NA
ATOM     15  C   UNL     1       2.801   6.467  18.758  0.00  0.00    +0.000 A 
ATOM     16  H   UNL     1       0.836   9.988  20.414  0.00  0.00    +0.000 HD
BRANCH   7  18
ATOM     17  C   UNL     1       2.203   3.676  21.121  0.00  0.00    +0.000 C 
ATOM     18  O   UNL     1       2.874   4.350  20.062  0.00  0.00    +0.000 OA
ENDBRANCH   7  18
BRANCH  15  19
ATOM     19  O   UNL     1       3.550   5.982  17.709  0.00  0.00    +0.000 OA
ATOM     20  C   UNL     1       4.950   6.222  17.863  0.00  0.00    +0.000 C 
ENDBRANCH  15  19
ENDBRANCH   1  12
BRANCH   3  21
ATOM     21  C   UNL     1       3.119  15.056  19.442  0.00  0.00    +0.000 A 
ATOM     22  C   UNL     1       3.215  16.336  18.882  0.00  0.00    +0.000 A 
ATOM     23  N   UNL     1       4.208  17.228  19.124  0.00  0.00    +0.000 NA
ATOM     24  C   UNL     1       5.168  16.841  19.992  0.00  0.00    +0.000 A 
ATOM     25  C   UNL     1       5.174  15.610  20.622  0.00  0.00    +0.000 A 
ATOM     26 CL   UNL     1       6.423  15.189  21.720  0.00  0.00    +0.000 Cl
ATOM     27  C   UNL     1       4.144  14.712  20.341  0.00  0.00    +0.000 A 
ENDBRANCH   3  21
BRANCH   6  28
ATOM     28  C   UNL     1      -1.371  11.637  18.288  0.00  0.00    +0.000 A 
ATOM     29  C   UNL     1      -2.601  12.038  18.808  0.00  0.00    +0.000 A 
ATOM     30  C   UNL     1      -3.742  11.294  18.514  0.00  0.00    +0.000 A 
ATOM     31  C   UNL     1      -3.634  10.164  17.716  0.00  0.00    +0.000 A 
ATOM     32  C   UNL     1      -2.382   9.814  17.252  0.00  0.00    +0.000 A 
ATOM     33  N   UNL     1      -1.264  10.522  17.524  0.00  0.00    +0.000 NA
ENDBRANCH   6  28
TORSDOF 5
ENDMDL
MODEL 7
REMARK VINA RESULT:      -7.1      4.225      7.990
REMARK  Name = 
REMARK  7 active torsions:
REMARK  status: ('A' for Active; 'I' for Inactive)
REMARK    1  A    between atoms: C_1  and  O_2
REMARK    2  A    between atoms: O_2  and  C_3
REMARK    3  A    between atoms: C_8  and  C_10
REMARK    4  A    between atoms: C_12  and  C_13
REMARK    5  A    between atoms: C_22  and  C_23
REMARK    6  A    between atoms: C_30  and  O_31
REMARK    7  A    between atoms: O_31  and  C_32
REMARK                            x       y       z     vdW  Elec       q    Type
REMARK                         _______ _______ _______ _____ _____    ______ ____
ROOT
ATOM      1  C   UNL     1      -0.141   9.834  20.156  0.00  0.00    +0.000 A 
ATOM      2  C   UNL     1       0.438   8.585  19.849  0.00  0.00    +0.000 A 
ATOM      3  C   UNL     1       1.427   8.010  20.655  0.00  0.00    +0.000 A 
ATOM      4  C   UNL     1       1.789   8.767  21.767  0.00  0.00    +0.000 A 
ATOM      5  N   UNL     1       1.232   9.951  22.125  0.00  0.00    +0.000 NA
ATOM      6  C   UNL     1       0.239  10.467  21.342  0.00  0.00    +0.000 A 
ENDROOT
BRANCH   1  12
ATOM      7  C   UNL     1      -5.426  12.322  17.351  0.00  0.00    +0.000 A 
ATOM      8  C   UNL     1      -5.380  12.620  18.715  0.00  0.00    +0.000 A 
ATOM      9  C   UNL     1      -4.297  12.200  19.487  0.00  0.00    +0.000 A 
ATOM     10  C   UNL     1      -3.258  11.521  18.866  0.00  0.00    +0.000 A 
ATOM     11  N   UNL     1      -2.183  11.079  19.646  0.00  0.00    +0.000 N 
ATOM     12  C   UNL     1      -1.094  10.381  19.149  0.00  0.00    +0.000 C 
ATOM     13  O   UNL     1      -0.777  10.264  17.970  0.00  0.00    +0.000 OA
ATOM     14  N   UNL     1      -3.279  11.249  17.558  0.00  0.00    +0.000 NA
ATOM     15  C   UNL     1      -4.340  11.632  16.818  0.00  0.00    +0.000 A 
ATOM     16  H   UNL     1      -2.307  11.155  20.643  0.00  0.00    +0.000 HD
BRANCH   7  18
ATOM     17  C   UNL     1      -6.787  14.185  16.811  0.00  0.00    +0.000 C 
ATOM     18  O   UNL     1      -6.540  12.787  16.709  0.00  0.00    +0.000 OA
ENDBRANCH   7  18
BRANCH  15  19
ATOM     19  O   UNL     1      -4.307  11.319  15.476  0.00  0.00    +0.000 OA
ATOM     20  C   UNL     1      -3.303  10.356  15.150  0.00  0.00    +0.000 C 
ENDBRANCH  15  19
ENDBRANCH   1  12
BRANCH   3  21
ATOM     21  C   UNL     1       2.059   6.711  20.341  0.00  0.00    +0.000 A 
ATOM     22  C   UNL     1       3.014   6.571  19.325  0.00  0.00    +0.000 A 
ATOM     23  N   UNL     1       3.614   5.409  18.965  0.00  0.00    +0.000 NA
ATOM     24  C   UNL     1       3.265   4.307  19.666  0.00  0.00    +0.000 A 
ATOM     25  C   UNL     1       2.348   4.322  20.701  0.00  0.00    +0.000 A 
ATOM     26 CL   UNL     1       1.957   2.884  21.551  0.00  0.00    +0.000 Cl
ATOM     27  C   UNL     1       1.740   5.532  21.037  0.00  0.00    +0.000 A 
ENDBRANCH   3  21
BRANCH   6  28
ATOM     28  C   UNL     1      -0.376  11.700  21.880  0.00  0.00    +0.000 A 
ATOM     29  C   UNL     1      -1.358  11.667  22.869  0.00  0.00    +0.000 A 
ATOM     30  C   UNL     1      -1.848  12.866  23.385  0.00  0.00    +0.000 A 
ATOM     31  C   UNL     1      -1.356  14.070  22.900  0.00  0.00    +0.000 A 
ATOM     32  C   UNL     1      -0.399  14.027  21.907  0.00  0.00    +0.000 A 
ATOM     33  N   UNL     1       0.091  12.877  21.395  0.00  0.00    +0.000 NA
ENDBRANCH   6  28
TORSDOF 5
ENDMDL
MODEL 8
REMARK VINA RESULT:      -7.0      5.626     11.342
REMARK  Name = 
REMARK  7 active torsions:
REMARK  status: ('A' for Active; 'I' for Inactive)
REMARK    1  A    between atoms: C_1  and  O_2
REMARK    2  A    between atoms: O_2  and  C_3
REMARK    3  A    between atoms: C_8  and  C_10
REMARK    4  A    between atoms: C_12  and  C_13
REMARK    5  A    between atoms: C_22  and  C_23
REMARK    6  A    between atoms: C_30  and  O_31
REMARK    7  A    between atoms: O_31  and  C_32
REMARK                            x       y       z     vdW  Elec       q    Type
REMARK                         _______ _______ _______ _____ _____    ______ ____
ROOT
ATOM      1  C   UNL     1      -0.659  12.119  20.772  0.00  0.00    +0.000 A 
ATOM      2  C   UNL     1      -2.047  11.925  20.930  0.00  0.00    +0.000 A 
ATOM      3  C   UNL     1      -2.926  12.997  21.125  0.00  0.00    +0.000 A 
ATOM      4  C   UNL     1      -2.322  14.252  21.153  0.00  0.00    +0.000 A 
ATOM      5  N   UNL     1      -0.999  14.490  20.964  0.00  0.00    +0.000 NA
ATOM      6  C   UNL     1      -0.172  13.428  20.734  0.00  0.00    +0.000 A 
ENDROOT
BRANCH   1  12
ATOM      7  C   UNL     1       2.661   7.028  18.524  0.00  0.00    +0.000 A 
ATOM      8  C   UNL     1       2.572   8.045  17.571  0.00  0.00    +0.000 A 
ATOM      9  C   UNL     1       1.924   9.241  17.880  0.00  0.00    +0.000 A 
ATOM     10  C   UNL     1       1.410   9.410  19.158  0.00  0.00    +0.000 A 
ATOM     11  N   UNL     1       0.739  10.600  19.461  0.00  0.00    +0.000 N 
ATOM     12  C   UNL     1       0.172  10.884  20.692  0.00  0.00    +0.000 C 
ATOM     13  O   UNL     1       0.372  10.287  21.745  0.00  0.00    +0.000 OA
ATOM     14  N   UNL     1       1.507   8.453  20.087  0.00  0.00    +0.000 NA
ATOM     15  C   UNL     1       2.110   7.286  19.777  0.00  0.00    +0.000 A 
ATOM     16  H   UNL     1       0.543  11.202  18.677  0.00  0.00    +0.000 HD
BRANCH   7  18
ATOM     17  C   UNL     1       4.447   6.123  17.258  0.00  0.00    +0.000 C 
ATOM     18  O   UNL     1       3.317   5.908  18.095  0.00  0.00    +0.000 OA
ENDBRANCH   7  18
BRANCH  15  19
ATOM     19  O   UNL     1       2.176   6.337  20.774  0.00  0.00    +0.000 OA
ATOM     20  C   UNL     1       1.326   5.214  20.534  0.00  0.00    +0.000 C 
ENDBRANCH  15  19
ENDBRANCH   1  12
BRANCH   3  21
ATOM     21  C   UNL     1      -4.381  12.814  21.311  0.00  0.00    +0.000 A 
ATOM     22  C   UNL     1      -5.225  12.426  20.262  0.00  0.00    +0.000 A 
ATOM     23  N   UNL     1      -6.569  12.265  20.353  0.00  0.00    +0.000 NA
ATOM     24  C   UNL     1      -7.122  12.483  21.567  0.00  0.00    +0.000 A 
ATOM     25  C   UNL     1      -6.391  12.853  22.681  0.00  0.00    +0.000 A 
ATOM     26 CL   UNL     1      -7.160  13.107  24.194  0.00  0.00    +0.000 Cl
ATOM     27  C   UNL     1      -5.013  13.022  22.549  0.00  0.00    +0.000 A 
ENDBRANCH   3  21
BRANCH   6  28
ATOM     28  C   UNL     1       1.225  13.805  20.431  0.00  0.00    +0.000 A 
ATOM     29  C   UNL     1       1.629  14.184  19.151  0.00  0.00    +0.000 A 
ATOM     30  C   UNL     1       2.944  14.595  18.943  0.00  0.00    +0.000 A 
ATOM     31  C   UNL     1       3.831  14.614  20.011  0.00  0.00    +0.000 A 
ATOM     32  C   UNL     1       3.367  14.206  21.246  0.00  0.00    +0.000 A 
ATOM     33  N   UNL     1       2.097  13.806  21.469  0.00  0.00    +0.000 NA
ENDBRANCH   6  28
TORSDOF 5
ENDMDL
MODEL 9
REMARK VINA RESULT:      -7.0      5.002      9.190
REMARK  Name = 
REMARK  7 active torsions:
REMARK  status: ('A' for Active; 'I' for Inactive)
REMARK    1  A    between atoms: C_1  and  O_2
REMARK    2  A    between atoms: O_2  and  C_3
REMARK    3  A    between atoms: C_8  and  C_10
REMARK    4  A    between atoms: C_12  and  C_13
REMARK    5  A    between atoms: C_22  and  C_23
REMARK    6  A    between atoms: C_30  and  O_31
REMARK    7  A    between atoms: O_31  and  C_32
REMARK                            x       y       z     vdW  Elec       q    Type
REMARK                         _______ _______ _______ _____ _____    ______ ____
ROOT
ATOM      1  C   UNL     1       1.412  12.524  18.662  0.00  0.00    +0.000 A 
ATOM      2  C   UNL     1       2.612  13.258  18.760  0.00  0.00    +0.000 A 
ATOM      3  C   UNL     1       2.625  14.658  18.757  0.00  0.00    +0.000 A 
ATOM      4  C   UNL     1       1.372  15.254  18.648  0.00  0.00    +0.000 A 
ATOM      5  N   UNL     1       0.189  14.591  18.594  0.00  0.00    +0.000 NA
ATOM      6  C   UNL     1       0.204  13.226  18.641  0.00  0.00    +0.000 A 
ENDROOT
BRANCH   1  12
ATOM      7  C   UNL     1       1.993   6.241  20.140  0.00  0.00    +0.000 A 
ATOM      8  C   UNL     1       1.372   6.955  21.167  0.00  0.00    +0.000 A 
ATOM      9  C   UNL     1       1.124   8.320  21.021  0.00  0.00    +0.000 A 
ATOM     10  C   UNL     1       1.470   8.937  19.827  0.00  0.00    +0.000 A 
ATOM     11  N   UNL     1       1.243  10.311  19.690  0.00  0.00    +0.000 N 
ATOM     12  C   UNL     1       1.554  11.044  18.556  0.00  0.00    +0.000 C 
ATOM     13  O   UNL     1       1.826  10.595  17.448  0.00  0.00    +0.000 OA
ATOM     14  N   UNL     1       2.045   8.261  18.827  0.00  0.00    +0.000 NA
ATOM     15  C   UNL     1       2.309   6.946  18.981  0.00  0.00    +0.000 A 
ATOM     16  H   UNL     1       0.976  10.795  20.532  0.00  0.00    +0.000 HD
BRANCH   7  18
ATOM     17  C   UNL     1       1.307   4.008  19.745  0.00  0.00    +0.000 C 
ATOM     18  O   UNL     1       2.182   4.914  20.409  0.00  0.00    +0.000 OA
ENDBRANCH   7  18
BRANCH  15  19
ATOM     19  O   UNL     1       2.906   6.304  17.918  0.00  0.00    +0.000 OA
ATOM     20  C   UNL     1       4.323   6.479  17.884  0.00  0.00    +0.000 C 
ENDBRANCH  15  19
ENDBRANCH   1  12
BRANCH   3  21
ATOM     21  C   UNL     1       3.873  15.445  18.840  0.00  0.00    +0.000 A 
ATOM     22  C   UNL     1       3.915  16.719  19.423  0.00  0.00    +0.000 A 
ATOM     23  N   UNL     1       5.016  17.507  19.510  0.00  0.00    +0.000 NA
ATOM     24  C   UNL     1       6.162  17.001  19.003  0.00  0.00    +0.000 A 
ATOM     25  C   UNL     1       6.249  15.751  18.419  0.00  0.00    +0.000 A 
ATOM     26 CL   UNL     1       7.742  15.170  17.802  0.00  0.00    +0.000 Cl
ATOM     27  C   UNL     1       5.096  14.971  18.335  0.00  0.00    +0.000 A 
ENDBRANCH   3  21
BRANCH   6  28
ATOM     28  C   UNL     1      -1.138  12.608  18.689  0.00  0.00    +0.000 A 
ATOM     29  C   UNL     1      -1.974  12.738  19.797  0.00  0.00    +0.000 A 
ATOM     30  C   UNL     1      -3.256  12.191  19.754  0.00  0.00    +0.000 A 
ATOM     31  C   UNL     1      -3.674  11.520  18.614  0.00  0.00    +0.000 A 
ATOM     32  C   UNL     1      -2.786  11.412  17.562  0.00  0.00    +0.000 A 
ATOM     33  N   UNL     1      -1.541  11.936  17.583  0.00  0.00    +0.000 NA
ENDBRANCH   6  28
TORSDOF 5
ENDMDL
