MODEL 1
REMARK VINA RESULT:      -7.6      0.000      0.000
REMARK  Name = 
REMARK  9 active torsions:
REMARK  status: ('A' for Active; 'I' for Inactive)
REMARK    1  A    between atoms: C_1  and  O_2
REMARK    2  A    between atoms: O_2  and  C_3
REMARK    3  A    between atoms: C_8  and  C_9
REMARK    4  A    between atoms: C_10  and  C_11
REMARK    5  A    between atoms: C_18  and  C_19
REMARK    6  A    between atoms: C_22  and  S_23
REMARK    7  A    between atoms: S_23  and  C_24
REMARK    8  A    between atoms: C_27  and  C_28
REMARK    9  A    between atoms: N_29  and  C_30
REMARK                            x       y       z     vdW  Elec       q    Type
REMARK                         _______ _______ _______ _____ _____    ______ ____
ROOT
ATOM      1  C   UNL     1      -1.095  12.020  19.963  0.00  0.00    +0.000 A 
ATOM      2  C   UNL     1      -1.824  11.310  19.012  0.00  0.00    +0.000 A 
ATOM      3  N   UNL     1      -1.137  10.189  18.602  0.00  0.00    +0.000 NA
ATOM      4  C   UNL     1       0.031  10.185  19.224  0.00  0.00    +0.000 A 
ATOM      5  N   UNL     1       0.112  11.314  20.033  0.00  0.00    +0.000 N 
ATOM      6  C   UNL     1       1.255  11.711  20.831  0.00  0.00    +0.000 C 
ENDROOT
BRANCH   1  12
ATOM      7  C   UNL     1      -3.097  16.382  24.394  0.00  0.00    +0.000 A 
ATOM      8  C   UNL     1      -3.370  15.088  24.833  0.00  0.00    +0.000 A 
ATOM      9  C   UNL     1      -2.970  13.993  24.070  0.00  0.00    +0.000 A 
ATOM     10  C   UNL     1      -2.328  14.179  22.841  0.00  0.00    +0.000 A 
ATOM     11  C   UNL     1      -1.918  13.077  22.086  0.00  0.00    +0.000 A 
ATOM     12  C   UNL     1      -1.437  13.207  20.776  0.00  0.00    +0.000 A 
ATOM     13  C   UNL     1      -1.268  14.507  20.282  0.00  0.00    +0.000 A 
ATOM     14  C   UNL     1      -1.538  15.628  21.078  0.00  0.00    +0.000 A 
ATOM     15  C   UNL     1      -2.099  15.478  22.355  0.00  0.00    +0.000 A 
ATOM     16  C   UNL     1      -2.454  16.572  23.163  0.00  0.00    +0.000 A 
BRANCH   7  18
ATOM     17  C   UNL     1      -4.797  17.758  25.305  0.00  0.00    +0.000 C 
ATOM     18  O   UNL     1      -3.414  17.531  25.066  0.00  0.00    +0.000 OA
ENDBRANCH   7  18
ENDBRANCH   1  12
BRANCH   4  19
ATOM     19  C   UNL     1       1.087   9.157  19.024  0.00  0.00    +0.000 A 
ATOM     20  C   UNL     1       1.830   9.122  17.829  0.00  0.00    +0.000 A 
ATOM     21  C   UNL     1       2.730   8.090  17.544  0.00  0.00    +0.000 A 
ATOM     22  C   UNL     1       3.002   7.114  18.495  0.00  0.00    +0.000 A 
ATOM     23  C   UNL     1       2.366   7.197  19.737  0.00  0.00    +0.000 A 
ATOM     24  C   UNL     1       1.395   8.189  20.007  0.00  0.00    +0.000 A 
ATOM     25  C   UNL     1       0.726   8.167  21.357  0.00  0.00    +0.000 C 
BRANCH  22  26
ATOM     26  S   UNL     1       4.233   5.835  18.148  0.00  0.00    +0.000 S 
ATOM     27  C   UNL     1       5.356   6.799  17.104  0.00  0.00    +0.000 C 
ATOM     28  O   UNL     1       4.986   5.546  19.498  0.00  0.00    +0.000 OA
ENDBRANCH  22  26
ENDBRANCH   4  19
BRANCH   2  29
ATOM     29  C   UNL     1      -3.156  11.620  18.494  0.00  0.00    +0.000 A 
ATOM     30  C   UNL     1      -4.162  12.172  19.298  0.00  0.00    +0.000 A 
ATOM     31  C   UNL     1      -5.426  12.354  18.767  0.00  0.00    +0.000 A 
ATOM     32  N   UNL     1      -5.742  12.083  17.488  0.00  0.00    +0.000 NA
ATOM     33  C   UNL     1      -4.748  11.613  16.704  0.00  0.00    +0.000 A 
ATOM     34  C   UNL     1      -3.459  11.364  17.156  0.00  0.00    +0.000 A 
ENDBRANCH   2  29
TORSDOF 5
ENDMDL
MODEL 2
REMARK VINA RESULT:      -7.5      1.183      1.429
REMARK  Name = 
REMARK  9 active torsions:
REMARK  status: ('A' for Active; 'I' for Inactive)
REMARK    1  A    between atoms: C_1  and  O_2
REMARK    2  A    between atoms: O_2  and  C_3
REMARK    3  A    between atoms: C_8  and  C_9
REMARK    4  A    between atoms: C_10  and  C_11
REMARK    5  A    between atoms: C_18  and  C_19
REMARK    6  A    between atoms: C_22  and  S_23
REMARK    7  A    between atoms: S_23  and  C_24
REMARK    8  A    between atoms: C_27  and  C_28
REMARK    9  A    between atoms: N_29  and  C_30
REMARK                            x       y       z     vdW  Elec       q    Type
REMARK                         _______ _______ _______ _____ _____    ______ ____
ROOT
ATOM      1  C   UNL     1      -0.468  11.005  19.627  0.00  0.00    +0.000 A 
ATOM      2  C   UNL     1      -0.982  10.442  18.460  0.00  0.00    +0.000 A 
ATOM      3  N   UNL     1      -0.198   9.391  18.036  0.00  0.00    +0.000 NA
ATOM      4  C   UNL     1       0.828   9.296  18.866  0.00  0.00    +0.000 A 
ATOM      5  N   UNL     1       0.723  10.296  19.828  0.00  0.00    +0.000 N 
ATOM      6  C   UNL     1       1.680  10.572  20.880  0.00  0.00    +0.000 C 
ENDROOT
BRANCH   1  12
ATOM      7  C   UNL     1      -3.382  14.679  24.173  0.00  0.00    +0.000 A 
ATOM      8  C   UNL     1      -3.684  13.334  24.374  0.00  0.00    +0.000 A 
ATOM      9  C   UNL     1      -3.116  12.362  23.554  0.00  0.00    +0.000 A 
ATOM     10  C   UNL     1      -2.271  12.725  22.500  0.00  0.00    +0.000 A 
ATOM     11  C   UNL     1      -1.694  11.744  21.688  0.00  0.00    +0.000 A 
ATOM     12  C   UNL     1      -0.992  12.062  20.519  0.00  0.00    +0.000 A 
ATOM     13  C   UNL     1      -0.782  13.421  20.246  0.00  0.00    +0.000 A 
ATOM     14  C   UNL     1      -1.229  14.416  21.126  0.00  0.00    +0.000 A 
ATOM     15  C   UNL     1      -2.004  14.082  22.247  0.00  0.00    +0.000 A 
ATOM     16  C   UNL     1      -2.536  15.047  23.119  0.00  0.00    +0.000 A 
BRANCH   7  18
ATOM     17  C   UNL     1      -5.015  16.375  24.436  0.00  0.00    +0.000 C 
ATOM     18  O   UNL     1      -3.854  15.719  24.928  0.00  0.00    +0.000 OA
ENDBRANCH   7  18
ENDBRANCH   1  12
BRANCH   4  19
ATOM     19  C   UNL     1       1.930   8.306  18.730  0.00  0.00    +0.000 A 
ATOM     20  C   UNL     1       2.846   8.402  17.666  0.00  0.00    +0.000 A 
ATOM     21  C   UNL     1       3.807   7.416  17.421  0.00  0.00    +0.000 A 
ATOM     22  C   UNL     1       3.959   6.351  18.302  0.00  0.00    +0.000 A 
ATOM     23  C   UNL     1       3.140   6.300  19.434  0.00  0.00    +0.000 A 
ATOM     24  C   UNL     1       2.113   7.247  19.648  0.00  0.00    +0.000 A 
ATOM     25  C   UNL     1       1.247   7.080  20.871  0.00  0.00    +0.000 C 
BRANCH  22  26
ATOM     26  S   UNL     1       5.263   5.129  18.024  0.00  0.00    +0.000 S 
ATOM     27  C   UNL     1       6.471   6.189  17.190  0.00  0.00    +0.000 C 
ATOM     28  O   UNL     1       5.857   4.765  19.433  0.00  0.00    +0.000 OA
ENDBRANCH  22  26
ENDBRANCH   4  19
BRANCH   2  29
ATOM     29  C   UNL     1      -2.198  10.825  17.744  0.00  0.00    +0.000 A 
ATOM     30  C   UNL     1      -3.283  11.436  18.386  0.00  0.00    +0.000 A 
ATOM     31  C   UNL     1      -4.436  11.688  17.667  0.00  0.00    +0.000 A 
ATOM     32  N   UNL     1      -4.565  11.430  16.353  0.00  0.00    +0.000 NA
ATOM     33  C   UNL     1      -3.490  10.902  15.729  0.00  0.00    +0.000 A 
ATOM     34  C   UNL     1      -2.303  10.582  16.375  0.00  0.00    +0.000 A 
ENDBRANCH   2  29
TORSDOF 5
ENDMDL
MODEL 3
REMARK VINA RESULT:      -7.4      4.681      8.610
REMARK  Name = 
REMARK  9 active torsions:
REMARK  status: ('A' for Active; 'I' for Inactive)
REMARK    1  A    between atoms: C_1  and  O_2
REMARK    2  A    between atoms: O_2  and  C_3
REMARK    3  A    between atoms: C_8  and  C_9
REMARK    4  A    between atoms: C_10  and  C_11
REMARK    5  A    between atoms: C_18  and  C_19
REMARK    6  A    between atoms: C_22  and  S_23
REMARK    7  A    between atoms: S_23  and  C_24
REMARK    8  A    between atoms: C_27  and  C_28
REMARK    9  A    between atoms: N_29  and  C_30
REMARK                            x       y       z     vdW  Elec       q    Type
REMARK                         _______ _______ _______ _____ _____    ______ ____
ROOT
ATOM      1  C   UNL     1       0.395  12.606  20.440  0.00  0.00    +0.000 A 
ATOM      2  C   UNL     1       0.014  11.266  20.448  0.00  0.00    +0.000 A 
ATOM      3  N   UNL     1      -1.251  11.119  20.973  0.00  0.00    +0.000 NA
ATOM      4  C   UNL     1      -1.672  12.317  21.346  0.00  0.00    +0.000 A 
ATOM      5  N   UNL     1      -0.673  13.248  21.077  0.00  0.00    +0.000 N 
ATOM      6  C   UNL     1      -0.716  14.661  21.395  0.00  0.00    +0.000 C 
ENDROOT
BRANCH   1  12
ATOM      7  C   UNL     1       6.029  15.692  19.255  0.00  0.00    +0.000 A 
ATOM      8  C   UNL     1       5.878  15.473  20.622  0.00  0.00    +0.000 A 
ATOM      9  C   UNL     1       4.773  14.772  21.098  0.00  0.00    +0.000 A 
ATOM     10  C   UNL     1       3.786  14.316  20.217  0.00  0.00    +0.000 A 
ATOM     11  C   UNL     1       2.685  13.601  20.699  0.00  0.00    +0.000 A 
ATOM     12  C   UNL     1       1.589  13.283  19.887  0.00  0.00    +0.000 A 
ATOM     13  C   UNL     1       1.684  13.606  18.526  0.00  0.00    +0.000 A 
ATOM     14  C   UNL     1       2.841  14.193  17.997  0.00  0.00    +0.000 A 
ATOM     15  C   UNL     1       3.894  14.581  18.841  0.00  0.00    +0.000 A 
ATOM     16  C   UNL     1       5.043  15.237  18.369  0.00  0.00    +0.000 A 
BRANCH   7  18
ATOM     17  C   UNL     1       7.956  15.539  17.885  0.00  0.00    +0.000 C 
ATOM     18  O   UNL     1       7.081  16.341  18.667  0.00  0.00    +0.000 OA
ENDBRANCH   7  18
ENDBRANCH   1  12
BRANCH   4  19
ATOM     19  C   UNL     1      -2.982  12.583  21.999  0.00  0.00    +0.000 A 
ATOM     20  C   UNL     1      -3.068  12.704  23.398  0.00  0.00    +0.000 A 
ATOM     21  C   UNL     1      -4.296  12.813  24.060  0.00  0.00    +0.000 A 
ATOM     22  C   UNL     1      -5.477  12.915  23.335  0.00  0.00    +0.000 A 
ATOM     23  C   UNL     1      -5.404  12.919  21.938  0.00  0.00    +0.000 A 
ATOM     24  C   UNL     1      -4.178  12.730  21.261  0.00  0.00    +0.000 A 
ATOM     25  C   UNL     1      -4.207  12.697  19.754  0.00  0.00    +0.000 C 
BRANCH  22  26
ATOM     26  S   UNL     1      -7.049  13.144  24.199  0.00  0.00    +0.000 S 
ATOM     27  C   UNL     1      -7.733  14.486  23.195  0.00  0.00    +0.000 C 
ATOM     28  O   UNL     1      -7.916  11.863  23.917  0.00  0.00    +0.000 OA
ENDBRANCH  22  26
ENDBRANCH   4  19
BRANCH   2  29
ATOM     29  C   UNL     1       0.773  10.119  19.953  0.00  0.00    +0.000 A 
ATOM     30  C   UNL     1       1.196  10.019  18.621  0.00  0.00    +0.000 A 
ATOM     31  C   UNL     1       1.830   8.865  18.200  0.00  0.00    +0.000 A 
ATOM     32  N   UNL     1       2.121   7.835  19.015  0.00  0.00    +0.000 NA
ATOM     33  C   UNL     1       1.767   7.969  20.312  0.00  0.00    +0.000 A 
ATOM     34  C   UNL     1       1.097   9.074  20.819  0.00  0.00    +0.000 A 
ENDBRANCH   2  29
TORSDOF 5
ENDMDL
MODEL 4
REMARK VINA RESULT:      -7.2      0.843      1.227
REMARK  Name = 
REMARK  9 active torsions:
REMARK  status: ('A' for Active; 'I' for Inactive)
REMARK    1  A    between atoms: C_1  and  O_2
REMARK    2  A    between atoms: O_2  and  C_3
REMARK    3  A    between atoms: C_8  and  C_9
REMARK    4  A    between atoms: C_10  and  C_11
REMARK    5  A    between atoms: C_18  and  C_19
REMARK    6  A    between atoms: C_22  and  S_23
REMARK    7  A    between atoms: S_23  and  C_24
REMARK    8  A    between atoms: C_27  and  C_28
REMARK    9  A    between atoms: N_29  and  C_30
REMARK                            x       y       z     vdW  Elec       q    Type
REMARK                         _______ _______ _______ _____ _____    ______ ____
ROOT
ATOM      1  C   UNL     1      -1.103  12.157  19.905  0.00  0.00    +0.000 A 
ATOM      2  C   UNL     1      -1.872  11.387  19.034  0.00  0.00    +0.000 A 
ATOM      3  N   UNL     1      -1.198  10.245  18.663  0.00  0.00    +0.000 NA
ATOM      4  C   UNL     1      -0.003  10.283  19.229  0.00  0.00    +0.000 A 
ATOM      5  N   UNL     1       0.110  11.460  19.962  0.00  0.00    +0.000 N 
ATOM      6  C   UNL     1       1.287  11.909  20.679  0.00  0.00    +0.000 C 
ENDROOT
BRANCH   1  12
ATOM      7  C   UNL     1      -2.968  16.784  24.121  0.00  0.00    +0.000 A 
ATOM      8  C   UNL     1      -3.256  15.521  24.633  0.00  0.00    +0.000 A 
ATOM      9  C   UNL     1      -2.886  14.380  23.925  0.00  0.00    +0.000 A 
ATOM     10  C   UNL     1      -2.259  14.488  22.679  0.00  0.00    +0.000 A 
ATOM     11  C   UNL     1      -1.877  13.340  21.978  0.00  0.00    +0.000 A 
ATOM     12  C   UNL     1      -1.414  13.391  20.658  0.00  0.00    +0.000 A 
ATOM     13  C   UNL     1      -1.230  14.660  20.091  0.00  0.00    +0.000 A 
ATOM     14  C   UNL     1      -1.470  15.827  20.830  0.00  0.00    +0.000 A 
ATOM     15  C   UNL     1      -2.015  15.755  22.121  0.00  0.00    +0.000 A 
ATOM     16  C   UNL     1      -2.339  16.896  22.874  0.00  0.00    +0.000 A 
BRANCH   7  18
ATOM     17  C   UNL     1      -2.310  18.430  25.692  0.00  0.00    +0.000 C 
ATOM     18  O   UNL     1      -3.256  17.972  24.735  0.00  0.00    +0.000 OA
ENDBRANCH   7  18
ENDBRANCH   1  12
BRANCH   4  19
ATOM     19  C   UNL     1       1.049   9.247  19.044  0.00  0.00    +0.000 A 
ATOM     20  C   UNL     1       1.798   9.197  17.854  0.00  0.00    +0.000 A 
ATOM     21  C   UNL     1       2.694   8.158  17.583  0.00  0.00    +0.000 A 
ATOM     22  C   UNL     1       2.955   7.188  18.545  0.00  0.00    +0.000 A 
ATOM     23  C   UNL     1       2.313   7.287  19.783  0.00  0.00    +0.000 A 
ATOM     24  C   UNL     1       1.346   8.286  20.038  0.00  0.00    +0.000 A 
ATOM     25  C   UNL     1       0.669   8.280  21.385  0.00  0.00    +0.000 C 
BRANCH  22  26
ATOM     26  S   UNL     1       4.181   5.900  18.216  0.00  0.00    +0.000 S 
ATOM     27  C   UNL     1       4.054   4.984  19.773  0.00  0.00    +0.000 C 
ATOM     28  O   UNL     1       3.588   4.982  17.086  0.00  0.00    +0.000 OA
ENDBRANCH  22  26
ENDBRANCH   4  19
BRANCH   2  29
ATOM     29  C   UNL     1      -3.228  11.661  18.561  0.00  0.00    +0.000 A 
ATOM     30  C   UNL     1      -3.619  11.432  17.235  0.00  0.00    +0.000 A 
ATOM     31  C   UNL     1      -4.890  11.799  16.834  0.00  0.00    +0.000 A 
ATOM     32  N   UNL     1      -5.811  12.321  17.664  0.00  0.00    +0.000 NA
ATOM     33  C   UNL     1      -5.446  12.476  18.955  0.00  0.00    +0.000 A 
ATOM     34  C   UNL     1      -4.182  12.170  19.442  0.00  0.00    +0.000 A 
ENDBRANCH   2  29
TORSDOF 5
ENDMDL
MODEL 5
REMARK VINA RESULT:      -7.1      1.144      1.452
REMARK  Name = 
REMARK  9 active torsions:
REMARK  status: ('A' for Active; 'I' for Inactive)
REMARK    1  A    between atoms: C_1  and  O_2
REMARK    2  A    between atoms: O_2  and  C_3
REMARK    3  A    between atoms: C_8  and  C_9
REMARK    4  A    between atoms: C_10  and  C_11
REMARK    5  A    between atoms: C_18  and  C_19
REMARK    6  A    between atoms: C_22  and  S_23
REMARK    7  A    between atoms: S_23  and  C_24
REMARK    8  A    between atoms: C_27  and  C_28
REMARK    9  A    between atoms: N_29  and  C_30
REMARK                            x       y       z     vdW  Elec       q    Type
REMARK                         _______ _______ _______ _____ _____    ______ ____
ROOT
ATOM      1  C   UNL     1      -0.832  11.355  19.722  0.00  0.00    +0.000 A 
ATOM      2  C   UNL     1      -1.396  10.734  18.609  0.00  0.00    +0.000 A 
ATOM      3  N   UNL     1      -0.610   9.687  18.180  0.00  0.00    +0.000 NA
ATOM      4  C   UNL     1       0.463   9.649  18.953  0.00  0.00    +0.000 A 
ATOM      5  N   UNL     1       0.386  10.683  19.881  0.00  0.00    +0.000 N 
ATOM      6  C   UNL     1       1.393  11.023  20.865  0.00  0.00    +0.000 C 
ENDROOT
BRANCH   1  12
ATOM      7  C   UNL     1      -3.568  15.131  24.297  0.00  0.00    +0.000 A 
ATOM      8  C   UNL     1      -3.808  13.786  24.574  0.00  0.00    +0.000 A 
ATOM      9  C   UNL     1      -3.262  12.798  23.759  0.00  0.00    +0.000 A 
ATOM     10  C   UNL     1      -2.501  13.141  22.635  0.00  0.00    +0.000 A 
ATOM     11  C   UNL     1      -1.945  12.144  21.828  0.00  0.00    +0.000 A 
ATOM     12  C   UNL     1      -1.333  12.433  20.602  0.00  0.00    +0.000 A 
ATOM     13  C   UNL     1      -1.190  13.784  20.259  0.00  0.00    +0.000 A 
ATOM     14  C   UNL     1      -1.613  14.803  21.124  0.00  0.00    +0.000 A 
ATOM     15  C   UNL     1      -2.300  14.493  22.308  0.00  0.00    +0.000 A 
ATOM     16  C   UNL     1      -2.806  15.478  23.173  0.00  0.00    +0.000 A 
BRANCH   7  18
ATOM     17  C   UNL     1      -4.449  17.330  24.305  0.00  0.00    +0.000 C 
ATOM     18  O   UNL     1      -4.025  16.187  25.037  0.00  0.00    +0.000 OA
ENDBRANCH   7  18
ENDBRANCH   1  12
BRANCH   4  19
ATOM     19  C   UNL     1       1.582   8.682  18.791  0.00  0.00    +0.000 A 
ATOM     20  C   UNL     1       2.426   8.751  17.667  0.00  0.00    +0.000 A 
ATOM     21  C   UNL     1       3.397   7.779  17.406  0.00  0.00    +0.000 A 
ATOM     22  C   UNL     1       3.634   6.761  18.323  0.00  0.00    +0.000 A 
ATOM     23  C   UNL     1       2.890   6.742  19.507  0.00  0.00    +0.000 A 
ATOM     24  C   UNL     1       1.851   7.673  19.743  0.00  0.00    +0.000 A 
ATOM     25  C   UNL     1       1.070   7.541  21.025  0.00  0.00    +0.000 C 
BRANCH  22  26
ATOM     26  S   UNL     1       4.952   5.560  18.017  0.00  0.00    +0.000 S 
ATOM     27  C   UNL     1       4.278   4.158  18.944  0.00  0.00    +0.000 C 
ATOM     28  O   UNL     1       4.884   5.186  16.492  0.00  0.00    +0.000 OA
ENDBRANCH  22  26
ENDBRANCH   4  19
BRANCH   2  29
ATOM     29  C   UNL     1      -2.660  11.060  17.950  0.00  0.00    +0.000 A 
ATOM     30  C   UNL     1      -2.850  10.892  16.572  0.00  0.00    +0.000 A 
ATOM     31  C   UNL     1      -4.039  11.306  16.000  0.00  0.00    +0.000 A 
ATOM     32  N   UNL     1      -5.065  11.818  16.704  0.00  0.00    +0.000 NA
ATOM     33  C   UNL     1      -4.896  11.914  18.040  0.00  0.00    +0.000 A 
ATOM     34  C   UNL     1      -3.726  11.558  18.698  0.00  0.00    +0.000 A 
ENDBRANCH   2  29
TORSDOF 5
ENDMDL
MODEL 6
REMARK VINA RESULT:      -7.0      3.048      9.158
REMARK  Name = 
REMARK  9 active torsions:
REMARK  status: ('A' for Active; 'I' for Inactive)
REMARK    1  A    between atoms: C_1  and  O_2
REMARK    2  A    between atoms: O_2  and  C_3
REMARK    3  A    between atoms: C_8  and  C_9
REMARK    4  A    between atoms: C_10  and  C_11
REMARK    5  A    between atoms: C_18  and  C_19
REMARK    6  A    between atoms: C_22  and  S_23
REMARK    7  A    between atoms: S_23  and  C_24
REMARK    8  A    between atoms: C_27  and  C_28
REMARK    9  A    between atoms: N_29  and  C_30
REMARK                            x       y       z     vdW  Elec       q    Type
REMARK                         _______ _______ _______ _____ _____    ______ ____
ROOT
ATOM      1  C   UNL     1      -1.294  11.400  20.305  0.00  0.00    +0.000 A 
ATOM      2  C   UNL     1      -2.285  11.861  19.441  0.00  0.00    +0.000 A 
ATOM      3  N   UNL     1      -2.831  13.038  19.903  0.00  0.00    +0.000 NA
ATOM      4  C   UNL     1      -2.256  13.319  21.061  0.00  0.00    +0.000 A 
ATOM      5  N   UNL     1      -1.341  12.316  21.364  0.00  0.00    +0.000 N 
ATOM      6  C   UNL     1      -0.550  12.219  22.574  0.00  0.00    +0.000 C 
ENDROOT
BRANCH   1  12
ATOM      7  C   UNL     1       3.140   6.891  18.671  0.00  0.00    +0.000 A 
ATOM      8  C   UNL     1       3.025   7.842  17.660  0.00  0.00    +0.000 A 
ATOM      9  C   UNL     1       2.177   8.935  17.824  0.00  0.00    +0.000 A 
ATOM     10  C   UNL     1       1.406   9.070  18.984  0.00  0.00    +0.000 A 
ATOM     11  C   UNL     1       0.567  10.176  19.149  0.00  0.00    +0.000 A 
ATOM     12  C   UNL     1      -0.352  10.264  20.202  0.00  0.00    +0.000 A 
ATOM     13  C   UNL     1      -0.323   9.247  21.166  0.00  0.00    +0.000 A 
ATOM     14  C   UNL     1       0.612   8.205  21.094  0.00  0.00    +0.000 A 
ATOM     15  C   UNL     1       1.467   8.088  19.988  0.00  0.00    +0.000 A 
ATOM     16  C   UNL     1       2.370   7.023  19.834  0.00  0.00    +0.000 A 
BRANCH   7  18
ATOM     17  C   UNL     1       4.428   5.400  17.355  0.00  0.00    +0.000 C 
ATOM     18  O   UNL     1       3.957   5.793  18.637  0.00  0.00    +0.000 OA
ENDBRANCH   7  18
ENDBRANCH   1  12
BRANCH   4  19
ATOM     19  C   UNL     1      -2.598  14.494  21.907  0.00  0.00    +0.000 A 
ATOM     20  C   UNL     1      -1.939  15.722  21.718  0.00  0.00    +0.000 A 
ATOM     21  C   UNL     1      -2.128  16.808  22.581  0.00  0.00    +0.000 A 
ATOM     22  C   UNL     1      -3.070  16.737  23.600  0.00  0.00    +0.000 A 
ATOM     23  C   UNL     1      -3.825  15.568  23.731  0.00  0.00    +0.000 A 
ATOM     24  C   UNL     1      -3.586  14.437  22.916  0.00  0.00    +0.000 A 
ATOM     25  C   UNL     1      -4.416  13.204  23.166  0.00  0.00    +0.000 C 
BRANCH  22  26
ATOM     26  S   UNL     1      -3.369  18.177  24.653  0.00  0.00    +0.000 S 
ATOM     27  C   UNL     1      -4.995  17.719  25.305  0.00  0.00    +0.000 C 
ATOM     28  O   UNL     1      -2.347  18.091  25.845  0.00  0.00    +0.000 OA
ENDBRANCH  22  26
ENDBRANCH   4  19
BRANCH   2  29
ATOM     29  C   UNL     1      -2.719  11.261  18.180  0.00  0.00    +0.000 A 
ATOM     30  C   UNL     1      -1.945  10.314  17.496  0.00  0.00    +0.000 A 
ATOM     31  C   UNL     1      -2.373   9.857  16.264  0.00  0.00    +0.000 A 
ATOM     32  N   UNL     1      -3.534  10.229  15.694  0.00  0.00    +0.000 NA
ATOM     33  C   UNL     1      -4.303  11.093  16.391  0.00  0.00    +0.000 A 
ATOM     34  C   UNL     1      -3.940  11.632  17.618  0.00  0.00    +0.000 A 
ENDBRANCH   2  29
TORSDOF 5
ENDMDL
MODEL 7
REMARK VINA RESULT:      -7.0      2.926      8.964
REMARK  Name = 
REMARK  9 active torsions:
REMARK  status: ('A' for Active; 'I' for Inactive)
REMARK    1  A    between atoms: C_1  and  O_2
REMARK    2  A    between atoms: O_2  and  C_3
REMARK    3  A    between atoms: C_8  and  C_9
REMARK    4  A    between atoms: C_10  and  C_11
REMARK    5  A    between atoms: C_18  and  C_19
REMARK    6  A    between atoms: C_22  and  S_23
REMARK    7  A    between atoms: S_23  and  C_24
REMARK    8  A    between atoms: C_27  and  C_28
REMARK    9  A    between atoms: N_29  and  C_30
REMARK                            x       y       z     vdW  Elec       q    Type
REMARK                         _______ _______ _______ _____ _____    ______ ____
ROOT
ATOM      1  C   UNL     1      -0.460  11.030  19.688  0.00  0.00    +0.000 A 
ATOM      2  C   UNL     1      -1.656  11.483  19.134  0.00  0.00    +0.000 A 
ATOM      3  N   UNL     1      -2.153  12.551  19.846  0.00  0.00    +0.000 NA
ATOM      4  C   UNL     1      -1.341  12.765  20.868  0.00  0.00    +0.000 A 
ATOM      5  N   UNL     1      -0.316  11.825  20.831  0.00  0.00    +0.000 N 
ATOM      6  C   UNL     1       0.744  11.679  21.809  0.00  0.00    +0.000 C 
ENDROOT
BRANCH   1  12
ATOM      7  C   UNL     1       3.490   5.900  18.825  0.00  0.00    +0.000 A 
ATOM      8  C   UNL     1       2.791   5.774  20.024  0.00  0.00    +0.000 A 
ATOM      9  C   UNL     1       1.842   6.729  20.382  0.00  0.00    +0.000 A 
ATOM     10  C   UNL     1       1.608   7.841  19.565  0.00  0.00    +0.000 A 
ATOM     11  C   UNL     1       0.645   8.789  19.922  0.00  0.00    +0.000 A 
ATOM     12  C   UNL     1       0.503  10.002  19.237  0.00  0.00    +0.000 A 
ATOM     13  C   UNL     1       1.288  10.187  18.091  0.00  0.00    +0.000 A 
ATOM     14  C   UNL     1       2.155   9.185  17.634  0.00  0.00    +0.000 A 
ATOM     15  C   UNL     1       2.347   8.013  18.382  0.00  0.00    +0.000 A 
ATOM     16  C   UNL     1       3.258   7.012  18.004  0.00  0.00    +0.000 A 
BRANCH   7  18
ATOM     17  C   UNL     1       3.977   3.679  18.159  0.00  0.00    +0.000 C 
ATOM     18  O   UNL     1       4.422   5.015  18.355  0.00  0.00    +0.000 OA
ENDBRANCH   7  18
ENDBRANCH   1  12
BRANCH   4  19
ATOM     19  C   UNL     1      -1.550  13.812  21.905  0.00  0.00    +0.000 A 
ATOM     20  C   UNL     1      -1.022  15.104  21.728  0.00  0.00    +0.000 A 
ATOM     21  C   UNL     1      -1.074  16.073  22.736  0.00  0.00    +0.000 A 
ATOM     22  C   UNL     1      -1.755  15.816  23.920  0.00  0.00    +0.000 A 
ATOM     23  C   UNL     1      -2.392  14.580  24.069  0.00  0.00    +0.000 A 
ATOM     24  C   UNL     1      -2.278  13.566  23.090  0.00  0.00    +0.000 A 
ATOM     25  C   UNL     1      -2.957  12.248  23.364  0.00  0.00    +0.000 C 
BRANCH  22  26
ATOM     26  S   UNL     1      -1.890  17.106  25.180  0.00  0.00    +0.000 S 
ATOM     27  C   UNL     1      -3.694  17.251  25.246  0.00  0.00    +0.000 C 
ATOM     28  O   UNL     1      -1.424  16.469  26.540  0.00  0.00    +0.000 OA
ENDBRANCH  22  26
ENDBRANCH   4  19
BRANCH   2  29
ATOM     29  C   UNL     1      -2.335  10.978  17.941  0.00  0.00    +0.000 A 
ATOM     30  C   UNL     1      -1.781   9.977  17.132  0.00  0.00    +0.000 A 
ATOM     31  C   UNL     1      -2.435   9.611  15.970  0.00  0.00    +0.000 A 
ATOM     32  N   UNL     1      -3.618  10.126  15.588  0.00  0.00    +0.000 NA
ATOM     33  C   UNL     1      -4.175  11.042  16.409  0.00  0.00    +0.000 A 
ATOM     34  C   UNL     1      -3.577  11.497  17.577  0.00  0.00    +0.000 A 
ENDBRANCH   2  29
TORSDOF 5
ENDMDL
MODEL 8
REMARK VINA RESULT:      -7.0      1.284      1.557
REMARK  Name = 
REMARK  9 active torsions:
REMARK  status: ('A' for Active; 'I' for Inactive)
REMARK    1  A    between atoms: C_1  and  O_2
REMARK    2  A    between atoms: O_2  and  C_3
REMARK    3  A    between atoms: C_8  and  C_9
REMARK    4  A    between atoms: C_10  and  C_11
REMARK    5  A    between atoms: C_18  and  C_19
REMARK    6  A    between atoms: C_22  and  S_23
REMARK    7  A    between atoms: S_23  and  C_24
REMARK    8  A    between atoms: C_27  and  C_28
REMARK    9  A    between atoms: N_29  and  C_30
REMARK                            x       y       z     vdW  Elec       q    Type
REMARK                         _______ _______ _______ _____ _____    ______ ____
ROOT
ATOM      1  C   UNL     1      -0.384  11.771  19.005  0.00  0.00    +0.000 A 
ATOM      2  C   UNL     1      -1.149  10.899  18.232  0.00  0.00    +0.000 A 
ATOM      3  N   UNL     1      -0.524   9.678  18.106  0.00  0.00    +0.000 NA
ATOM      4  C   UNL     1       0.639   9.756  18.732  0.00  0.00    +0.000 A 
ATOM      5  N   UNL     1       0.781  11.037  19.257  0.00  0.00    +0.000 N 
ATOM      6  C   UNL     1       1.941  11.547  19.960  0.00  0.00    +0.000 C 
ENDROOT
BRANCH   1  12
ATOM      7  C   UNL     1      -2.308  17.152  22.168  0.00  0.00    +0.000 A 
ATOM      8  C   UNL     1      -2.797  16.015  22.809  0.00  0.00    +0.000 A 
ATOM      9  C   UNL     1      -2.457  14.749  22.339  0.00  0.00    +0.000 A 
ATOM     10  C   UNL     1      -1.656  14.604  21.201  0.00  0.00    +0.000 A 
ATOM     11  C   UNL     1      -1.306  13.330  20.741  0.00  0.00    +0.000 A 
ATOM     12  C   UNL     1      -0.663  13.131  19.513  0.00  0.00    +0.000 A 
ATOM     13  C   UNL     1      -0.269  14.273  18.803  0.00  0.00    +0.000 A 
ATOM     14  C   UNL     1      -0.482  15.559  19.319  0.00  0.00    +0.000 A 
ATOM     15  C   UNL     1      -1.204  15.740  20.508  0.00  0.00    +0.000 A 
ATOM     16  C   UNL     1      -1.506  17.010  21.028  0.00  0.00    +0.000 A 
BRANCH   7  18
ATOM     17  C   UNL     1      -2.999  18.628  23.888  0.00  0.00    +0.000 C 
ATOM     18  O   UNL     1      -2.550  18.443  22.551  0.00  0.00    +0.000 OA
ENDBRANCH   7  18
ENDBRANCH   1  12
BRANCH   4  19
ATOM     19  C   UNL     1       1.637   8.655  18.795  0.00  0.00    +0.000 A 
ATOM     20  C   UNL     1       2.510   8.422  17.716  0.00  0.00    +0.000 A 
ATOM     21  C   UNL     1       3.363   7.314  17.675  0.00  0.00    +0.000 A 
ATOM     22  C   UNL     1       3.452   6.458  18.767  0.00  0.00    +0.000 A 
ATOM     23  C   UNL     1       2.682   6.738  19.899  0.00  0.00    +0.000 A 
ATOM     24  C   UNL     1       1.758   7.809  19.920  0.00  0.00    +0.000 A 
ATOM     25  C   UNL     1       0.935   8.001  21.168  0.00  0.00    +0.000 C 
BRANCH  22  26
ATOM     26  S   UNL     1       4.622   5.079  18.738  0.00  0.00    +0.000 S 
ATOM     27  C   UNL     1       4.631   4.753  16.957  0.00  0.00    +0.000 C 
ATOM     28  O   UNL     1       6.032   5.667  19.111  0.00  0.00    +0.000 OA
ENDBRANCH  22  26
ENDBRANCH   4  19
BRANCH   2  29
ATOM     29  C   UNL     1      -2.459  11.151  17.633  0.00  0.00    +0.000 A 
ATOM     30  C   UNL     1      -3.552  11.598  18.387  0.00  0.00    +0.000 A 
ATOM     31  C   UNL     1      -4.785  11.728  17.774  0.00  0.00    +0.000 A 
ATOM     32  N   UNL     1      -4.993  11.502  16.465  0.00  0.00    +0.000 NA
ATOM     33  C   UNL     1      -3.918  11.135  15.734  0.00  0.00    +0.000 A 
ATOM     34  C   UNL     1      -2.650  10.945  16.267  0.00  0.00    +0.000 A 
ENDBRANCH   2  29
TORSDOF 5
ENDMDL
MODEL 9
REMARK VINA RESULT:      -6.9      2.757      4.000
REMARK  Name = 
REMARK  9 active torsions:
REMARK  status: ('A' for Active; 'I' for Inactive)
REMARK    1  A    between atoms: C_1  and  O_2
REMARK    2  A    between atoms: O_2  and  C_3
REMARK    3  A    between atoms: C_8  and  C_9
REMARK    4  A    between atoms: C_10  and  C_11
REMARK    5  A    between atoms: C_18  and  C_19
REMARK    6  A    between atoms: C_22  and  S_23
REMARK    7  A    between atoms: S_23  and  C_24
REMARK    8  A    between atoms: C_27  and  C_28
REMARK    9  A    between atoms: N_29  and  C_30
REMARK                            x       y       z     vdW  Elec       q    Type
REMARK                         _______ _______ _______ _____ _____    ______ ____
ROOT
ATOM      1  C   UNL     1      -0.209  10.867  20.966  0.00  0.00    +0.000 A 
ATOM      2  C   UNL     1       0.797  11.379  20.150  0.00  0.00    +0.000 A 
ATOM      3  N   UNL     1       1.567  10.364  19.624  0.00  0.00    +0.000 NA
ATOM      4  C   UNL     1       1.117   9.222  20.119  0.00  0.00    +0.000 A 
ATOM      5  N   UNL     1       0.058   9.492  20.980  0.00  0.00    +0.000 N 
ATOM      6  C   UNL     1      -0.668   8.519  21.770  0.00  0.00    +0.000 C 
ENDROOT
BRANCH   1  12
ATOM      7  C   UNL     1      -5.598  14.066  22.808  0.00  0.00    +0.000 A 
ATOM      8  C   UNL     1      -5.505  14.038  21.419  0.00  0.00    +0.000 A 
ATOM      9  C   UNL     1      -4.461  13.351  20.803  0.00  0.00    +0.000 A 
ATOM     10  C   UNL     1      -3.477  12.717  21.569  0.00  0.00    +0.000 A 
ATOM     11  C   UNL     1      -2.439  12.017  20.945  0.00  0.00    +0.000 A 
ATOM     12  C   UNL     1      -1.339  11.523  21.658  0.00  0.00    +0.000 A 
ATOM     13  C   UNL     1      -1.370  11.651  23.053  0.00  0.00    +0.000 A 
ATOM     14  C   UNL     1      -2.471  12.220  23.708  0.00  0.00    +0.000 A 
ATOM     15  C   UNL     1      -3.523  12.786  22.972  0.00  0.00    +0.000 A 
ATOM     16  C   UNL     1      -4.614  13.431  23.579  0.00  0.00    +0.000 A 
BRANCH   7  18
ATOM     17  C   UNL     1      -7.615  13.838  24.029  0.00  0.00    +0.000 C 
ATOM     18  O   UNL     1      -6.588  14.681  23.525  0.00  0.00    +0.000 OA
ENDBRANCH   7  18
ENDBRANCH   1  12
BRANCH   4  19
ATOM     19  C   UNL     1       1.707   7.888  19.827  0.00  0.00    +0.000 A 
ATOM     20  C   UNL     1       1.590   6.839  20.757  0.00  0.00    +0.000 A 
ATOM     21  C   UNL     1       2.248   5.617  20.586  0.00  0.00    +0.000 A 
ATOM     22  C   UNL     1       2.960   5.361  19.419  0.00  0.00    +0.000 A 
ATOM     23  C   UNL     1       2.989   6.346  18.427  0.00  0.00    +0.000 A 
ATOM     24  C   UNL     1       2.395   7.613  18.623  0.00  0.00    +0.000 A 
ATOM     25  C   UNL     1       2.523   8.628  17.516  0.00  0.00    +0.000 C 
BRANCH  22  26
ATOM     26  S   UNL     1       3.734   3.746  19.171  0.00  0.00    +0.000 S 
ATOM     27  C   UNL     1       3.342   3.511  17.419  0.00  0.00    +0.000 C 
ATOM     28  O   UNL     1       5.287   3.961  19.277  0.00  0.00    +0.000 OA
ENDBRANCH  22  26
ENDBRANCH   4  19
BRANCH   2  29
ATOM     29  C   UNL     1       1.047  12.779  19.812  0.00  0.00    +0.000 A 
ATOM     30  C   UNL     1       2.137  13.491  20.332  0.00  0.00    +0.000 A 
ATOM     31  C   UNL     1       2.261  14.838  20.044  0.00  0.00    +0.000 A 
ATOM     32  N   UNL     1       1.418  15.507  19.237  0.00  0.00    +0.000 NA
ATOM     33  C   UNL     1       0.409  14.796  18.688  0.00  0.00    +0.000 A 
ATOM     34  C   UNL     1       0.184  13.451  18.947  0.00  0.00    +0.000 A 
ENDBRANCH   2  29
TORSDOF 5
ENDMDL
