MODEL 1
REMARK VINA RESULT:      -8.9      0.000      0.000
REMARK  Name = 
REMARK  6 active torsions:
REMARK  status: ('A' for Active; 'I' for Inactive)
REMARK    1  A    between atoms: C_1  and  C_2
REMARK    2  A    between atoms: C_2  and  N_3
REMARK    3  A    between atoms: C_5  and  C_6
REMARK    4  A    between atoms: C_6  and  O_8
REMARK    5  A    between atoms: O_8  and  C_9
REMARK    6  A    between atoms: C_9  and  C_10
REMARK                            x       y       z     vdW  Elec       q    Type
REMARK                         _______ _______ _______ _____ _____    ______ ____
ROOT
ATOM      1  C   UNL     1       2.375   7.342  19.048  0.00  0.00    +0.000 C 
ATOM      2  O   UNL     1       2.146   7.633  20.213  0.00  0.00    +0.000 OA
ENDROOT
BRANCH   1   5
ATOM      3  N   UNL     1       2.299   3.575  18.962  0.00  0.00    +0.000 N 
ATOM      4  N   UNL     1       2.029   4.914  19.269  0.00  0.00    +0.000 NA
ATOM      5  C   UNL     1       2.678   5.851  18.632  0.00  0.00    +0.000 A 
ATOM      6  C   UNL     1       3.721   5.532  17.607  0.00  0.00    +0.000 A 
ATOM      7  C   UNL     1       4.588   6.467  17.025  0.00  0.00    +0.000 A 
ATOM      8  C   UNL     1       5.594   6.064  16.127  0.00  0.00    +0.000 A 
ATOM      9  C   UNL     1       5.738   4.725  15.773  0.00  0.00    +0.000 A 
ATOM     10  C   UNL     1       4.883   3.786  16.330  0.00  0.00    +0.000 A 
ATOM     11  C   UNL     1       3.897   4.192  17.252  0.00  0.00    +0.000 A 
ATOM     12  C   UNL     1       3.107   3.154  17.913  0.00  0.00    +0.000 A 
ATOM     13  O   UNL     1       3.240   1.981  17.569  0.00  0.00    +0.000 OA
BRANCH   3  15
ATOM     14  C   UNL     1       1.321   3.044  21.165  0.00  0.00    +0.000 C 
ATOM     15  C   UNL     1       1.674   2.542  19.778  0.00  0.00    +0.000 C 
ENDBRANCH   3  15
ENDBRANCH   1   5
BRANCH   1  16
ATOM     16  O   UNL     1       2.305   8.220  18.022  0.00  0.00    +0.000 OA
BRANCH  16  17
ATOM     17  C   UNL     1       1.209   9.194  18.035  0.00  0.00    +0.000 C 
BRANCH  17  18
ATOM     18  C   UNL     1       1.550  10.614  18.563  0.00  0.00    +0.000 C 
ATOM     19  O   UNL     1       2.400  11.273  17.943  0.00  0.00    +0.000 OA
ATOM     20  N   UNL     1       0.840  11.228  19.591  0.00  0.00    +0.000 N 
ATOM     21  C   UNL     1       1.042  12.677  19.845  0.00  0.00    +0.000 C 
ATOM     22  C   UNL     1      -0.192  13.151  20.611  0.00  0.00    +0.000 C 
ATOM     23  C   UNL     1      -0.462  11.893  21.376  0.00  0.00    +0.000 A 
ATOM     24  C   UNL     1      -1.091  11.814  22.611  0.00  0.00    +0.000 A 
ATOM     25  C   UNL     1      -1.093  10.583  23.251  0.00  0.00    +0.000 A 
ATOM     26  C   UNL     1      -0.529   9.462  22.616  0.00  0.00    +0.000 A 
ATOM     27  C   UNL     1       0.052   9.543  21.332  0.00  0.00    +0.000 A 
ATOM     28  C   UNL     1       0.108  10.777  20.718  0.00  0.00    +0.000 A 
ENDBRANCH  17  18
ENDBRANCH  16  17
ENDBRANCH   1  16
TORSDOF 5
ENDMDL
MODEL 2
REMARK VINA RESULT:      -8.8      1.489      2.346
REMARK  Name = 
REMARK  6 active torsions:
REMARK  status: ('A' for Active; 'I' for Inactive)
REMARK    1  A    between atoms: C_1  and  C_2
REMARK    2  A    between atoms: C_2  and  N_3
REMARK    3  A    between atoms: C_5  and  C_6
REMARK    4  A    between atoms: C_6  and  O_8
REMARK    5  A    between atoms: O_8  and  C_9
REMARK    6  A    between atoms: C_9  and  C_10
REMARK                            x       y       z     vdW  Elec       q    Type
REMARK                         _______ _______ _______ _____ _____    ______ ____
ROOT
ATOM      1  C   UNL     1       2.214   7.345  18.813  0.00  0.00    +0.000 C 
ATOM      2  O   UNL     1       1.874   8.105  17.917  0.00  0.00    +0.000 OA
ENDROOT
BRANCH   1   5
ATOM      3  N   UNL     1       2.288   3.579  18.941  0.00  0.00    +0.000 N 
ATOM      4  N   UNL     1       1.950   4.921  19.156  0.00  0.00    +0.000 NA
ATOM      5  C   UNL     1       2.596   5.846  18.500  0.00  0.00    +0.000 A 
ATOM      6  C   UNL     1       3.702   5.514  17.548  0.00  0.00    +0.000 A 
ATOM      7  C   UNL     1       4.562   6.451  16.958  0.00  0.00    +0.000 A 
ATOM      8  C   UNL     1       5.629   6.040  16.136  0.00  0.00    +0.000 A 
ATOM      9  C   UNL     1       5.843   4.690  15.869  0.00  0.00    +0.000 A 
ATOM     10  C   UNL     1       4.996   3.749  16.436  0.00  0.00    +0.000 A 
ATOM     11  C   UNL     1       3.949   4.165  17.281  0.00  0.00    +0.000 A 
ATOM     12  C   UNL     1       3.165   3.134  17.961  0.00  0.00    +0.000 A 
ATOM     13  O   UNL     1       3.361   1.950  17.693  0.00  0.00    +0.000 OA
BRANCH   3  15
ATOM     14  C   UNL     1       1.422   3.068  21.196  0.00  0.00    +0.000 C 
ATOM     15  C   UNL     1       1.661   2.569  19.784  0.00  0.00    +0.000 C 
ENDBRANCH   3  15
ENDBRANCH   1   5
BRANCH   1  16
ATOM     16  O   UNL     1       2.379   7.721  20.102  0.00  0.00    +0.000 OA
BRANCH  16  17
ATOM     17  C   UNL     1       1.174   8.022  20.881  0.00  0.00    +0.000 C 
BRANCH  17  18
ATOM     18  C   UNL     1       1.044   9.471  21.424  0.00  0.00    +0.000 C 
ATOM     19  O   UNL     1       1.455   9.697  22.574  0.00  0.00    +0.000 OA
ATOM     20  N   UNL     1       0.637  10.541  20.632  0.00  0.00    +0.000 N 
ATOM     21  C   UNL     1       0.807  11.925  21.142  0.00  0.00    +0.000 C 
ATOM     22  C   UNL     1       0.787  12.836  19.916  0.00  0.00    +0.000 C 
ATOM     23  C   UNL     1      -0.171  12.046  19.081  0.00  0.00    +0.000 A 
ATOM     24  C   UNL     1      -1.012  12.561  18.104  0.00  0.00    +0.000 A 
ATOM     25  C   UNL     1      -1.959  11.707  17.558  0.00  0.00    +0.000 A 
ATOM     26  C   UNL     1      -1.997  10.358  17.954  0.00  0.00    +0.000 A 
ATOM     27  C   UNL     1      -1.094   9.831  18.903  0.00  0.00    +0.000 A 
ATOM     28  C   UNL     1      -0.190  10.691  19.490  0.00  0.00    +0.000 A 
ENDBRANCH  17  18
ENDBRANCH  16  17
ENDBRANCH   1  16
TORSDOF 5
ENDMDL
MODEL 3
REMARK VINA RESULT:      -8.7      2.324      8.362
REMARK  Name = 
REMARK  6 active torsions:
REMARK  status: ('A' for Active; 'I' for Inactive)
REMARK    1  A    between atoms: C_1  and  C_2
REMARK    2  A    between atoms: C_2  and  N_3
REMARK    3  A    between atoms: C_5  and  C_6
REMARK    4  A    between atoms: C_6  and  O_8
REMARK    5  A    between atoms: O_8  and  C_9
REMARK    6  A    between atoms: C_9  and  C_10
REMARK                            x       y       z     vdW  Elec       q    Type
REMARK                         _______ _______ _______ _____ _____    ______ ____
ROOT
ATOM      1  C   UNL     1       1.345   9.460  18.233  0.00  0.00    +0.000 C 
ATOM      2  O   UNL     1       2.152   9.987  17.480  0.00  0.00    +0.000 OA
ENDROOT
BRANCH   1   5
ATOM      3  N   UNL     1      -0.680  11.498  20.672  0.00  0.00    +0.000 N 
ATOM      4  N   UNL     1       0.358  10.788  20.057  0.00  0.00    +0.000 NA
ATOM      5  C   UNL     1       0.164  10.295  18.863  0.00  0.00    +0.000 A 
ATOM      6  C   UNL     1      -1.143  10.445  18.150  0.00  0.00    +0.000 A 
ATOM      7  C   UNL     1      -1.489   9.787  16.961  0.00  0.00    +0.000 A 
ATOM      8  C   UNL     1      -2.774   9.926  16.403  0.00  0.00    +0.000 A 
ATOM      9  C   UNL     1      -3.729  10.741  17.005  0.00  0.00    +0.000 A 
ATOM     10  C   UNL     1      -3.401  11.408  18.176  0.00  0.00    +0.000 A 
ATOM     11  C   UNL     1      -2.123  11.242  18.746  0.00  0.00    +0.000 A 
ATOM     12  C   UNL     1      -1.868  11.858  20.048  0.00  0.00    +0.000 A 
ATOM     13  O   UNL     1      -2.720  12.588  20.550  0.00  0.00    +0.000 OA
BRANCH   3  15
ATOM     14  C   UNL     1      -0.986  10.869  23.039  0.00  0.00    +0.000 C 
ATOM     15  C   UNL     1      -0.500  11.917  22.056  0.00  0.00    +0.000 C 
ENDBRANCH   3  15
ENDBRANCH   1   5
BRANCH   1  16
ATOM     16  O   UNL     1       1.328   8.138  18.518  0.00  0.00    +0.000 OA
BRANCH  16  17
ATOM     17  C   UNL     1       2.095   7.685  19.683  0.00  0.00    +0.000 C 
BRANCH  17  18
ATOM     18  C   UNL     1       2.327   6.155  19.808  0.00  0.00    +0.000 C 
ATOM     19  O   UNL     1       1.865   5.580  20.807  0.00  0.00    +0.000 OA
ATOM     20  N   UNL     1       2.885   5.390  18.788  0.00  0.00    +0.000 N 
ATOM     21  C   UNL     1       2.814   3.909  18.873  0.00  0.00    +0.000 C 
ATOM     22  C   UNL     1       3.001   3.392  17.448  0.00  0.00    +0.000 C 
ATOM     23  C   UNL     1       3.932   4.456  16.956  0.00  0.00    +0.000 A 
ATOM     24  C   UNL     1       4.880   4.305  15.953  0.00  0.00    +0.000 A 
ATOM     25  C   UNL     1       5.774   5.347  15.755  0.00  0.00    +0.000 A 
ATOM     26  C   UNL     1       5.658   6.525  16.515  0.00  0.00    +0.000 A 
ATOM     27  C   UNL     1       4.649   6.690  17.489  0.00  0.00    +0.000 A 
ATOM     28  C   UNL     1       3.795   5.635  17.728  0.00  0.00    +0.000 A 
ENDBRANCH  17  18
ENDBRANCH  16  17
ENDBRANCH   1  16
TORSDOF 5
ENDMDL
MODEL 4
REMARK VINA RESULT:      -8.7      1.643      2.980
REMARK  Name = 
REMARK  6 active torsions:
REMARK  status: ('A' for Active; 'I' for Inactive)
REMARK    1  A    between atoms: C_1  and  C_2
REMARK    2  A    between atoms: C_2  and  N_3
REMARK    3  A    between atoms: C_5  and  C_6
REMARK    4  A    between atoms: C_6  and  O_8
REMARK    5  A    between atoms: O_8  and  C_9
REMARK    6  A    between atoms: C_9  and  C_10
REMARK                            x       y       z     vdW  Elec       q    Type
REMARK                         _______ _______ _______ _____ _____    ______ ____
ROOT
ATOM      1  C   UNL     1       2.507   7.764  18.522  0.00  0.00    +0.000 C 
ATOM      2  O   UNL     1       2.069   7.763  19.664  0.00  0.00    +0.000 OA
ENDROOT
BRANCH   1   5
ATOM      3  N   UNL     1       5.639   6.135  17.204  0.00  0.00    +0.000 N 
ATOM      4  N   UNL     1       4.713   7.074  17.672  0.00  0.00    +0.000 NA
ATOM      5  C   UNL     1       3.533   6.662  18.049  0.00  0.00    +0.000 A 
ATOM      6  C   UNL     1       3.136   5.221  17.967  0.00  0.00    +0.000 A 
ATOM      7  C   UNL     1       1.837   4.734  18.169  0.00  0.00    +0.000 A 
ATOM      8  C   UNL     1       1.538   3.369  17.991  0.00  0.00    +0.000 A 
ATOM      9  C   UNL     1       2.533   2.463  17.634  0.00  0.00    +0.000 A 
ATOM     10  C   UNL     1       3.827   2.926  17.440  0.00  0.00    +0.000 A 
ATOM     11  C   UNL     1       4.112   4.297  17.590  0.00  0.00    +0.000 A 
ATOM     12  C   UNL     1       5.458   4.759  17.247  0.00  0.00    +0.000 A 
ATOM     13  O   UNL     1       6.323   3.936  16.952  0.00  0.00    +0.000 OA
BRANCH   3  15
ATOM     14  C   UNL     1       7.705   7.402  17.676  0.00  0.00    +0.000 C 
ATOM     15  C   UNL     1       6.897   6.625  16.654  0.00  0.00    +0.000 C 
ENDBRANCH   3  15
ENDBRANCH   1   5
BRANCH   1  16
ATOM     16  O   UNL     1       2.102   8.622  17.558  0.00  0.00    +0.000 OA
BRANCH  16  17
ATOM     17  C   UNL     1       1.052   9.585  17.903  0.00  0.00    +0.000 C 
BRANCH  17  18
ATOM     18  C   UNL     1       1.515  10.895  18.597  0.00  0.00    +0.000 C 
ATOM     19  O   UNL     1       2.408  11.558  18.045  0.00  0.00    +0.000 OA
ATOM     20  N   UNL     1       0.871  11.428  19.710  0.00  0.00    +0.000 N 
ATOM     21  C   UNL     1       1.193  12.812  20.139  0.00  0.00    +0.000 C 
ATOM     22  C   UNL     1       0.012  13.281  20.987  0.00  0.00    +0.000 C 
ATOM     23  C   UNL     1      -0.349  11.961  21.595  0.00  0.00    +0.000 A 
ATOM     24  C   UNL     1      -0.966  11.776  22.824  0.00  0.00    +0.000 A 
ATOM     25  C   UNL     1      -1.061  10.477  23.304  0.00  0.00    +0.000 A 
ATOM     26  C   UNL     1      -0.598   9.405  22.520  0.00  0.00    +0.000 A 
ATOM     27  C   UNL     1      -0.029   9.602  21.243  0.00  0.00    +0.000 A 
ATOM     28  C   UNL     1       0.119  10.896  20.789  0.00  0.00    +0.000 A 
ENDBRANCH  17  18
ENDBRANCH  16  17
ENDBRANCH   1  16
TORSDOF 5
ENDMDL
MODEL 5
REMARK VINA RESULT:      -8.6      2.593      3.978
REMARK  Name = 
REMARK  6 active torsions:
REMARK  status: ('A' for Active; 'I' for Inactive)
REMARK    1  A    between atoms: C_1  and  C_2
REMARK    2  A    between atoms: C_2  and  N_3
REMARK    3  A    between atoms: C_5  and  C_6
REMARK    4  A    between atoms: C_6  and  O_8
REMARK    5  A    between atoms: O_8  and  C_9
REMARK    6  A    between atoms: C_9  and  C_10
REMARK                            x       y       z     vdW  Elec       q    Type
REMARK                         _______ _______ _______ _____ _____    ______ ____
ROOT
ATOM      1  C   UNL     1       2.265   7.531  18.966  0.00  0.00    +0.000 C 
ATOM      2  O   UNL     1       2.061   7.519  20.171  0.00  0.00    +0.000 OA
ENDROOT
BRANCH   1   5
ATOM      3  N   UNL     1       5.278   6.135  17.185  0.00  0.00    +0.000 N 
ATOM      4  N   UNL     1       4.378   6.999  17.818  0.00  0.00    +0.000 NA
ATOM      5  C   UNL     1       3.270   6.510  18.305  0.00  0.00    +0.000 A 
ATOM      6  C   UNL     1       2.924   5.059  18.178  0.00  0.00    +0.000 A 
ATOM      7  C   UNL     1       1.681   4.499  18.500  0.00  0.00    +0.000 A 
ATOM      8  C   UNL     1       1.418   3.135  18.272  0.00  0.00    +0.000 A 
ATOM      9  C   UNL     1       2.398   2.300  17.742  0.00  0.00    +0.000 A 
ATOM     10  C   UNL     1       3.639   2.834  17.427  0.00  0.00    +0.000 A 
ATOM     11  C   UNL     1       3.885   4.207  17.630  0.00  0.00    +0.000 A 
ATOM     12  C   UNL     1       5.159   4.751  17.160  0.00  0.00    +0.000 A 
ATOM     13  O   UNL     1       6.015   3.990  16.713  0.00  0.00    +0.000 OA
BRANCH   3  15
ATOM     14  C   UNL     1       7.301   7.519  17.477  0.00  0.00    +0.000 C 
ATOM     15  C   UNL     1       6.439   6.716  16.522  0.00  0.00    +0.000 C 
ENDBRANCH   3  15
ENDBRANCH   1   5
BRANCH   1  16
ATOM     16  O   UNL     1       1.606   8.332  18.096  0.00  0.00    +0.000 OA
BRANCH  16  17
ATOM     17  C   UNL     1       1.605   9.772  18.366  0.00  0.00    +0.000 C 
BRANCH  17  18
ATOM     18  C   UNL     1       0.632  10.269  19.470  0.00  0.00    +0.000 C 
ATOM     19  O   UNL     1       1.039  10.269  20.643  0.00  0.00    +0.000 OA
ATOM     20  N   UNL     1      -0.599  10.852  19.185  0.00  0.00    +0.000 N 
ATOM     21  C   UNL     1      -1.338  11.550  20.268  0.00  0.00    +0.000 C 
ATOM     22  C   UNL     1      -2.316  12.496  19.575  0.00  0.00    +0.000 C 
ATOM     23  C   UNL     1      -2.600  11.659  18.366  0.00  0.00    +0.000 A 
ATOM     24  C   UNL     1      -3.770  11.683  17.619  0.00  0.00    +0.000 A 
ATOM     25  C   UNL     1      -3.925  10.711  16.642  0.00  0.00    +0.000 A 
ATOM     26  C   UNL     1      -2.889   9.791  16.397  0.00  0.00    +0.000 A 
ATOM     27  C   UNL     1      -1.678   9.818  17.121  0.00  0.00    +0.000 A 
ATOM     28  C   UNL     1      -1.544  10.746  18.133  0.00  0.00    +0.000 A 
ENDBRANCH  17  18
ENDBRANCH  16  17
ENDBRANCH   1  16
TORSDOF 5
ENDMDL
MODEL 6
REMARK VINA RESULT:      -8.5      2.134      2.709
REMARK  Name = 
REMARK  6 active torsions:
REMARK  status: ('A' for Active; 'I' for Inactive)
REMARK    1  A    between atoms: C_1  and  C_2
REMARK    2  A    between atoms: C_2  and  N_3
REMARK    3  A    between atoms: C_5  and  C_6
REMARK    4  A    between atoms: C_6  and  O_8
REMARK    5  A    between atoms: O_8  and  C_9
REMARK    6  A    between atoms: C_9  and  C_10
REMARK                            x       y       z     vdW  Elec       q    Type
REMARK                         _______ _______ _______ _____ _____    ______ ____
ROOT
ATOM      1  C   UNL     1       2.088   7.419  19.356  0.00  0.00    +0.000 C 
ATOM      2  O   UNL     1       2.241   7.719  20.531  0.00  0.00    +0.000 OA
ENDROOT
BRANCH   1   5
ATOM      3  N   UNL     1       2.087   3.664  19.036  0.00  0.00    +0.000 N 
ATOM      4  N   UNL     1       1.795   4.975  19.430  0.00  0.00    +0.000 NA
ATOM      5  C   UNL     1       2.414   5.963  18.843  0.00  0.00    +0.000 A 
ATOM      6  C   UNL     1       3.447   5.730  17.785  0.00  0.00    +0.000 A 
ATOM      7  C   UNL     1       4.285   6.718  17.250  0.00  0.00    +0.000 A 
ATOM      8  C   UNL     1       5.285   6.393  16.314  0.00  0.00    +0.000 A 
ATOM      9  C   UNL     1       5.451   5.082  15.875  0.00  0.00    +0.000 A 
ATOM     10  C   UNL     1       4.623   4.092  16.386  0.00  0.00    +0.000 A 
ATOM     11  C   UNL     1       3.645   4.420  17.345  0.00  0.00    +0.000 A 
ATOM     12  C   UNL     1       2.886   3.325  17.951  0.00  0.00    +0.000 A 
ATOM     13  O   UNL     1       3.038   2.179  17.533  0.00  0.00    +0.000 OA
BRANCH   3  15
ATOM     14  C   UNL     1       1.468   2.856  21.285  0.00  0.00    +0.000 C 
ATOM     15  C   UNL     1       1.496   2.569  19.796  0.00  0.00    +0.000 C 
ENDBRANCH   3  15
ENDBRANCH   1   5
BRANCH   1  16
ATOM     16  O   UNL     1       1.555   8.247  18.428  0.00  0.00    +0.000 OA
BRANCH  16  17
ATOM     17  C   UNL     1       1.594   9.687  18.701  0.00  0.00    +0.000 C 
BRANCH  17  18
ATOM     18  C   UNL     1       0.551  10.228  19.717  0.00  0.00    +0.000 C 
ATOM     19  O   UNL     1       0.870  10.254  20.916  0.00  0.00    +0.000 OA
ATOM     20  N   UNL     1      -0.647  10.819  19.325  0.00  0.00    +0.000 N 
ATOM     21  C   UNL     1      -1.453  11.557  20.332  0.00  0.00    +0.000 C 
ATOM     22  C   UNL     1      -2.361  12.497  19.543  0.00  0.00    +0.000 C 
ATOM     23  C   UNL     1      -2.568  11.632  18.339  0.00  0.00    +0.000 A 
ATOM     24  C   UNL     1      -3.680  11.652  17.507  0.00  0.00    +0.000 A 
ATOM     25  C   UNL     1      -3.778  10.655  16.547  0.00  0.00    +0.000 A 
ATOM     26  C   UNL     1      -2.742   9.715  16.404  0.00  0.00    +0.000 A 
ATOM     27  C   UNL     1      -1.587   9.745  17.215  0.00  0.00    +0.000 A 
ATOM     28  C   UNL     1      -1.513  10.698  18.209  0.00  0.00    +0.000 A 
ENDBRANCH  17  18
ENDBRANCH  16  17
ENDBRANCH   1  16
TORSDOF 5
ENDMDL
MODEL 7
REMARK VINA RESULT:      -8.5      2.616      8.188
REMARK  Name = 
REMARK  6 active torsions:
REMARK  status: ('A' for Active; 'I' for Inactive)
REMARK    1  A    between atoms: C_1  and  C_2
REMARK    2  A    between atoms: C_2  and  N_3
REMARK    3  A    between atoms: C_5  and  C_6
REMARK    4  A    between atoms: C_6  and  O_8
REMARK    5  A    between atoms: O_8  and  C_9
REMARK    6  A    between atoms: C_9  and  C_10
REMARK                            x       y       z     vdW  Elec       q    Type
REMARK                         _______ _______ _______ _____ _____    ______ ____
ROOT
ATOM      1  C   UNL     1       1.160  10.118  18.435  0.00  0.00    +0.000 C 
ATOM      2  O   UNL     1       2.102  10.755  17.986  0.00  0.00    +0.000 OA
ENDROOT
BRANCH   1   5
ATOM      3  N   UNL     1      -1.212  12.074  20.615  0.00  0.00    +0.000 N 
ATOM      4  N   UNL     1      -0.068  11.450  20.103  0.00  0.00    +0.000 NA
ATOM      5  C   UNL     1      -0.141  10.850  18.946  0.00  0.00    +0.000 A 
ATOM      6  C   UNL     1      -1.419  10.787  18.168  0.00  0.00    +0.000 A 
ATOM      7  C   UNL     1      -1.623  10.006  17.023  0.00  0.00    +0.000 A 
ATOM      8  C   UNL     1      -2.885   9.946  16.401  0.00  0.00    +0.000 A 
ATOM      9  C   UNL     1      -3.958  10.684  16.894  0.00  0.00    +0.000 A 
ATOM     10  C   UNL     1      -3.771  11.471  18.021  0.00  0.00    +0.000 A 
ATOM     11  C   UNL     1      -2.514  11.502  18.656  0.00  0.00    +0.000 A 
ATOM     12  C   UNL     1      -2.400  12.240  19.914  0.00  0.00    +0.000 A 
ATOM     13  O   UNL     1      -3.357  12.899  20.319  0.00  0.00    +0.000 OA
BRANCH   3  15
ATOM     14  C   UNL     1      -1.256  11.528  23.022  0.00  0.00    +0.000 C 
ATOM     15  C   UNL     1      -1.154  12.614  21.967  0.00  0.00    +0.000 C 
ENDBRANCH   3  15
ENDBRANCH   1   5
BRANCH   1  16
ATOM     16  O   UNL     1       1.103   8.766  18.455  0.00  0.00    +0.000 OA
BRANCH  16  17
ATOM     17  C   UNL     1       2.148   8.053  19.195  0.00  0.00    +0.000 C 
BRANCH  17  18
ATOM     18  C   UNL     1       3.032   7.075  18.376  0.00  0.00    +0.000 C 
ATOM     19  O   UNL     1       3.564   7.504  17.340  0.00  0.00    +0.000 OA
ATOM     20  N   UNL     1       3.374   5.804  18.832  0.00  0.00    +0.000 N 
ATOM     21  C   UNL     1       4.440   5.046  18.129  0.00  0.00    +0.000 C 
ATOM     22  C   UNL     1       4.941   3.998  19.121  0.00  0.00    +0.000 C 
ATOM     23  C   UNL     1       3.648   3.742  19.830  0.00  0.00    +0.000 A 
ATOM     24  C   UNL     1       3.288   2.558  20.459  0.00  0.00    +0.000 A 
ATOM     25  C   UNL     1       1.980   2.444  20.908  0.00  0.00    +0.000 A 
ATOM     26  C   UNL     1       1.095   3.528  20.773  0.00  0.00    +0.000 A 
ATOM     27  C   UNL     1       1.492   4.750  20.188  0.00  0.00    +0.000 A 
ATOM     28  C   UNL     1       2.774   4.847  19.689  0.00  0.00    +0.000 A 
ENDBRANCH  17  18
ENDBRANCH  16  17
ENDBRANCH   1  16
TORSDOF 5
ENDMDL
MODEL 8
REMARK VINA RESULT:      -8.4      2.108      3.761
REMARK  Name = 
REMARK  6 active torsions:
REMARK  status: ('A' for Active; 'I' for Inactive)
REMARK    1  A    between atoms: C_1  and  C_2
REMARK    2  A    between atoms: C_2  and  N_3
REMARK    3  A    between atoms: C_5  and  C_6
REMARK    4  A    between atoms: C_6  and  O_8
REMARK    5  A    between atoms: O_8  and  C_9
REMARK    6  A    between atoms: C_9  and  C_10
REMARK                            x       y       z     vdW  Elec       q    Type
REMARK                         _______ _______ _______ _____ _____    ______ ____
ROOT
ATOM      1  C   UNL     1       2.378   7.522  18.747  0.00  0.00    +0.000 C 
ATOM      2  O   UNL     1       1.693   8.195  17.990  0.00  0.00    +0.000 OA
ENDROOT
BRANCH   1   5
ATOM      3  N   UNL     1       5.444   5.987  17.183  0.00  0.00    +0.000 N 
ATOM      4  N   UNL     1       4.532   6.897  17.731  0.00  0.00    +0.000 NA
ATOM      5  C   UNL     1       3.392   6.452  18.185  0.00  0.00    +0.000 A 
ATOM      6  C   UNL     1       3.023   5.003  18.109  0.00  0.00    +0.000 A 
ATOM      7  C   UNL     1       1.754   4.482  18.396  0.00  0.00    +0.000 A 
ATOM      8  C   UNL     1       1.475   3.113  18.219  0.00  0.00    +0.000 A 
ATOM      9  C   UNL     1       2.462   2.236  17.777  0.00  0.00    +0.000 A 
ATOM     10  C   UNL     1       3.727   2.732  17.498  0.00  0.00    +0.000 A 
ATOM     11  C   UNL     1       3.991   4.108  17.648  0.00  0.00    +0.000 A 
ATOM     12  C   UNL     1       5.297   4.606  17.217  0.00  0.00    +0.000 A 
ATOM     13  O   UNL     1       6.158   3.809  16.848  0.00  0.00    +0.000 OA
BRANCH   3  15
ATOM     14  C   UNL     1       7.556   7.212  17.545  0.00  0.00    +0.000 C 
ATOM     15  C   UNL     1       6.647   6.515  16.551  0.00  0.00    +0.000 C 
ENDBRANCH   3  15
ENDBRANCH   1   5
BRANCH   1  16
ATOM     16  O   UNL     1       2.401   7.683  20.090  0.00  0.00    +0.000 OA
BRANCH  16  17
ATOM     17  C   UNL     1       1.136   8.006  20.757  0.00  0.00    +0.000 C 
BRANCH  17  18
ATOM     18  C   UNL     1       1.008   9.437  21.346  0.00  0.00    +0.000 C 
ATOM     19  O   UNL     1       1.422   9.627  22.501  0.00  0.00    +0.000 OA
ATOM     20  N   UNL     1       0.599  10.531  20.588  0.00  0.00    +0.000 N 
ATOM     21  C   UNL     1       0.772  11.899  21.140  0.00  0.00    +0.000 C 
ATOM     22  C   UNL     1       0.748  12.847  19.943  0.00  0.00    +0.000 C 
ATOM     23  C   UNL     1      -0.213  12.083  19.086  0.00  0.00    +0.000 A 
ATOM     24  C   UNL     1      -1.056  12.629  18.128  0.00  0.00    +0.000 A 
ATOM     25  C   UNL     1      -2.004  11.792  17.558  0.00  0.00    +0.000 A 
ATOM     26  C   UNL     1      -2.042  10.431  17.912  0.00  0.00    +0.000 A 
ATOM     27  C   UNL     1      -1.137   9.875  18.843  0.00  0.00    +0.000 A 
ATOM     28  C   UNL     1      -0.231  10.716  19.453  0.00  0.00    +0.000 A 
ENDBRANCH  17  18
ENDBRANCH  16  17
ENDBRANCH   1  16
TORSDOF 5
ENDMDL
MODEL 9
REMARK VINA RESULT:      -8.4      2.148      3.737
REMARK  Name = 
REMARK  6 active torsions:
REMARK  status: ('A' for Active; 'I' for Inactive)
REMARK    1  A    between atoms: C_1  and  C_2
REMARK    2  A    between atoms: C_2  and  N_3
REMARK    3  A    between atoms: C_5  and  C_6
REMARK    4  A    between atoms: C_6  and  O_8
REMARK    5  A    between atoms: O_8  and  C_9
REMARK    6  A    between atoms: C_9  and  C_10
REMARK                            x       y       z     vdW  Elec       q    Type
REMARK                         _______ _______ _______ _____ _____    ______ ____
ROOT
ATOM      1  C   UNL     1       2.497   8.027  18.113  0.00  0.00    +0.000 C 
ATOM      2  O   UNL     1       2.204   8.788  17.202  0.00  0.00    +0.000 OA
ENDROOT
BRANCH   1   5
ATOM      3  N   UNL     1       5.790   6.314  17.460  0.00  0.00    +0.000 N 
ATOM      4  N   UNL     1       4.807   7.283  17.692  0.00  0.00    +0.000 NA
ATOM      5  C   UNL     1       3.578   6.896  17.906  0.00  0.00    +0.000 A 
ATOM      6  C   UNL     1       3.189   5.451  17.880  0.00  0.00    +0.000 A 
ATOM      7  C   UNL     1       1.872   4.974  17.909  0.00  0.00    +0.000 A 
ATOM      8  C   UNL     1       1.596   3.598  17.800  0.00  0.00    +0.000 A 
ATOM      9  C   UNL     1       2.629   2.671  17.685  0.00  0.00    +0.000 A 
ATOM     10  C   UNL     1       3.940   3.124  17.665  0.00  0.00    +0.000 A 
ATOM     11  C   UNL     1       4.208   4.505  17.745  0.00  0.00    +0.000 A 
ATOM     12  C   UNL     1       5.594   4.945  17.587  0.00  0.00    +0.000 A 
ATOM     13  O   UNL     1       6.490   4.106  17.506  0.00  0.00    +0.000 OA
BRANCH   3  15
ATOM     14  C   UNL     1       7.959   7.155  18.286  0.00  0.00    +0.000 C 
ATOM     15  C   UNL     1       7.123   6.764  17.081  0.00  0.00    +0.000 C 
ENDBRANCH   3  15
ENDBRANCH   1   5
BRANCH   1  16
ATOM     16  O   UNL     1       2.010   8.130  19.371  0.00  0.00    +0.000 OA
BRANCH  16  17
ATOM     17  C   UNL     1       1.334   9.379  19.737  0.00  0.00    +0.000 C 
BRANCH  17  18
ATOM     18  C   UNL     1       0.608   9.398  21.109  0.00  0.00    +0.000 C 
ATOM     19  O   UNL     1       0.958   8.564  21.960  0.00  0.00    +0.000 OA
ATOM     20  N   UNL     1      -0.292  10.395  21.473  0.00  0.00    +0.000 N 
ATOM     21  C   UNL     1      -0.724  10.497  22.891  0.00  0.00    +0.000 C 
ATOM     22  C   UNL     1      -1.241  11.922  23.075  0.00  0.00    +0.000 C 
ATOM     23  C   UNL     1      -1.802  12.124  21.702  0.00  0.00    +0.000 A 
ATOM     24  C   UNL     1      -2.854  12.968  21.372  0.00  0.00    +0.000 A 
ATOM     25  C   UNL     1      -3.354  12.891  20.080  0.00  0.00    +0.000 A 
ATOM     26  C   UNL     1      -2.754  12.028  19.145  0.00  0.00    +0.000 A 
ATOM     27  C   UNL     1      -1.643  11.221  19.478  0.00  0.00    +0.000 A 
ATOM     28  C   UNL     1      -1.181  11.253  20.777  0.00  0.00    +0.000 A 
ENDBRANCH  17  18
ENDBRANCH  16  17
ENDBRANCH   1  16
TORSDOF 5
ENDMDL
