MODEL 1
REMARK VINA RESULT:      -9.4      0.000      0.000
REMARK  Name = 
REMARK  6 active torsions:
REMARK  status: ('A' for Active; 'I' for Inactive)
REMARK    1  A    between atoms: C_4  and  O_5
REMARK    2  A    between atoms: C_13  and  C_14
REMARK    3  A    between atoms: C_14  and  C_15
REMARK    4  A    between atoms: C_17  and  O_18
REMARK    5  A    between atoms: C_21  and  O_22
REMARK    6  A    between atoms: C_24  and  O_25
REMARK                            x       y       z     vdW  Elec       q    Type
REMARK                         _______ _______ _______ _____ _____    ______ ____
ROOT
ATOM      1  O   UNL     1       0.767  11.563  18.982  0.00  0.00    +0.000 OA
ATOM      2  C   UNL     1       0.819  10.533  19.653  0.00  0.00    +0.000 C 
ATOM      3  C   UNL     1       0.116  10.537  20.957  0.00  0.00    +0.000 A 
ATOM      4  C   UNL     1      -0.589  11.681  21.377  0.00  0.00    +0.000 A 
ATOM      5  C   UNL     1      -1.261  11.699  22.595  0.00  0.00    +0.000 A 
ATOM      6  C   UNL     1      -1.239  10.569  23.408  0.00  0.00    +0.000 A 
ATOM      7  C   UNL     1      -0.537   9.432  23.006  0.00  0.00    +0.000 A 
ATOM      8  C   UNL     1       0.149   9.403  21.777  0.00  0.00    +0.000 A 
ATOM      9  C   UNL     1       0.899   8.161  21.386  0.00  0.00    +0.000 C 
ATOM     10  C   UNL     1       1.601   8.198  20.054  0.00  0.00    +0.000 A 
ATOM     11  C   UNL     1       2.311   7.048  19.642  0.00  0.00    +0.000 A 
ATOM     12  C   UNL     1       2.940   6.987  18.390  0.00  0.00    +0.000 A 
ATOM     13  C   UNL     1       2.872   8.106  17.553  0.00  0.00    +0.000 A 
ATOM     14  C   UNL     1       2.199   9.261  17.959  0.00  0.00    +0.000 A 
ATOM     15  C   UNL     1       1.554   9.315  19.208  0.00  0.00    +0.000 A 
ENDROOT
BRANCH   4  16
ATOM     16  O   UNL     1      -0.668  12.830  20.633  0.00  0.00    +0.000 OA
ATOM     17  H   UNL     1       0.254  13.069  20.368  0.00  0.00    +0.000 HD
ENDBRANCH   4  16
BRANCH  14  18
ATOM     18  O   UNL     1       2.170  10.324  17.105  0.00  0.00    +0.000 OA
ATOM     19  H   UNL     1       3.043  10.740  17.053  0.00  0.00    +0.000 HD
ENDBRANCH  14  18
BRANCH  12  20
ATOM     20  C   UNL     1       3.606   5.709  17.910  0.00  0.00    +0.000 C 
BRANCH  20  21
ATOM     21  C   UNL     1       5.115   5.787  17.998  0.00  0.00    +0.000 A 
ATOM     22  C   UNL     1       5.766   5.415  19.187  0.00  0.00    +0.000 A 
ATOM     23  C   UNL     1       7.122   5.686  19.354  0.00  0.00    +0.000 A 
ATOM     24  C   UNL     1       7.858   6.288  18.342  0.00  0.00    +0.000 A 
ATOM     25  C   UNL     1       7.244   6.589  17.127  0.00  0.00    +0.000 A 
ATOM     26  C   UNL     1       5.881   6.339  16.962  0.00  0.00    +0.000 A 
BRANCH  23  27
ATOM     27  O   UNL     1       7.765   5.403  20.522  0.00  0.00    +0.000 OA
ATOM     28  H   UNL     1       7.763   6.195  21.082  0.00  0.00    +0.000 HD
ENDBRANCH  23  27
BRANCH  26  29
ATOM     29  O   UNL     1       5.269   6.655  15.781  0.00  0.00    +0.000 OA
ATOM     30  H   UNL     1       5.937   6.645  15.076  0.00  0.00    +0.000 HD
ENDBRANCH  26  29
ENDBRANCH  20  21
ENDBRANCH  12  20
TORSDOF 6
ENDMDL
MODEL 2
REMARK VINA RESULT:      -9.2      2.386      3.237
REMARK  Name = 
REMARK  6 active torsions:
REMARK  status: ('A' for Active; 'I' for Inactive)
REMARK    1  A    between atoms: C_4  and  O_5
REMARK    2  A    between atoms: C_13  and  C_14
REMARK    3  A    between atoms: C_14  and  C_15
REMARK    4  A    between atoms: C_17  and  O_18
REMARK    5  A    between atoms: C_21  and  O_22
REMARK    6  A    between atoms: C_24  and  O_25
REMARK                            x       y       z     vdW  Elec       q    Type
REMARK                         _______ _______ _______ _____ _____    ______ ____
ROOT
ATOM      1  O   UNL     1       0.629  11.786  18.852  0.00  0.00    +0.000 OA
ATOM      2  C   UNL     1       0.615  10.837  19.635  0.00  0.00    +0.000 C 
ATOM      3  C   UNL     1      -0.126  11.017  20.906  0.00  0.00    +0.000 A 
ATOM      4  C   UNL     1      -0.789  12.230  21.172  0.00  0.00    +0.000 A 
ATOM      5  C   UNL     1      -1.495  12.413  22.357  0.00  0.00    +0.000 A 
ATOM      6  C   UNL     1      -1.548  11.381  23.291  0.00  0.00    +0.000 A 
ATOM      7  C   UNL     1      -0.888  10.178  23.041  0.00  0.00    +0.000 A 
ATOM      8  C   UNL     1      -0.168   9.982  21.847  0.00  0.00    +0.000 A 
ATOM      9  C   UNL     1       0.534   8.674  21.622  0.00  0.00    +0.000 C 
ATOM     10  C   UNL     1       1.276   8.530  20.318  0.00  0.00    +0.000 A 
ATOM     11  C   UNL     1       1.944   7.313  20.062  0.00  0.00    +0.000 A 
ATOM     12  C   UNL     1       2.606   7.085  18.845  0.00  0.00    +0.000 A 
ATOM     13  C   UNL     1       2.613   8.104  17.889  0.00  0.00    +0.000 A 
ATOM     14  C   UNL     1       1.984   9.325  18.141  0.00  0.00    +0.000 A 
ATOM     15  C   UNL     1       1.306   9.547  19.353  0.00  0.00    +0.000 A 
ENDROOT
BRANCH   4  16
ATOM     16  O   UNL     1      -0.793  13.291  20.303  0.00  0.00    +0.000 OA
ATOM     17  H   UNL     1       0.050  13.249  19.790  0.00  0.00    +0.000 HD
ENDBRANCH   4  16
BRANCH  14  18
ATOM     18  O   UNL     1       2.028  10.287  17.174  0.00  0.00    +0.000 OA
ATOM     19  H   UNL     1       1.150  10.674  17.042  0.00  0.00    +0.000 HD
ENDBRANCH  14  18
BRANCH  12  20
ATOM     20  C   UNL     1       3.226   5.734  18.533  0.00  0.00    +0.000 C 
BRANCH  20  21
ATOM     21  C   UNL     1       2.460   4.595  19.171  0.00  0.00    +0.000 A 
ATOM     22  C   UNL     1       2.814   4.148  20.457  0.00  0.00    +0.000 A 
ATOM     23  C   UNL     1       2.267   2.970  20.960  0.00  0.00    +0.000 A 
ATOM     24  C   UNL     1       1.339   2.244  20.225  0.00  0.00    +0.000 A 
ATOM     25  C   UNL     1       0.919   2.718  18.983  0.00  0.00    +0.000 A 
ATOM     26  C   UNL     1       1.480   3.885  18.464  0.00  0.00    +0.000 A 
BRANCH  23  27
ATOM     27  O   UNL     1       2.643   2.473  22.172  0.00  0.00    +0.000 OA
ATOM     28  H   UNL     1       3.436   1.926  22.055  0.00  0.00    +0.000 HD
ENDBRANCH  23  27
BRANCH  26  29
ATOM     29  O   UNL     1       1.089   4.341  17.236  0.00  0.00    +0.000 OA
ATOM     30  H   UNL     1       0.568   3.646  16.801  0.00  0.00    +0.000 HD
ENDBRANCH  26  29
ENDBRANCH  20  21
ENDBRANCH  12  20
TORSDOF 6
ENDMDL
MODEL 3
REMARK VINA RESULT:      -8.8      2.258      3.186
REMARK  Name = 
REMARK  6 active torsions:
REMARK  status: ('A' for Active; 'I' for Inactive)
REMARK    1  A    between atoms: C_4  and  O_5
REMARK    2  A    between atoms: C_13  and  C_14
REMARK    3  A    between atoms: C_14  and  C_15
REMARK    4  A    between atoms: C_17  and  O_18
REMARK    5  A    between atoms: C_21  and  O_22
REMARK    6  A    between atoms: C_24  and  O_25
REMARK                            x       y       z     vdW  Elec       q    Type
REMARK                         _______ _______ _______ _____ _____    ______ ____
ROOT
ATOM      1  O   UNL     1       0.790  11.409  18.968  0.00  0.00    +0.000 OA
ATOM      2  C   UNL     1       0.862  10.384  19.645  0.00  0.00    +0.000 C 
ATOM      3  C   UNL     1       0.179  10.390  20.960  0.00  0.00    +0.000 A 
ATOM      4  C   UNL     1      -0.529  11.531  21.383  0.00  0.00    +0.000 A 
ATOM      5  C   UNL     1      -1.183  11.551  22.612  0.00  0.00    +0.000 A 
ATOM      6  C   UNL     1      -1.138  10.427  23.432  0.00  0.00    +0.000 A 
ATOM      7  C   UNL     1      -0.432   9.293  23.026  0.00  0.00    +0.000 A 
ATOM      8  C   UNL     1       0.236   9.263  21.787  0.00  0.00    +0.000 A 
ATOM      9  C   UNL     1       0.990   8.025  21.392  0.00  0.00    +0.000 C 
ATOM     10  C   UNL     1       1.671   8.059  20.049  0.00  0.00    +0.000 A 
ATOM     11  C   UNL     1       2.385   6.913  19.634  0.00  0.00    +0.000 A 
ATOM     12  C   UNL     1       2.995   6.849  18.372  0.00  0.00    +0.000 A 
ATOM     13  C   UNL     1       2.904   7.961  17.530  0.00  0.00    +0.000 A 
ATOM     14  C   UNL     1       2.227   9.113  17.939  0.00  0.00    +0.000 A 
ATOM     15  C   UNL     1       1.601   9.170  19.197  0.00  0.00    +0.000 A 
ENDROOT
BRANCH   4  16
ATOM     16  O   UNL     1      -0.631  12.674  20.633  0.00  0.00    +0.000 OA
ATOM     17  H   UNL     1      -0.607  12.401  19.683  0.00  0.00    +0.000 HD
ENDBRANCH   4  16
BRANCH  14  18
ATOM     18  O   UNL     1       2.175  10.171  17.078  0.00  0.00    +0.000 OA
ATOM     19  H   UNL     1       2.927  10.763  17.224  0.00  0.00    +0.000 HD
ENDBRANCH  14  18
BRANCH  12  20
ATOM     20  C   UNL     1       3.666   5.574  17.891  0.00  0.00    +0.000 C 
BRANCH  20  21
ATOM     21  C   UNL     1       3.152   4.351  18.619  0.00  0.00    +0.000 A 
ATOM     22  C   UNL     1       1.769   4.102  18.678  0.00  0.00    +0.000 A 
ATOM     23  C   UNL     1       1.275   3.111  19.522  0.00  0.00    +0.000 A 
ATOM     24  C   UNL     1       2.134   2.330  20.285  0.00  0.00    +0.000 A 
ATOM     25  C   UNL     1       3.511   2.512  20.176  0.00  0.00    +0.000 A 
ATOM     26  C   UNL     1       4.011   3.518  19.348  0.00  0.00    +0.000 A 
BRANCH  23  27
ATOM     27  O   UNL     1      -0.065   2.893  19.655  0.00  0.00    +0.000 OA
ATOM     28  H   UNL     1      -0.202   2.073  20.154  0.00  0.00    +0.000 HD
ENDBRANCH  23  27
BRANCH  26  29
ATOM     29  O   UNL     1       5.361   3.717  19.257  0.00  0.00    +0.000 OA
ATOM     30  H   UNL     1       5.747   3.620  20.143  0.00  0.00    +0.000 HD
ENDBRANCH  26  29
ENDBRANCH  20  21
ENDBRANCH  12  20
TORSDOF 6
ENDMDL
MODEL 4
REMARK VINA RESULT:      -8.7      1.289      2.124
REMARK  Name = 
REMARK  6 active torsions:
REMARK  status: ('A' for Active; 'I' for Inactive)
REMARK    1  A    between atoms: C_4  and  O_5
REMARK    2  A    between atoms: C_13  and  C_14
REMARK    3  A    between atoms: C_14  and  C_15
REMARK    4  A    between atoms: C_17  and  O_18
REMARK    5  A    between atoms: C_21  and  O_22
REMARK    6  A    between atoms: C_24  and  O_25
REMARK                            x       y       z     vdW  Elec       q    Type
REMARK                         _______ _______ _______ _____ _____    ______ ____
ROOT
ATOM      1  O   UNL     1       1.082  10.765  18.661  0.00  0.00    +0.000 OA
ATOM      2  C   UNL     1       1.063   9.868  19.504  0.00  0.00    +0.000 C 
ATOM      3  C   UNL     1       0.338  10.140  20.767  0.00  0.00    +0.000 A 
ATOM      4  C   UNL     1      -0.306  11.377  20.960  0.00  0.00    +0.000 A 
ATOM      5  C   UNL     1      -0.998  11.646  22.138  0.00  0.00    +0.000 A 
ATOM      6  C   UNL     1      -1.055  10.678  23.136  0.00  0.00    +0.000 A 
ATOM      7  C   UNL     1      -0.414   9.451  22.959  0.00  0.00    +0.000 A 
ATOM      8  C   UNL     1       0.291   9.169  21.773  0.00  0.00    +0.000 A 
ATOM      9  C   UNL     1       0.974   7.839  21.627  0.00  0.00    +0.000 C 
ATOM     10  C   UNL     1       1.700   7.601  20.329  0.00  0.00    +0.000 A 
ATOM     11  C   UNL     1       2.349   6.360  20.145  0.00  0.00    +0.000 A 
ATOM     12  C   UNL     1       2.995   6.045  18.940  0.00  0.00    +0.000 A 
ATOM     13  C   UNL     1       3.007   7.001  17.919  0.00  0.00    +0.000 A 
ATOM     14  C   UNL     1       2.396   8.244  18.098  0.00  0.00    +0.000 A 
ATOM     15  C   UNL     1       1.734   8.553  19.300  0.00  0.00    +0.000 A 
ENDROOT
BRANCH   4  16
ATOM     16  O   UNL     1      -0.305  12.379  20.025  0.00  0.00    +0.000 OA
ATOM     17  H   UNL     1      -0.763  13.155  20.430  0.00  0.00    +0.000 HD
ENDBRANCH   4  16
BRANCH  14  18
ATOM     18  O   UNL     1       2.444   9.140  17.070  0.00  0.00    +0.000 OA
ATOM     19  H   UNL     1       3.351   9.447  16.931  0.00  0.00    +0.000 HD
ENDBRANCH  14  18
BRANCH  12  20
ATOM     20  C   UNL     1       3.594   4.668  18.710  0.00  0.00    +0.000 C 
BRANCH  20  21
ATOM     21  C   UNL     1       4.839   4.726  17.850  0.00  0.00    +0.000 A 
ATOM     22  C   UNL     1       4.745   4.485  16.468  0.00  0.00    +0.000 A 
ATOM     23  C   UNL     1       5.901   4.320  15.709  0.00  0.00    +0.000 A 
ATOM     24  C   UNL     1       7.157   4.429  16.291  0.00  0.00    +0.000 A 
ATOM     25  C   UNL     1       7.266   4.746  17.644  0.00  0.00    +0.000 A 
ATOM     26  C   UNL     1       6.111   4.892  18.414  0.00  0.00    +0.000 A 
BRANCH  23  27
ATOM     27  O   UNL     1       5.842   4.015  14.382  0.00  0.00    +0.000 OA
ATOM     28  H   UNL     1       6.207   3.127  14.247  0.00  0.00    +0.000 HD
ENDBRANCH  23  27
BRANCH  26  29
ATOM     29  O   UNL     1       6.212   5.178  19.747  0.00  0.00    +0.000 OA
ATOM     30  H   UNL     1       7.153   5.267  19.971  0.00  0.00    +0.000 HD
ENDBRANCH  26  29
ENDBRANCH  20  21
ENDBRANCH  12  20
TORSDOF 6
ENDMDL
MODEL 5
REMARK VINA RESULT:      -8.5      1.733      2.616
REMARK  Name = 
REMARK  6 active torsions:
REMARK  status: ('A' for Active; 'I' for Inactive)
REMARK    1  A    between atoms: C_4  and  O_5
REMARK    2  A    between atoms: C_13  and  C_14
REMARK    3  A    between atoms: C_14  and  C_15
REMARK    4  A    between atoms: C_17  and  O_18
REMARK    5  A    between atoms: C_21  and  O_22
REMARK    6  A    between atoms: C_24  and  O_25
REMARK                            x       y       z     vdW  Elec       q    Type
REMARK                         _______ _______ _______ _____ _____    ______ ____
ROOT
ATOM      1  O   UNL     1       0.228   8.698  21.781  0.00  0.00    +0.000 OA
ATOM      2  C   UNL     1       0.688   9.007  20.683  0.00  0.00    +0.000 C 
ATOM      3  C   UNL     1       0.358  10.356  20.164  0.00  0.00    +0.000 A 
ATOM      4  C   UNL     1      -0.439  11.230  20.927  0.00  0.00    +0.000 A 
ATOM      5  C   UNL     1      -0.751  12.503  20.458  0.00  0.00    +0.000 A 
ATOM      6  C   UNL     1      -0.268  12.916  19.220  0.00  0.00    +0.000 A 
ATOM      7  C   UNL     1       0.516  12.055  18.452  0.00  0.00    +0.000 A 
ATOM      8  C   UNL     1       0.836  10.764  18.914  0.00  0.00    +0.000 A 
ATOM      9  C   UNL     1       1.676   9.865  18.052  0.00  0.00    +0.000 C 
ATOM     10  C   UNL     1       1.990   8.504  18.615  0.00  0.00    +0.000 A 
ATOM     11  C   UNL     1       2.784   7.629  17.841  0.00  0.00    +0.000 A 
ATOM     12  C   UNL     1       3.165   6.367  18.323  0.00  0.00    +0.000 A 
ATOM     13  C   UNL     1       2.720   5.976  19.590  0.00  0.00    +0.000 A 
ATOM     14  C   UNL     1       1.908   6.817  20.354  0.00  0.00    +0.000 A 
ATOM     15  C   UNL     1       1.541   8.089  19.876  0.00  0.00    +0.000 A 
ENDROOT
BRANCH   4  16
ATOM     16  O   UNL     1      -0.946  10.905  22.158  0.00  0.00    +0.000 OA
ATOM     17  H   UNL     1      -1.360  11.723  22.527  0.00  0.00    +0.000 HD
ENDBRANCH   4  16
BRANCH  14  18
ATOM     18  O   UNL     1       1.499   6.381  21.580  0.00  0.00    +0.000 OA
ATOM     19  H   UNL     1       1.825   5.485  21.746  0.00  0.00    +0.000 HD
ENDBRANCH  14  18
BRANCH  12  20
ATOM     20  C   UNL     1       4.109   5.479  17.533  0.00  0.00    +0.000 C 
BRANCH  20  21
ATOM     21  C   UNL     1       5.562   5.794  17.821  0.00  0.00    +0.000 A 
ATOM     22  C   UNL     1       6.165   5.301  18.992  0.00  0.00    +0.000 A 
ATOM     23  C   UNL     1       7.422   5.760  19.374  0.00  0.00    +0.000 A 
ATOM     24  C   UNL     1       8.115   6.676  18.593  0.00  0.00    +0.000 A 
ATOM     25  C   UNL     1       7.564   7.113  17.390  0.00  0.00    +0.000 A 
ATOM     26  C   UNL     1       6.295   6.672  17.012  0.00  0.00    +0.000 A 
BRANCH  23  27
ATOM     27  O   UNL     1       8.003   5.355  20.540  0.00  0.00    +0.000 OA
ATOM     28  H   UNL     1       8.056   6.111  21.144  0.00  0.00    +0.000 HD
ENDBRANCH  23  27
BRANCH  26  29
ATOM     29  O   UNL     1       5.739   7.117  15.844  0.00  0.00    +0.000 OA
ATOM     30  H   UNL     1       4.874   6.690  15.733  0.00  0.00    +0.000 HD
ENDBRANCH  26  29
ENDBRANCH  20  21
ENDBRANCH  12  20
TORSDOF 6
ENDMDL
MODEL 6
REMARK VINA RESULT:      -8.4      1.287      1.758
REMARK  Name = 
REMARK  6 active torsions:
REMARK  status: ('A' for Active; 'I' for Inactive)
REMARK    1  A    between atoms: C_4  and  O_5
REMARK    2  A    between atoms: C_13  and  C_14
REMARK    3  A    between atoms: C_14  and  C_15
REMARK    4  A    between atoms: C_17  and  O_18
REMARK    5  A    between atoms: C_21  and  O_22
REMARK    6  A    between atoms: C_24  and  O_25
REMARK                            x       y       z     vdW  Elec       q    Type
REMARK                         _______ _______ _______ _____ _____    ______ ____
ROOT
ATOM      1  O   UNL     1       0.447  11.182  18.583  0.00  0.00    +0.000 OA
ATOM      2  C   UNL     1       0.516  10.389  19.521  0.00  0.00    +0.000 C 
ATOM      3  C   UNL     1      -0.194  10.751  20.770  0.00  0.00    +0.000 A 
ATOM      4  C   UNL     1      -0.922  11.954  20.845  0.00  0.00    +0.000 A 
ATOM      5  C   UNL     1      -1.600  12.306  22.009  0.00  0.00    +0.000 A 
ATOM      6  C   UNL     1      -1.560  11.456  23.111  0.00  0.00    +0.000 A 
ATOM      7  C   UNL     1      -0.835  10.265  23.050  0.00  0.00    +0.000 A 
ATOM      8  C   UNL     1      -0.142   9.900  21.879  0.00  0.00    +0.000 A 
ATOM      9  C   UNL     1       0.633   8.613  21.859  0.00  0.00    +0.000 C 
ATOM     10  C   UNL     1       1.340   8.281  20.571  0.00  0.00    +0.000 A 
ATOM     11  C   UNL     1       2.074   7.076  20.505  0.00  0.00    +0.000 A 
ATOM     12  C   UNL     1       2.710   6.672  19.321  0.00  0.00    +0.000 A 
ATOM     13  C   UNL     1       2.624   7.503  18.200  0.00  0.00    +0.000 A 
ATOM     14  C   UNL     1       1.928   8.713  18.260  0.00  0.00    +0.000 A 
ATOM     15  C   UNL     1       1.276   9.109  19.442  0.00  0.00    +0.000 A 
ENDROOT
BRANCH   4  16
ATOM     16  O   UNL     1      -1.020  12.840  19.804  0.00  0.00    +0.000 OA
ATOM     17  H   UNL     1      -0.811  12.341  18.977  0.00  0.00    +0.000 HD
ENDBRANCH   4  16
BRANCH  14  18
ATOM     18  O   UNL     1       1.882   9.487  17.137  0.00  0.00    +0.000 OA
ATOM     19  H   UNL     1       1.200   9.164  16.531  0.00  0.00    +0.000 HD
ENDBRANCH  14  18
BRANCH  12  20
ATOM     20  C   UNL     1       3.402   5.323  19.226  0.00  0.00    +0.000 C 
BRANCH  20  21
ATOM     21  C   UNL     1       4.402   5.276  18.091  0.00  0.00    +0.000 A 
ATOM     22  C   UNL     1       5.499   6.156  18.088  0.00  0.00    +0.000 A 
ATOM     23  C   UNL     1       6.296   6.272  16.952  0.00  0.00    +0.000 A 
ATOM     24  C   UNL     1       6.049   5.499  15.825  0.00  0.00    +0.000 A 
ATOM     25  C   UNL     1       5.014   4.565  15.843  0.00  0.00    +0.000 A 
ATOM     26  C   UNL     1       4.199   4.460  16.970  0.00  0.00    +0.000 A 
BRANCH  23  27
ATOM     27  O   UNL     1       7.323   7.167  16.893  0.00  0.00    +0.000 OA
ATOM     28  H   UNL     1       7.696   7.159  15.998  0.00  0.00    +0.000 HD
ENDBRANCH  23  27
BRANCH  26  29
ATOM     29  O   UNL     1       3.166   3.563  16.982  0.00  0.00    +0.000 OA
ATOM     30  H   UNL     1       3.272   2.984  17.756  0.00  0.00    +0.000 HD
ENDBRANCH  26  29
ENDBRANCH  20  21
ENDBRANCH  12  20
TORSDOF 6
ENDMDL
MODEL 7
REMARK VINA RESULT:      -8.4      2.325      3.228
REMARK  Name = 
REMARK  6 active torsions:
REMARK  status: ('A' for Active; 'I' for Inactive)
REMARK    1  A    between atoms: C_4  and  O_5
REMARK    2  A    between atoms: C_13  and  C_14
REMARK    3  A    between atoms: C_14  and  C_15
REMARK    4  A    between atoms: C_17  and  O_18
REMARK    5  A    between atoms: C_21  and  O_22
REMARK    6  A    between atoms: C_24  and  O_25
REMARK                            x       y       z     vdW  Elec       q    Type
REMARK                         _______ _______ _______ _____ _____    ______ ____
ROOT
ATOM      1  O   UNL     1       0.077  11.278  18.594  0.00  0.00    +0.000 OA
ATOM      2  C   UNL     1       0.248  10.538  19.561  0.00  0.00    +0.000 C 
ATOM      3  C   UNL     1      -0.465  10.881  20.814  0.00  0.00    +0.000 A 
ATOM      4  C   UNL     1      -1.310  12.006  20.859  0.00  0.00    +0.000 A 
ATOM      5  C   UNL     1      -1.994  12.338  22.026  0.00  0.00    +0.000 A 
ATOM      6  C   UNL     1      -1.840  11.547  23.160  0.00  0.00    +0.000 A 
ATOM      7  C   UNL     1      -0.999  10.434  23.129  0.00  0.00    +0.000 A 
ATOM      8  C   UNL     1      -0.301  10.090  21.956  0.00  0.00    +0.000 A 
ATOM      9  C   UNL     1       0.601   8.888  21.967  0.00  0.00    +0.000 C 
ATOM     10  C   UNL     1       1.308   8.572  20.675  0.00  0.00    +0.000 A 
ATOM     11  C   UNL     1       2.160   7.446  20.639  0.00  0.00    +0.000 A 
ATOM     12  C   UNL     1       2.806   7.056  19.455  0.00  0.00    +0.000 A 
ATOM     13  C   UNL     1       2.609   7.824  18.304  0.00  0.00    +0.000 A 
ATOM     14  C   UNL     1       1.794   8.959  18.332  0.00  0.00    +0.000 A 
ATOM     15  C   UNL     1       1.134   9.339  19.515  0.00  0.00    +0.000 A 
ENDROOT
BRANCH   4  16
ATOM     16  O   UNL     1      -1.522  12.831  19.786  0.00  0.00    +0.000 OA
ATOM     17  H   UNL     1      -2.474  12.743  19.535  0.00  0.00    +0.000 HD
ENDBRANCH   4  16
BRANCH  14  18
ATOM     18  O   UNL     1       1.643   9.674  17.180  0.00  0.00    +0.000 OA
ATOM     19  H   UNL     1       0.928   9.303  16.644  0.00  0.00    +0.000 HD
ENDBRANCH  14  18
BRANCH  12  20
ATOM     20  C   UNL     1       3.630   5.782  19.397  0.00  0.00    +0.000 C 
BRANCH  20  21
ATOM     21  C   UNL     1       2.833   4.613  18.858  0.00  0.00    +0.000 A 
ATOM     22  C   UNL     1       1.662   4.201  19.519  0.00  0.00    +0.000 A 
ATOM     23  C   UNL     1       1.046   3.004  19.165  0.00  0.00    +0.000 A 
ATOM     24  C   UNL     1       1.550   2.221  18.135  0.00  0.00    +0.000 A 
ATOM     25  C   UNL     1       2.663   2.656  17.417  0.00  0.00    +0.000 A 
ATOM     26  C   UNL     1       3.297   3.845  17.782  0.00  0.00    +0.000 A 
BRANCH  23  27
ATOM     27  O   UNL     1      -0.048   2.542  19.834  0.00  0.00    +0.000 OA
ATOM     28  H   UNL     1       0.247   2.027  20.601  0.00  0.00    +0.000 HD
ENDBRANCH  23  27
BRANCH  26  29
ATOM     29  O   UNL     1       4.404   4.264  17.098  0.00  0.00    +0.000 OA
ATOM     30  H   UNL     1       5.058   4.586  17.740  0.00  0.00    +0.000 HD
ENDBRANCH  26  29
ENDBRANCH  20  21
ENDBRANCH  12  20
TORSDOF 6
ENDMDL
MODEL 8
REMARK VINA RESULT:      -8.3      1.080      1.515
REMARK  Name = 
REMARK  6 active torsions:
REMARK  status: ('A' for Active; 'I' for Inactive)
REMARK    1  A    between atoms: C_4  and  O_5
REMARK    2  A    between atoms: C_13  and  C_14
REMARK    3  A    between atoms: C_14  and  C_15
REMARK    4  A    between atoms: C_17  and  O_18
REMARK    5  A    between atoms: C_21  and  O_22
REMARK    6  A    between atoms: C_24  and  O_25
REMARK                            x       y       z     vdW  Elec       q    Type
REMARK                         _______ _______ _______ _____ _____    ______ ____
ROOT
ATOM      1  O   UNL     1       0.735  11.554  18.954  0.00  0.00    +0.000 OA
ATOM      2  C   UNL     1       0.760  10.541  19.653  0.00  0.00    +0.000 C 
ATOM      3  C   UNL     1       0.067  10.602  20.961  0.00  0.00    +0.000 A 
ATOM      4  C   UNL     1      -0.599  11.778  21.354  0.00  0.00    +0.000 A 
ATOM      5  C   UNL     1      -1.261  11.849  22.577  0.00  0.00    +0.000 A 
ATOM      6  C   UNL     1      -1.267  10.741  23.419  0.00  0.00    +0.000 A 
ATOM      7  C   UNL     1      -0.604   9.572  23.043  0.00  0.00    +0.000 A 
ATOM      8  C   UNL     1       0.072   9.490  21.811  0.00  0.00    +0.000 A 
ATOM      9  C   UNL     1       0.780   8.215  21.449  0.00  0.00    +0.000 C 
ATOM     10  C   UNL     1       1.472   8.194  20.111  0.00  0.00    +0.000 A 
ATOM     11  C   UNL     1       2.144   7.013  19.726  0.00  0.00    +0.000 A 
ATOM     12  C   UNL     1       2.761   6.899  18.471  0.00  0.00    +0.000 A 
ATOM     13  C   UNL     1       2.721   7.996  17.606  0.00  0.00    +0.000 A 
ATOM     14  C   UNL     1       2.088   9.182  17.985  0.00  0.00    +0.000 A 
ATOM     15  C   UNL     1       1.454   9.289  19.236  0.00  0.00    +0.000 A 
ENDROOT
BRANCH   4  16
ATOM     16  O   UNL     1      -0.648  12.909  20.581  0.00  0.00    +0.000 OA
ATOM     17  H   UNL     1      -1.237  12.709  19.813  0.00  0.00    +0.000 HD
ENDBRANCH   4  16
BRANCH  14  18
ATOM     18  O   UNL     1       2.085  10.223  17.103  0.00  0.00    +0.000 OA
ATOM     19  H   UNL     1       2.741  10.078  16.406  0.00  0.00    +0.000 HD
ENDBRANCH  14  18
BRANCH  12  20
ATOM     20  C   UNL     1       3.384   5.588  18.022  0.00  0.00    +0.000 C 
BRANCH  20  21
ATOM     21  C   UNL     1       4.897   5.647  18.023  0.00  0.00    +0.000 A 
ATOM     22  C   UNL     1       5.550   6.832  17.640  0.00  0.00    +0.000 A 
ATOM     23  C   UNL     1       6.927   6.831  17.428  0.00  0.00    +0.000 A 
ATOM     24  C   UNL     1       7.678   5.680  17.628  0.00  0.00    +0.000 A 
ATOM     25  C   UNL     1       7.055   4.520  18.085  0.00  0.00    +0.000 A 
ATOM     26  C   UNL     1       5.673   4.509  18.279  0.00  0.00    +0.000 A 
BRANCH  23  27
ATOM     27  O   UNL     1       7.579   7.944  16.988  0.00  0.00    +0.000 OA
ATOM     28  H   UNL     1       8.479   7.698  16.724  0.00  0.00    +0.000 HD
ENDBRANCH  23  27
BRANCH  26  29
ATOM     29  O   UNL     1       5.054   3.366  18.703  0.00  0.00    +0.000 OA
ATOM     30  H   UNL     1       4.209   3.282  18.231  0.00  0.00    +0.000 HD
ENDBRANCH  26  29
ENDBRANCH  20  21
ENDBRANCH  12  20
TORSDOF 6
ENDMDL
MODEL 9
REMARK VINA RESULT:      -8.1      1.720      2.745
REMARK  Name = 
REMARK  6 active torsions:
REMARK  status: ('A' for Active; 'I' for Inactive)
REMARK    1  A    between atoms: C_4  and  O_5
REMARK    2  A    between atoms: C_13  and  C_14
REMARK    3  A    between atoms: C_14  and  C_15
REMARK    4  A    between atoms: C_17  and  O_18
REMARK    5  A    between atoms: C_21  and  O_22
REMARK    6  A    between atoms: C_24  and  O_25
REMARK                            x       y       z     vdW  Elec       q    Type
REMARK                         _______ _______ _______ _____ _____    ______ ____
ROOT
ATOM      1  O   UNL     1       0.596  10.002  21.842  0.00  0.00    +0.000 OA
ATOM      2  C   UNL     1       1.031  10.142  20.700  0.00  0.00    +0.000 C 
ATOM      3  C   UNL     1       0.938  11.493  20.099  0.00  0.00    +0.000 A 
ATOM      4  C   UNL     1       0.385  12.558  20.836  0.00  0.00    +0.000 A 
ATOM      5  C   UNL     1       0.298  13.835  20.289  0.00  0.00    +0.000 A 
ATOM      6  C   UNL     1       0.765  14.062  18.997  0.00  0.00    +0.000 A 
ATOM      7  C   UNL     1       1.308  13.013  18.255  0.00  0.00    +0.000 A 
ATOM      8  C   UNL     1       1.399  11.716  18.797  0.00  0.00    +0.000 A 
ATOM      9  C   UNL     1       1.983  10.613  17.960  0.00  0.00    +0.000 C 
ATOM     10  C   UNL     1       2.060   9.255  18.607  0.00  0.00    +0.000 A 
ATOM     11  C   UNL     1       2.610   8.190  17.859  0.00  0.00    +0.000 A 
ATOM     12  C   UNL     1       2.767   6.912  18.415  0.00  0.00    +0.000 A 
ATOM     13  C   UNL     1       2.343   6.699  19.731  0.00  0.00    +0.000 A 
ATOM     14  C   UNL     1       1.769   7.735  20.472  0.00  0.00    +0.000 A 
ATOM     15  C   UNL     1       1.627   9.021  19.919  0.00  0.00    +0.000 A 
ENDROOT
BRANCH   4  16
ATOM     16  O   UNL     1      -0.089  12.420  22.114  0.00  0.00    +0.000 OA
ATOM     17  H   UNL     1       0.521  11.803  22.586  0.00  0.00    +0.000 HD
ENDBRANCH   4  16
BRANCH  14  18
ATOM     18  O   UNL     1       1.368   7.469  21.749  0.00  0.00    +0.000 OA
ATOM     19  H   UNL     1       1.906   6.762  22.132  0.00  0.00    +0.000 HD
ENDBRANCH  14  18
BRANCH  12  20
ATOM     20  C   UNL     1       3.461   5.803  17.643  0.00  0.00    +0.000 C 
BRANCH  20  21
ATOM     21  C   UNL     1       4.967   5.872  17.778  0.00  0.00    +0.000 A 
ATOM     22  C   UNL     1       5.583   5.443  18.967  0.00  0.00    +0.000 A 
ATOM     23  C   UNL     1       6.933   5.704  19.185  0.00  0.00    +0.000 A 
ATOM     24  C   UNL     1       7.699   6.349  18.223  0.00  0.00    +0.000 A 
ATOM     25  C   UNL     1       7.121   6.708  17.006  0.00  0.00    +0.000 A 
ATOM     26  C   UNL     1       5.763   6.469  16.791  0.00  0.00    +0.000 A 
BRANCH  23  27
ATOM     27  O   UNL     1       7.543   5.365  20.357  0.00  0.00    +0.000 OA
ATOM     28  H   UNL     1       6.867   5.075  20.989  0.00  0.00    +0.000 HD
ENDBRANCH  23  27
BRANCH  26  29
ATOM     29  O   UNL     1       5.185   6.841  15.609  0.00  0.00    +0.000 OA
ATOM     30  H   UNL     1       4.841   7.745  15.707  0.00  0.00    +0.000 HD
ENDBRANCH  26  29
ENDBRANCH  20  21
ENDBRANCH  12  20
TORSDOF 6
ENDMDL
