MODEL 1
REMARK VINA RESULT:      -8.7      0.000      0.000
REMARK  Name = 
REMARK  6 active torsions:
REMARK  status: ('A' for Active; 'I' for Inactive)
REMARK    1  A    between atoms: C_2  and  O_3
REMARK    2  A    between atoms: C_2  and  C_4
REMARK    3  A    between atoms: C_4  and  C_6
REMARK    4  A    between atoms: N_15  and  S_16
REMARK    5  A    between atoms: S_16  and  C_19
REMARK    6  A    between atoms: C_22  and  C_23
REMARK                            x       y       z     vdW  Elec       q    Type
REMARK                         _______ _______ _______ _____ _____    ______ ____
ROOT
ATOM      1  S   UNL     1       0.560  12.184  20.074  0.00  0.00    +0.000 S 
ATOM      2  O   UNL     1       0.517  12.859  18.791  0.00  0.00    +0.000 OA
ATOM      3  O   UNL     1       1.379  12.703  21.148  0.00  0.00    +0.000 OA
ENDROOT
BRANCH   1  13
ATOM      4  C   UNL     1      -1.967  13.081  19.911  0.00  0.00    +0.000 C 
ATOM      5  C   UNL     1      -2.414  14.254  20.795  0.00  0.00    +0.000 C 
ATOM      6  C   UNL     1      -3.118  13.721  22.009  0.00  0.00    +0.000 A 
ATOM      7  C   UNL     1      -4.309  14.269  22.486  0.00  0.00    +0.000 A 
ATOM      8  C   UNL     1      -4.932  13.703  23.596  0.00  0.00    +0.000 A 
ATOM      9  C   UNL     1      -4.356  12.606  24.238  0.00  0.00    +0.000 A 
ATOM     10  C   UNL     1      -3.152  12.072  23.778  0.00  0.00    +0.000 A 
ATOM     11  C   UNL     1      -2.528  12.619  22.649  0.00  0.00    +0.000 A 
ATOM     12  C   UNL     1      -1.193  12.126  22.141  0.00  0.00    +0.000 C 
ATOM     13  N   UNL     1      -1.045  12.117  20.653  0.00  0.00    +0.000 NA
BRANCH   4  14
ATOM     14  C   UNL     1      -3.149  12.324  19.317  0.00  0.00    +0.000 C 
ATOM     15  O   UNL     1      -4.296  12.256  19.762  0.00  0.00    +0.000 OA
BRANCH  14  17
ATOM     16  O   UNL     1      -3.490  10.529  17.734  0.00  0.00    +0.000 OA
ATOM     17  C   UNL     1      -2.870  11.528  18.043  0.00  0.00    +0.000 C 
BRANCH  17  18
ATOM     18  O   UNL     1      -1.876  12.080  17.329  0.00  0.00    +0.000 OA
ATOM     19  H   UNL     1      -1.281  12.583  17.935  0.00  0.00    +0.000 HD
ENDBRANCH  17  18
ENDBRANCH  14  17
ENDBRANCH   4  14
ENDBRANCH   1  13
BRANCH   1  20
ATOM     20  C   UNL     1       1.047  10.498  19.777  0.00  0.00    +0.000 A 
ATOM     21  C   UNL     1       1.510  10.115  18.513  0.00  0.00    +0.000 A 
ATOM     22  C   UNL     1       1.937   8.797  18.297  0.00  0.00    +0.000 A 
ATOM     23  C   UNL     1       1.910   7.850  19.334  0.00  0.00    +0.000 A 
ATOM     24  C   UNL     1       1.509   8.275  20.612  0.00  0.00    +0.000 A 
ATOM     25  C   UNL     1       1.090   9.590  20.836  0.00  0.00    +0.000 A 
BRANCH  23  26
ATOM     26  C   UNL     1       2.215   6.445  19.053  0.00  0.00    +0.000 A 
ATOM     27  N   UNL     1       2.734   5.907  17.962  0.00  0.00    +0.000 NA
ATOM     28  C   UNL     1       2.572   4.556  18.153  0.00  0.00    +0.000 A 
ATOM     29  C   UNL     1       2.849   3.463  17.321  0.00  0.00    +0.000 A 
ATOM     30  C   UNL     1       2.512   2.178  17.779  0.00  0.00    +0.000 A 
ATOM     31  C   UNL     1       1.937   1.987  19.042  0.00  0.00    +0.000 A 
ATOM     32  C   UNL     1       1.673   3.068  19.893  0.00  0.00    +0.000 A 
ATOM     33  C   UNL     1       1.999   4.323  19.392  0.00  0.00    +0.000 A 
ATOM     34  O   UNL     1       1.787   5.531  19.987  0.00  0.00    +0.000 OA
ENDBRANCH  23  26
ENDBRANCH   1  20
TORSDOF 6
ENDMDL
MODEL 2
REMARK VINA RESULT:      -8.6      0.928      1.270
REMARK  Name = 
REMARK  6 active torsions:
REMARK  status: ('A' for Active; 'I' for Inactive)
REMARK    1  A    between atoms: C_2  and  O_3
REMARK    2  A    between atoms: C_2  and  C_4
REMARK    3  A    between atoms: C_4  and  C_6
REMARK    4  A    between atoms: N_15  and  S_16
REMARK    5  A    between atoms: S_16  and  C_19
REMARK    6  A    between atoms: C_22  and  C_23
REMARK                            x       y       z     vdW  Elec       q    Type
REMARK                         _______ _______ _______ _____ _____    ______ ____
ROOT
ATOM      1  S   UNL     1       0.964  11.876  19.847  0.00  0.00    +0.000 S 
ATOM      2  O   UNL     1       0.949  12.603  18.591  0.00  0.00    +0.000 OA
ATOM      3  O   UNL     1       1.786  12.330  20.947  0.00  0.00    +0.000 OA
ENDROOT
BRANCH   1  13
ATOM      4  C   UNL     1      -1.565  12.752  19.614  0.00  0.00    +0.000 C 
ATOM      5  C   UNL     1      -2.027  13.961  20.438  0.00  0.00    +0.000 C 
ATOM      6  C   UNL     1      -2.742  13.481  21.668  0.00  0.00    +0.000 A 
ATOM      7  C   UNL     1      -3.941  14.044  22.106  0.00  0.00    +0.000 A 
ATOM      8  C   UNL     1      -4.575  13.526  23.234  0.00  0.00    +0.000 A 
ATOM      9  C   UNL     1      -4.001  12.463  23.931  0.00  0.00    +0.000 A 
ATOM     10  C   UNL     1      -2.789  11.915  23.510  0.00  0.00    +0.000 A 
ATOM     11  C   UNL     1      -2.155  12.412  22.364  0.00  0.00    +0.000 A 
ATOM     12  C   UNL     1      -0.811  11.903  21.894  0.00  0.00    +0.000 C 
ATOM     13  N   UNL     1      -0.647  11.827  20.410  0.00  0.00    +0.000 NA
BRANCH   4  14
ATOM     14  C   UNL     1      -2.737  11.963  19.042  0.00  0.00    +0.000 C 
ATOM     15  O   UNL     1      -3.927  12.062  19.345  0.00  0.00    +0.000 OA
BRANCH  14  17
ATOM     16  O   UNL     1      -3.022   9.869  17.867  0.00  0.00    +0.000 OA
ATOM     17  C   UNL     1      -2.390  10.899  18.001  0.00  0.00    +0.000 C 
BRANCH  17  18
ATOM     18  O   UNL     1      -1.325  11.260  17.268  0.00  0.00    +0.000 OA
ATOM     19  H   UNL     1      -1.505  12.133  16.842  0.00  0.00    +0.000 HD
ENDBRANCH  17  18
ENDBRANCH  14  17
ENDBRANCH   4  14
ENDBRANCH   1  13
BRANCH   1  20
ATOM     20  C   UNL     1       1.411  10.191  19.485  0.00  0.00    +0.000 A 
ATOM     21  C   UNL     1       1.321   9.213  20.483  0.00  0.00    +0.000 A 
ATOM     22  C   UNL     1       1.629   7.879  20.180  0.00  0.00    +0.000 A 
ATOM     23  C   UNL     1       2.024   7.504  18.886  0.00  0.00    +0.000 A 
ATOM     24  C   UNL     1       2.038   8.489  17.884  0.00  0.00    +0.000 A 
ATOM     25  C   UNL     1       1.724   9.821  18.176  0.00  0.00    +0.000 A 
BRANCH  23  26
ATOM     26  C   UNL     1       2.485   6.138  18.626  0.00  0.00    +0.000 A 
ATOM     27  N   UNL     1       2.007   5.246  17.775  0.00  0.00    +0.000 NA
ATOM     28  C   UNL     1       2.652   4.083  18.122  0.00  0.00    +0.000 A 
ATOM     29  C   UNL     1       2.521   2.772  17.645  0.00  0.00    +0.000 A 
ATOM     30  C   UNL     1       3.290   1.764  18.250  0.00  0.00    +0.000 A 
ATOM     31  C   UNL     1       4.185   2.061  19.286  0.00  0.00    +0.000 A 
ATOM     32  C   UNL     1       4.343   3.369  19.759  0.00  0.00    +0.000 A 
ATOM     33  C   UNL     1       3.546   4.331  19.150  0.00  0.00    +0.000 A 
ATOM     34  O   UNL     1       3.461   5.655  19.466  0.00  0.00    +0.000 OA
ENDBRANCH  23  26
ENDBRANCH   1  20
TORSDOF 6
ENDMDL
MODEL 3
REMARK VINA RESULT:      -8.3      2.337      3.753
REMARK  Name = 
REMARK  6 active torsions:
REMARK  status: ('A' for Active; 'I' for Inactive)
REMARK    1  A    between atoms: C_2  and  O_3
REMARK    2  A    between atoms: C_2  and  C_4
REMARK    3  A    between atoms: C_4  and  C_6
REMARK    4  A    between atoms: N_15  and  S_16
REMARK    5  A    between atoms: S_16  and  C_19
REMARK    6  A    between atoms: C_22  and  C_23
REMARK                            x       y       z     vdW  Elec       q    Type
REMARK                         _______ _______ _______ _____ _____    ______ ____
ROOT
ATOM      1  S   UNL     1       0.243  10.550  21.028  0.00  0.00    +0.000 S 
ATOM      2  O   UNL     1       1.206  11.522  21.511  0.00  0.00    +0.000 OA
ATOM      3  O   UNL     1      -0.590   9.819  21.957  0.00  0.00    +0.000 OA
ENDROOT
BRANCH   1  13
ATOM      4  C   UNL     1      -1.425  12.613  20.604  0.00  0.00    +0.000 C 
ATOM      5  C   UNL     1      -2.928  12.438  20.862  0.00  0.00    +0.000 C 
ATOM      6  C   UNL     1      -3.624  12.143  19.564  0.00  0.00    +0.000 A 
ATOM      7  C   UNL     1      -4.820  12.760  19.199  0.00  0.00    +0.000 A 
ATOM      8  C   UNL     1      -5.395  12.471  17.963  0.00  0.00    +0.000 A 
ATOM      9  C   UNL     1      -4.785  11.554  17.105  0.00  0.00    +0.000 A 
ATOM     10  C   UNL     1      -3.602  10.917  17.480  0.00  0.00    +0.000 A 
ATOM     11  C   UNL     1      -3.003  11.218  18.710  0.00  0.00    +0.000 A 
ATOM     12  C   UNL     1      -1.757  10.515  19.199  0.00  0.00    +0.000 C 
ATOM     13  N   UNL     1      -0.801  11.378  19.960  0.00  0.00    +0.000 NA
BRANCH   4  14
ATOM     14  C   UNL     1      -1.124  13.850  19.766  0.00  0.00    +0.000 C 
ATOM     15  O   UNL     1      -1.605  14.978  19.894  0.00  0.00    +0.000 OA
BRANCH  14  17
ATOM     16  O   UNL     1       1.048  13.879  18.707  0.00  0.00    +0.000 OA
ATOM     17  C   UNL     1      -0.144  13.660  18.610  0.00  0.00    +0.000 C 
BRANCH  17  18
ATOM     18  O   UNL     1      -0.768  13.221  17.506  0.00  0.00    +0.000 OA
ATOM     19  H   UNL     1      -1.573  12.713  17.768  0.00  0.00    +0.000 HD
ENDBRANCH  17  18
ENDBRANCH  14  17
ENDBRANCH   4  14
ENDBRANCH   1  13
BRANCH   1  20
ATOM     20  C   UNL     1       1.128   9.368  20.033  0.00  0.00    +0.000 A 
ATOM     21  C   UNL     1       1.523   8.144  20.586  0.00  0.00    +0.000 A 
ATOM     22  C   UNL     1       2.178   7.198  19.785  0.00  0.00    +0.000 A 
ATOM     23  C   UNL     1       2.444   7.456  18.431  0.00  0.00    +0.000 A 
ATOM     24  C   UNL     1       1.974   8.661  17.880  0.00  0.00    +0.000 A 
ATOM     25  C   UNL     1       1.313   9.607  18.671  0.00  0.00    +0.000 A 
BRANCH  23  26
ATOM     26  C   UNL     1       3.259   6.522  17.650  0.00  0.00    +0.000 A 
ATOM     27  N   UNL     1       3.191   5.203  17.595  0.00  0.00    +0.000 NA
ATOM     28  C   UNL     1       4.329   4.844  16.913  0.00  0.00    +0.000 A 
ATOM     29  C   UNL     1       4.864   3.587  16.601  0.00  0.00    +0.000 A 
ATOM     30  C   UNL     1       6.099   3.539  15.932  0.00  0.00    +0.000 A 
ATOM     31  C   UNL     1       6.768   4.713  15.563  0.00  0.00    +0.000 A 
ATOM     32  C   UNL     1       6.236   5.976  15.850  0.00  0.00    +0.000 A 
ATOM     33  C   UNL     1       5.026   5.979  16.533  0.00  0.00    +0.000 A 
ATOM     34  O   UNL     1       4.334   7.063  16.984  0.00  0.00    +0.000 OA
ENDBRANCH  23  26
ENDBRANCH   1  20
TORSDOF 6
ENDMDL
MODEL 4
REMARK VINA RESULT:      -8.3      0.790      1.120
REMARK  Name = 
REMARK  6 active torsions:
REMARK  status: ('A' for Active; 'I' for Inactive)
REMARK    1  A    between atoms: C_2  and  O_3
REMARK    2  A    between atoms: C_2  and  C_4
REMARK    3  A    between atoms: C_4  and  C_6
REMARK    4  A    between atoms: N_15  and  S_16
REMARK    5  A    between atoms: S_16  and  C_19
REMARK    6  A    between atoms: C_22  and  C_23
REMARK                            x       y       z     vdW  Elec       q    Type
REMARK                         _______ _______ _______ _____ _____    ______ ____
ROOT
ATOM      1  S   UNL     1       0.658  11.931  20.136  0.00  0.00    +0.000 S 
ATOM      2  O   UNL     1       0.687  12.529  18.814  0.00  0.00    +0.000 OA
ATOM      3  O   UNL     1       1.454  12.485  21.209  0.00  0.00    +0.000 OA
ENDROOT
BRANCH   1  13
ATOM      4  C   UNL     1      -1.821  12.923  19.839  0.00  0.00    +0.000 C 
ATOM      5  C   UNL     1      -2.251  14.147  20.659  0.00  0.00    +0.000 C 
ATOM      6  C   UNL     1      -3.022  13.692  21.865  0.00  0.00    +0.000 A 
ATOM      7  C   UNL     1      -4.206  14.306  22.273  0.00  0.00    +0.000 A 
ATOM      8  C   UNL     1      -4.894  13.811  23.379  0.00  0.00    +0.000 A 
ATOM      9  C   UNL     1      -4.389  12.718  24.084  0.00  0.00    +0.000 A 
ATOM     10  C   UNL     1      -3.191  12.118  23.693  0.00  0.00    +0.000 A 
ATOM     11  C   UNL     1      -2.504  12.594  22.568  0.00  0.00    +0.000 A 
ATOM     12  C   UNL     1      -1.172  12.027  22.133  0.00  0.00    +0.000 C 
ATOM     13  N   UNL     1      -0.969  11.953  20.653  0.00  0.00    +0.000 NA
BRANCH   4  14
ATOM     14  C   UNL     1      -3.011  12.191  19.229  0.00  0.00    +0.000 C 
ATOM     15  O   UNL     1      -4.154  12.110  19.682  0.00  0.00    +0.000 OA
BRANCH  14  17
ATOM     16  O   UNL     1      -3.577  10.742  17.378  0.00  0.00    +0.000 OA
ATOM     17  C   UNL     1      -2.745  11.441  17.924  0.00  0.00    +0.000 C 
BRANCH  17  18
ATOM     18  O   UNL     1      -1.501  11.665  17.475  0.00  0.00    +0.000 OA
ATOM     19  H   UNL     1      -1.409  12.617  17.232  0.00  0.00    +0.000 HD
ENDBRANCH  17  18
ENDBRANCH  14  17
ENDBRANCH   4  14
ENDBRANCH   1  13
BRANCH   1  20
ATOM     20  C   UNL     1       1.095  10.215  19.957  0.00  0.00    +0.000 A 
ATOM     21  C   UNL     1       1.576   9.738  18.732  0.00  0.00    +0.000 A 
ATOM     22  C   UNL     1       1.963   8.396  18.610  0.00  0.00    +0.000 A 
ATOM     23  C   UNL     1       1.879   7.517  19.702  0.00  0.00    +0.000 A 
ATOM     24  C   UNL     1       1.461   8.035  20.940  0.00  0.00    +0.000 A 
ATOM     25  C   UNL     1       1.081   9.375  21.071  0.00  0.00    +0.000 A 
BRANCH  23  26
ATOM     26  C   UNL     1       2.144   6.089  19.518  0.00  0.00    +0.000 A 
ATOM     27  N   UNL     1       2.430   5.171  20.426  0.00  0.00    +0.000 NA
ATOM     28  C   UNL     1       2.817   4.082  19.682  0.00  0.00    +0.000 A 
ATOM     29  C   UNL     1       3.310   2.827  20.063  0.00  0.00    +0.000 A 
ATOM     30  C   UNL     1       3.683   1.925  19.052  0.00  0.00    +0.000 A 
ATOM     31  C   UNL     1       3.545   2.258  17.698  0.00  0.00    +0.000 A 
ATOM     32  C   UNL     1       3.035   3.500  17.302  0.00  0.00    +0.000 A 
ATOM     33  C   UNL     1       2.700   4.371  18.332  0.00  0.00    +0.000 A 
ATOM     34  O   UNL     1       2.248   5.652  18.218  0.00  0.00    +0.000 OA
ENDBRANCH  23  26
ENDBRANCH   1  20
TORSDOF 6
ENDMDL
MODEL 5
REMARK VINA RESULT:      -8.3      2.355      3.758
REMARK  Name = 
REMARK  6 active torsions:
REMARK  status: ('A' for Active; 'I' for Inactive)
REMARK    1  A    between atoms: C_2  and  O_3
REMARK    2  A    between atoms: C_2  and  C_4
REMARK    3  A    between atoms: C_4  and  C_6
REMARK    4  A    between atoms: N_15  and  S_16
REMARK    5  A    between atoms: S_16  and  C_19
REMARK    6  A    between atoms: C_22  and  C_23
REMARK                            x       y       z     vdW  Elec       q    Type
REMARK                         _______ _______ _______ _____ _____    ______ ____
ROOT
ATOM      1  S   UNL     1       0.111  10.347  20.954  0.00  0.00    +0.000 S 
ATOM      2  O   UNL     1       0.947  11.336  21.608  0.00  0.00    +0.000 OA
ATOM      3  O   UNL     1      -0.759   9.493  21.732  0.00  0.00    +0.000 OA
ENDROOT
BRANCH   1  13
ATOM      4  C   UNL     1      -1.531  12.416  20.466  0.00  0.00    +0.000 C 
ATOM      5  C   UNL     1      -3.046  12.239  20.639  0.00  0.00    +0.000 C 
ATOM      6  C   UNL     1      -3.670  11.961  19.301  0.00  0.00    +0.000 A 
ATOM      7  C   UNL     1      -4.844  12.583  18.878  0.00  0.00    +0.000 A 
ATOM      8  C   UNL     1      -5.351  12.310  17.609  0.00  0.00    +0.000 A 
ATOM      9  C   UNL     1      -4.695  11.403  16.775  0.00  0.00    +0.000 A 
ATOM     10  C   UNL     1      -3.534  10.761  17.206  0.00  0.00    +0.000 A 
ATOM     11  C   UNL     1      -3.003  11.046  18.471  0.00  0.00    +0.000 A 
ATOM     12  C   UNL     1      -1.786  10.336  19.018  0.00  0.00    +0.000 C 
ATOM     13  N   UNL     1      -0.873  11.188  19.842  0.00  0.00    +0.000 NA
BRANCH   4  14
ATOM     14  C   UNL     1      -1.185  13.663  19.661  0.00  0.00    +0.000 C 
ATOM     15  O   UNL     1      -1.641  14.799  19.804  0.00  0.00    +0.000 OA
BRANCH  14  17
ATOM     16  O   UNL     1       1.014  13.609  18.658  0.00  0.00    +0.000 OA
ATOM     17  C   UNL     1      -0.187  13.475  18.520  0.00  0.00    +0.000 C 
BRANCH  17  18
ATOM     18  O   UNL     1      -0.806  13.139  17.377  0.00  0.00    +0.000 OA
ATOM     19  H   UNL     1      -0.576  13.797  16.678  0.00  0.00    +0.000 HD
ENDBRANCH  17  18
ENDBRANCH  14  17
ENDBRANCH   4  14
ENDBRANCH   1  13
BRANCH   1  20
ATOM     20  C   UNL     1       1.176   9.305  19.980  0.00  0.00    +0.000 A 
ATOM     21  C   UNL     1       1.570   8.054  20.468  0.00  0.00    +0.000 A 
ATOM     22  C   UNL     1       2.370   7.218  19.677  0.00  0.00    +0.000 A 
ATOM     23  C   UNL     1       2.784   7.615  18.394  0.00  0.00    +0.000 A 
ATOM     24  C   UNL     1       2.317   8.844  17.897  0.00  0.00    +0.000 A 
ATOM     25  C   UNL     1       1.512   9.679  18.678  0.00  0.00    +0.000 A 
BRANCH  23  26
ATOM     26  C   UNL     1       3.740   6.796  17.644  0.00  0.00    +0.000 A 
ATOM     27  N   UNL     1       4.550   7.153  16.662  0.00  0.00    +0.000 NA
ATOM     28  C   UNL     1       5.026   5.957  16.179  0.00  0.00    +0.000 A 
ATOM     29  C   UNL     1       5.862   5.663  15.094  0.00  0.00    +0.000 A 
ATOM     30  C   UNL     1       6.128   4.313  14.808  0.00  0.00    +0.000 A 
ATOM     31  C   UNL     1       5.595   3.287  15.598  0.00  0.00    +0.000 A 
ATOM     32  C   UNL     1       4.775   3.566  16.698  0.00  0.00    +0.000 A 
ATOM     33  C   UNL     1       4.518   4.912  16.932  0.00  0.00    +0.000 A 
ATOM     34  O   UNL     1       3.706   5.444  17.890  0.00  0.00    +0.000 OA
ENDBRANCH  23  26
ENDBRANCH   1  20
TORSDOF 6
ENDMDL
MODEL 6
REMARK VINA RESULT:      -8.3      3.160      4.920
REMARK  Name = 
REMARK  6 active torsions:
REMARK  status: ('A' for Active; 'I' for Inactive)
REMARK    1  A    between atoms: C_2  and  O_3
REMARK    2  A    between atoms: C_2  and  C_4
REMARK    3  A    between atoms: C_4  and  C_6
REMARK    4  A    between atoms: N_15  and  S_16
REMARK    5  A    between atoms: S_16  and  C_19
REMARK    6  A    between atoms: C_22  and  C_23
REMARK                            x       y       z     vdW  Elec       q    Type
REMARK                         _______ _______ _______ _____ _____    ______ ____
ROOT
ATOM      1  S   UNL     1      -0.551  11.038  20.183  0.00  0.00    +0.000 S 
ATOM      2  O   UNL     1      -0.888  10.719  21.557  0.00  0.00    +0.000 OA
ATOM      3  O   UNL     1      -1.590  11.170  19.185  0.00  0.00    +0.000 OA
ENDROOT
BRANCH   1  13
ATOM      4  C   UNL     1       0.222  13.259  18.884  0.00  0.00    +0.000 C 
ATOM      5  C   UNL     1       1.565  13.274  18.141  0.00  0.00    +0.000 C 
ATOM      6  C   UNL     1       2.607  13.917  19.011  0.00  0.00    +0.000 A 
ATOM      7  C   UNL     1       3.515  14.857  18.523  0.00  0.00    +0.000 A 
ATOM      8  C   UNL     1       4.433  15.444  19.392  0.00  0.00    +0.000 A 
ATOM      9  C   UNL     1       4.454  15.078  20.738  0.00  0.00    +0.000 A 
ATOM     10  C   UNL     1       3.563  14.120  21.223  0.00  0.00    +0.000 A 
ATOM     11  C   UNL     1       2.622  13.540  20.363  0.00  0.00    +0.000 A 
ATOM     12  C   UNL     1       1.674  12.452  20.814  0.00  0.00    +0.000 C 
ATOM     13  N   UNL     1       0.306  12.515  20.214  0.00  0.00    +0.000 NA
BRANCH   4  14
ATOM     14  C   UNL     1      -0.331  14.663  19.101  0.00  0.00    +0.000 C 
ATOM     15  O   UNL     1      -0.070  15.680  18.457  0.00  0.00    +0.000 OA
BRANCH  14  17
ATOM     16  O   UNL     1      -1.076  15.589  21.207  0.00  0.00    +0.000 OA
ATOM     17  C   UNL     1      -1.291  14.835  20.278  0.00  0.00    +0.000 C 
BRANCH  17  18
ATOM     18  O   UNL     1      -2.380  14.063  20.138  0.00  0.00    +0.000 OA
ATOM     19  H   UNL     1      -2.249  13.222  20.638  0.00  0.00    +0.000 HD
ENDBRANCH  17  18
ENDBRANCH  14  17
ENDBRANCH   4  14
ENDBRANCH   1  13
BRANCH   1  20
ATOM     20  C   UNL     1       0.605   9.810  19.615  0.00  0.00    +0.000 A 
ATOM     21  C   UNL     1       1.068   8.824  20.494  0.00  0.00    +0.000 A 
ATOM     22  C   UNL     1       1.942   7.831  20.028  0.00  0.00    +0.000 A 
ATOM     23  C   UNL     1       2.361   7.806  18.688  0.00  0.00    +0.000 A 
ATOM     24  C   UNL     1       1.827   8.763  17.808  0.00  0.00    +0.000 A 
ATOM     25  C   UNL     1       0.948   9.752  18.263  0.00  0.00    +0.000 A 
BRANCH  23  26
ATOM     26  C   UNL     1       3.388   6.855  18.257  0.00  0.00    +0.000 A 
ATOM     27  N   UNL     1       4.054   5.966  18.975  0.00  0.00    +0.000 NA
ATOM     28  C   UNL     1       5.042   5.532  18.123  0.00  0.00    +0.000 A 
ATOM     29  C   UNL     1       6.112   4.649  18.320  0.00  0.00    +0.000 A 
ATOM     30  C   UNL     1       7.008   4.444  17.258  0.00  0.00    +0.000 A 
ATOM     31  C   UNL     1       6.827   5.084  16.025  0.00  0.00    +0.000 A 
ATOM     32  C   UNL     1       5.751   5.953  15.807  0.00  0.00    +0.000 A 
ATOM     33  C   UNL     1       4.902   6.146  16.890  0.00  0.00    +0.000 A 
ATOM     34  O   UNL     1       3.828   6.982  16.960  0.00  0.00    +0.000 OA
ENDBRANCH  23  26
ENDBRANCH   1  20
TORSDOF 6
ENDMDL
MODEL 7
REMARK VINA RESULT:      -8.1      1.197      1.855
REMARK  Name = 
REMARK  6 active torsions:
REMARK  status: ('A' for Active; 'I' for Inactive)
REMARK    1  A    between atoms: C_2  and  O_3
REMARK    2  A    between atoms: C_2  and  C_4
REMARK    3  A    between atoms: C_4  and  C_6
REMARK    4  A    between atoms: N_15  and  S_16
REMARK    5  A    between atoms: S_16  and  C_19
REMARK    6  A    between atoms: C_22  and  C_23
REMARK                            x       y       z     vdW  Elec       q    Type
REMARK                         _______ _______ _______ _____ _____    ______ ____
ROOT
ATOM      1  S   UNL     1       0.633  12.627  20.300  0.00  0.00    +0.000 S 
ATOM      2  O   UNL     1       0.593  13.565  19.195  0.00  0.00    +0.000 OA
ATOM      3  O   UNL     1       1.415  12.919  21.482  0.00  0.00    +0.000 OA
ENDROOT
BRANCH   1  13
ATOM      4  C   UNL     1      -1.963  13.266  20.033  0.00  0.00    +0.000 C 
ATOM      5  C   UNL     1      -2.563  14.380  20.902  0.00  0.00    +0.000 C 
ATOM      6  C   UNL     1      -3.260  13.767  22.083  0.00  0.00    +0.000 A 
ATOM      7  C   UNL     1      -4.519  14.188  22.511  0.00  0.00    +0.000 A 
ATOM      8  C   UNL     1      -5.128  13.553  23.591  0.00  0.00    +0.000 A 
ATOM      9  C   UNL     1      -4.471  12.514  24.252  0.00  0.00    +0.000 A 
ATOM     10  C   UNL     1      -3.201  12.109  23.841  0.00  0.00    +0.000 A 
ATOM     11  C   UNL     1      -2.589  12.725  22.742  0.00  0.00    +0.000 A 
ATOM     12  C   UNL     1      -1.190  12.374  22.290  0.00  0.00    +0.000 C 
ATOM     13  N   UNL     1      -0.980  12.394  20.810  0.00  0.00    +0.000 NA
BRANCH   4  14
ATOM     14  C   UNL     1      -3.036  12.399  19.385  0.00  0.00    +0.000 C 
ATOM     15  O   UNL     1      -4.197  12.235  19.764  0.00  0.00    +0.000 OA
BRANCH  14  17
ATOM     16  O   UNL     1      -3.111  10.550  17.829  0.00  0.00    +0.000 OA
ATOM     17  C   UNL     1      -2.612  11.613  18.146  0.00  0.00    +0.000 C 
BRANCH  17  18
ATOM     18  O   UNL     1      -1.644  12.251  17.469  0.00  0.00    +0.000 OA
ATOM     19  H   UNL     1      -1.404  13.079  17.949  0.00  0.00    +0.000 HD
ENDBRANCH  17  18
ENDBRANCH  14  17
ENDBRANCH   4  14
ENDBRANCH   1  13
BRANCH   1  20
ATOM     20  C   UNL     1       1.178  11.060  19.655  0.00  0.00    +0.000 A 
ATOM     21  C   UNL     1       1.026   9.897  20.418  0.00  0.00    +0.000 A 
ATOM     22  C   UNL     1       1.413   8.659  19.886  0.00  0.00    +0.000 A 
ATOM     23  C   UNL     1       1.951   8.564  18.592  0.00  0.00    +0.000 A 
ATOM     24  C   UNL     1       2.028   9.735  17.818  0.00  0.00    +0.000 A 
ATOM     25  C   UNL     1       1.635  10.972  18.339  0.00  0.00    +0.000 A 
BRANCH  23  26
ATOM     26  C   UNL     1       2.488   7.289  18.111  0.00  0.00    +0.000 A 
ATOM     27  N   UNL     1       2.062   6.061  18.355  0.00  0.00    +0.000 NA
ATOM     28  C   UNL     1       3.065   5.262  17.861  0.00  0.00    +0.000 A 
ATOM     29  C   UNL     1       3.240   3.872  17.887  0.00  0.00    +0.000 A 
ATOM     30  C   UNL     1       4.421   3.341  17.342  0.00  0.00    +0.000 A 
ATOM     31  C   UNL     1       5.389   4.172  16.765  0.00  0.00    +0.000 A 
ATOM     32  C   UNL     1       5.220   5.561  16.714  0.00  0.00    +0.000 A 
ATOM     33  C   UNL     1       4.049   6.047  17.284  0.00  0.00    +0.000 A 
ATOM     34  O   UNL     1       3.676   7.351  17.422  0.00  0.00    +0.000 OA
ENDBRANCH  23  26
ENDBRANCH   1  20
TORSDOF 6
ENDMDL
MODEL 8
REMARK VINA RESULT:      -8.1      2.975      4.738
REMARK  Name = 
REMARK  6 active torsions:
REMARK  status: ('A' for Active; 'I' for Inactive)
REMARK    1  A    between atoms: C_2  and  O_3
REMARK    2  A    between atoms: C_2  and  C_4
REMARK    3  A    between atoms: C_4  and  C_6
REMARK    4  A    between atoms: N_15  and  S_16
REMARK    5  A    between atoms: S_16  and  C_19
REMARK    6  A    between atoms: C_22  and  C_23
REMARK                            x       y       z     vdW  Elec       q    Type
REMARK                         _______ _______ _______ _____ _____    ______ ____
ROOT
ATOM      1  S   UNL     1      -0.671  11.200  20.670  0.00  0.00    +0.000 S 
ATOM      2  O   UNL     1      -0.883  10.773  22.040  0.00  0.00    +0.000 OA
ATOM      3  O   UNL     1      -1.795  11.393  19.780  0.00  0.00    +0.000 OA
ENDROOT
BRANCH   1  13
ATOM      4  C   UNL     1      -0.619  13.830  20.120  0.00  0.00    +0.000 C 
ATOM      5  C   UNL     1      -0.004  14.316  18.801  0.00  0.00    +0.000 C 
ATOM      6  C   UNL     1       1.410  14.758  19.045  0.00  0.00    +0.000 A 
ATOM      7  C   UNL     1       1.929  15.939  18.513  0.00  0.00    +0.000 A 
ATOM      8  C   UNL     1       3.238  16.312  18.809  0.00  0.00    +0.000 A 
ATOM      9  C   UNL     1       4.031  15.498  19.619  0.00  0.00    +0.000 A 
ATOM     10  C   UNL     1       3.522  14.304  20.132  0.00  0.00    +0.000 A 
ATOM     11  C   UNL     1       2.200  13.931  19.859  0.00  0.00    +0.000 A 
ATOM     12  C   UNL     1       1.612  12.621  20.333  0.00  0.00    +0.000 C 
ATOM     13  N   UNL     1       0.174  12.682  20.739  0.00  0.00    +0.000 NA
BRANCH   4  14
ATOM     14  C   UNL     1      -0.784  14.959  21.130  0.00  0.00    +0.000 C 
ATOM     15  O   UNL     1      -1.240  16.086  20.928  0.00  0.00    +0.000 OA
BRANCH  14  17
ATOM     16  O   UNL     1       0.635  15.272  23.062  0.00  0.00    +0.000 OA
ATOM     17  C   UNL     1      -0.290  14.674  22.548  0.00  0.00    +0.000 C 
BRANCH  17  18
ATOM     18  O   UNL     1      -1.010  13.703  23.131  0.00  0.00    +0.000 OA
ATOM     19  H   UNL     1      -1.911  14.049  23.342  0.00  0.00    +0.000 HD
ENDBRANCH  17  18
ENDBRANCH  14  17
ENDBRANCH   4  14
ENDBRANCH   1  13
BRANCH   1  20
ATOM     20  C   UNL     1       0.439  10.035  19.910  0.00  0.00    +0.000 A 
ATOM     21  C   UNL     1       0.990   8.995  20.668  0.00  0.00    +0.000 A 
ATOM     22  C   UNL     1       1.826   8.053  20.054  0.00  0.00    +0.000 A 
ATOM     23  C   UNL     1       2.120   8.131  18.683  0.00  0.00    +0.000 A 
ATOM     24  C   UNL     1       1.499   9.141  17.928  0.00  0.00    +0.000 A 
ATOM     25  C   UNL     1       0.656  10.080  18.532  0.00  0.00    +0.000 A 
BRANCH  23  26
ATOM     26  C   UNL     1       3.112   7.230  18.091  0.00  0.00    +0.000 A 
ATOM     27  N   UNL     1       4.102   7.512  17.261  0.00  0.00    +0.000 NA
ATOM     28  C   UNL     1       4.545   6.278  16.848  0.00  0.00    +0.000 A 
ATOM     29  C   UNL     1       5.521   5.909  15.912  0.00  0.00    +0.000 A 
ATOM     30  C   UNL     1       5.711   4.541  15.656  0.00  0.00    +0.000 A 
ATOM     31  C   UNL     1       4.965   3.567  16.332  0.00  0.00    +0.000 A 
ATOM     32  C   UNL     1       4.001   3.919  17.285  0.00  0.00    +0.000 A 
ATOM     33  C   UNL     1       3.828   5.283  17.491  0.00  0.00    +0.000 A 
ATOM     34  O   UNL     1       2.919   5.886  18.308  0.00  0.00    +0.000 OA
ENDBRANCH  23  26
ENDBRANCH   1  20
TORSDOF 6
ENDMDL
MODEL 9
REMARK VINA RESULT:      -8.0      2.983      4.758
REMARK  Name = 
REMARK  6 active torsions:
REMARK  status: ('A' for Active; 'I' for Inactive)
REMARK    1  A    between atoms: C_2  and  O_3
REMARK    2  A    between atoms: C_2  and  C_4
REMARK    3  A    between atoms: C_4  and  C_6
REMARK    4  A    between atoms: N_15  and  S_16
REMARK    5  A    between atoms: S_16  and  C_19
REMARK    6  A    between atoms: C_22  and  C_23
REMARK                            x       y       z     vdW  Elec       q    Type
REMARK                         _______ _______ _______ _____ _____    ______ ____
ROOT
ATOM      1  S   UNL     1      -0.802  11.943  19.125  0.00  0.00    +0.000 S 
ATOM      2  O   UNL     1      -1.837  12.004  20.140  0.00  0.00    +0.000 OA
ATOM      3  O   UNL     1      -1.143  12.037  17.723  0.00  0.00    +0.000 OA
ENDROOT
BRANCH   1  13
ATOM      4  C   UNL     1      -0.405  14.557  19.603  0.00  0.00    +0.000 C 
ATOM      5  C   UNL     1      -0.087  15.501  18.435  0.00  0.00    +0.000 C 
ATOM      6  C   UNL     1       1.398  15.711  18.356  0.00  0.00    +0.000 A 
ATOM      7  C   UNL     1       1.967  16.970  18.163  0.00  0.00    +0.000 A 
ATOM      8  C   UNL     1       3.354  17.103  18.137  0.00  0.00    +0.000 A 
ATOM      9  C   UNL     1       4.167  15.979  18.286  0.00  0.00    +0.000 A 
ATOM     10  C   UNL     1       3.599  14.715  18.455  0.00  0.00    +0.000 A 
ATOM     11  C   UNL     1       2.206  14.574  18.505  0.00  0.00    +0.000 A 
ATOM     12  C   UNL     1       1.532  13.225  18.622  0.00  0.00    +0.000 C 
ATOM     13  N   UNL     1       0.295  13.207  19.462  0.00  0.00    +0.000 NA
BRANCH   4  14
ATOM     14  C   UNL     1      -0.076  15.180  20.954  0.00  0.00    +0.000 C 
ATOM     15  O   UNL     1      -0.350  16.317  21.343  0.00  0.00    +0.000 OA
BRANCH  14  17
ATOM     16  O   UNL     1       1.862  14.560  22.260  0.00  0.00    +0.000 OA
ATOM     17  C   UNL     1       0.721  14.308  21.924  0.00  0.00    +0.000 C 
BRANCH  17  18
ATOM     18  O   UNL     1      -0.002  13.259  22.346  0.00  0.00    +0.000 OA
ATOM     19  H   UNL     1      -0.876  13.260  21.886  0.00  0.00    +0.000 HD
ENDBRANCH  17  18
ENDBRANCH  14  17
ENDBRANCH   4  14
ENDBRANCH   1  13
BRANCH   1  20
ATOM     20  C   UNL     1       0.102  10.429  19.372  0.00  0.00    +0.000 A 
ATOM     21  C   UNL     1       0.759   9.822  18.295  0.00  0.00    +0.000 A 
ATOM     22  C   UNL     1       1.507   8.656  18.504  0.00  0.00    +0.000 A 
ATOM     23  C   UNL     1       1.613   8.083  19.782  0.00  0.00    +0.000 A 
ATOM     24  C   UNL     1       1.005   8.749  20.860  0.00  0.00    +0.000 A 
ATOM     25  C   UNL     1       0.263   9.918  20.660  0.00  0.00    +0.000 A 
BRANCH  23  26
ATOM     26  C   UNL     1       2.272   6.787  19.954  0.00  0.00    +0.000 A 
ATOM     27  N   UNL     1       3.231   6.237  19.228  0.00  0.00    +0.000 NA
ATOM     28  C   UNL     1       3.289   4.943  19.686  0.00  0.00    +0.000 A 
ATOM     29  C   UNL     1       4.049   3.843  19.265  0.00  0.00    +0.000 A 
ATOM     30  C   UNL     1       3.840   2.608  19.902  0.00  0.00    +0.000 A 
ATOM     31  C   UNL     1       2.917   2.480  20.947  0.00  0.00    +0.000 A 
ATOM     32  C   UNL     1       2.165   3.574  21.393  0.00  0.00    +0.000 A 
ATOM     33  C   UNL     1       2.384   4.770  20.721  0.00  0.00    +0.000 A 
ATOM     34  O   UNL     1       1.742   5.957  20.914  0.00  0.00    +0.000 OA
ENDBRANCH  23  26
ENDBRANCH   1  20
TORSDOF 6
ENDMDL
