MODEL 1
REMARK VINA RESULT:      -8.1      0.000      0.000
REMARK  Name = 
REMARK  7 active torsions:
REMARK  status: ('A' for Active; 'I' for Inactive)
REMARK    1  A    between atoms: C_1  and  C_2
REMARK    2  A    between atoms: C_4  and  C_5
REMARK    3  A    between atoms: N_10  and  C_11
REMARK    4  A    between atoms: C_11  and  C_12
REMARK    5  A    between atoms: C_20  and  C_21
REMARK    6  A    between atoms: N_22  and  C_23
REMARK    7  A    between atoms: C_27  and  C_28
REMARK                            x       y       z     vdW  Elec       q    Type
REMARK                         _______ _______ _______ _____ _____    ______ ____
ROOT
ATOM      1  C   UNL     1       1.879   4.474  21.204  0.00  0.00    +0.000 C 
ATOM      2  C   UNL     1       1.832   5.828  20.575  0.00  0.00    +0.000 A 
ATOM      3  C   UNL     1       1.400   6.980  21.201  0.00  0.00    +0.000 A 
ATOM      4  C   UNL     1       1.649   8.056  20.342  0.00  0.00    +0.000 A 
ATOM      5  C   UNL     1       2.205   7.564  19.173  0.00  0.00    +0.000 A 
ATOM      6  C   UNL     1       2.532   8.332  17.931  0.00  0.00    +0.000 C 
ATOM      7  N   UNL     1       2.316   6.168  19.303  0.00  0.00    +0.000 N 
ENDROOT
BRANCH   4   8
ATOM      8  C   UNL     1       1.362   9.421  20.632  0.00  0.00    +0.000 C 
ATOM      9  C   UNL     1       0.314  10.122  20.173  0.00  0.00    +0.000 C 
ATOM     10  S   UNL     1      -0.918   9.578  19.111  0.00  0.00    +0.000 S 
ATOM     11  C   UNL     1      -1.578  11.195  18.907  0.00  0.00    +0.000 C 
ATOM     12  S   UNL     1      -2.755  11.511  17.767  0.00  0.00    +0.000 S 
ATOM     13  N   UNL     1      -0.950  12.071  19.768  0.00  0.00    +0.000 N 
ATOM     14  C   UNL     1       0.110  11.559  20.496  0.00  0.00    +0.000 C 
ATOM     15  O   UNL     1       0.832  12.183  21.263  0.00  0.00    +0.000 OA
BRANCH  13  16
ATOM     16  C   UNL     1      -1.227  13.503  19.847  0.00  0.00    +0.000 C 
BRANCH  16  17
ATOM     17  C   UNL     1      -2.154  13.896  20.976  0.00  0.00    +0.000 A 
ATOM     18  C   UNL     1      -1.683  14.660  22.054  0.00  0.00    +0.000 A 
ATOM     19  C   UNL     1      -2.564  15.119  23.039  0.00  0.00    +0.000 A 
ATOM     20  C   UNL     1      -3.919  14.804  22.969  0.00  0.00    +0.000 A 
ATOM     21  C   UNL     1      -4.394  14.017  21.923  0.00  0.00    +0.000 A 
ATOM     22  C   UNL     1      -3.518  13.565  20.934  0.00  0.00    +0.000 A 
ENDBRANCH  16  17
ENDBRANCH  13  16
ENDBRANCH   4   8
BRANCH   7  23
ATOM     23  C   UNL     1       2.803   5.254  18.304  0.00  0.00    +0.000 A 
ATOM     24  C   UNL     1       2.051   4.138  17.915  0.00  0.00    +0.000 A 
ATOM     25  C   UNL     1       2.551   3.233  16.976  0.00  0.00    +0.000 A 
ATOM     26  C   UNL     1       3.795   3.450  16.386  0.00  0.00    +0.000 A 
ATOM     27  C   UNL     1       4.561   4.564  16.742  0.00  0.00    +0.000 A 
ATOM     28  C   UNL     1       4.059   5.452  17.711  0.00  0.00    +0.000 A 
BRANCH  27  29
ATOM     29  C   UNL     1       5.853   4.783  16.101  0.00  0.00    +0.000 A 
ATOM     30  N   UNL     1       7.037   4.360  16.502  0.00  0.00    +0.000 NA
ATOM     31  N   UNL     1       7.947   4.801  15.573  0.00  0.00    +0.000 NA
ATOM     32  N   UNL     1       7.350   5.501  14.619  0.00  0.00    +0.000 NA
ATOM     33  N   UNL     1       6.053   5.500  14.953  0.00  0.00    +0.000 N 
ATOM     34  H   UNL     1       5.390   6.002  14.379  0.00  0.00    +0.000 HD
ENDBRANCH  27  29
ENDBRANCH   7  23
TORSDOF 5
ENDMDL
MODEL 2
REMARK VINA RESULT:      -8.1      2.827      3.696
REMARK  Name = 
REMARK  7 active torsions:
REMARK  status: ('A' for Active; 'I' for Inactive)
REMARK    1  A    between atoms: C_1  and  C_2
REMARK    2  A    between atoms: C_4  and  C_5
REMARK    3  A    between atoms: N_10  and  C_11
REMARK    4  A    between atoms: C_11  and  C_12
REMARK    5  A    between atoms: C_20  and  C_21
REMARK    6  A    between atoms: N_22  and  C_23
REMARK    7  A    between atoms: C_27  and  C_28
REMARK                            x       y       z     vdW  Elec       q    Type
REMARK                         _______ _______ _______ _____ _____    ______ ____
ROOT
ATOM      1  C   UNL     1       4.325   6.511  17.026  0.00  0.00    +0.000 C 
ATOM      2  C   UNL     1       3.444   6.590  18.230  0.00  0.00    +0.000 A 
ATOM      3  C   UNL     1       2.969   7.758  18.791  0.00  0.00    +0.000 A 
ATOM      4  C   UNL     1       2.064   7.413  19.800  0.00  0.00    +0.000 A 
ATOM      5  C   UNL     1       2.004   6.032  19.883  0.00  0.00    +0.000 A 
ATOM      6  C   UNL     1       1.256   5.216  20.889  0.00  0.00    +0.000 C 
ATOM      7  N   UNL     1       2.873   5.505  18.910  0.00  0.00    +0.000 N 
ENDROOT
BRANCH   4   8
ATOM      8  C   UNL     1       1.342   8.340  20.607  0.00  0.00    +0.000 C 
ATOM      9  C   UNL     1       0.949   9.568  20.239  0.00  0.00    +0.000 C 
ATOM     10  S   UNL     1       1.235  10.346  18.737  0.00  0.00    +0.000 S 
ATOM     11  C   UNL     1       0.635  11.892  19.324  0.00  0.00    +0.000 C 
ATOM     12  S   UNL     1       0.804  13.285  18.420  0.00  0.00    +0.000 S 
ATOM     13  N   UNL     1       0.090  11.737  20.582  0.00  0.00    +0.000 N 
ATOM     14  C   UNL     1       0.229  10.488  21.159  0.00  0.00    +0.000 C 
ATOM     15  O   UNL     1      -0.128  10.165  22.285  0.00  0.00    +0.000 OA
BRANCH  13  16
ATOM     16  C   UNL     1      -0.476  12.819  21.383  0.00  0.00    +0.000 C 
BRANCH  16  17
ATOM     17  C   UNL     1      -1.988  12.831  21.435  0.00  0.00    +0.000 A 
ATOM     18  C   UNL     1      -2.745  12.778  20.255  0.00  0.00    +0.000 A 
ATOM     19  C   UNL     1      -4.138  12.675  20.308  0.00  0.00    +0.000 A 
ATOM     20  C   UNL     1      -4.793  12.641  21.538  0.00  0.00    +0.000 A 
ATOM     21  C   UNL     1      -4.056  12.729  22.717  0.00  0.00    +0.000 A 
ATOM     22  C   UNL     1      -2.664  12.824  22.666  0.00  0.00    +0.000 A 
ENDBRANCH  16  17
ENDBRANCH  13  16
ENDBRANCH   4   8
BRANCH   7  23
ATOM     23  C   UNL     1       3.149   4.112  18.679  0.00  0.00    +0.000 A 
ATOM     24  C   UNL     1       2.648   3.451  17.551  0.00  0.00    +0.000 A 
ATOM     25  C   UNL     1       2.885   2.088  17.357  0.00  0.00    +0.000 A 
ATOM     26  C   UNL     1       3.657   1.374  18.273  0.00  0.00    +0.000 A 
ATOM     27  C   UNL     1       4.184   2.011  19.401  0.00  0.00    +0.000 A 
ATOM     28  C   UNL     1       3.913   3.377  19.599  0.00  0.00    +0.000 A 
BRANCH  27  29
ATOM     29  C   UNL     1       5.004   1.250  20.338  0.00  0.00    +0.000 A 
ATOM     30  N   UNL     1       5.369   1.597  21.558  0.00  0.00    +0.000 NA
ATOM     31  N   UNL     1       6.122   0.560  22.052  0.00  0.00    +0.000 NA
ATOM     32  N   UNL     1       6.242  -0.409  21.156  0.00  0.00    +0.000 NA
ATOM     33  N   UNL     1       5.558   0.025  20.088  0.00  0.00    +0.000 N 
ATOM     34  H   UNL     1       5.527  -0.542  19.252  0.00  0.00    +0.000 HD
ENDBRANCH  27  29
ENDBRANCH   7  23
TORSDOF 5
ENDMDL
MODEL 3
REMARK VINA RESULT:      -8.0      1.435      2.437
REMARK  Name = 
REMARK  7 active torsions:
REMARK  status: ('A' for Active; 'I' for Inactive)
REMARK    1  A    between atoms: C_1  and  C_2
REMARK    2  A    between atoms: C_4  and  C_5
REMARK    3  A    between atoms: N_10  and  C_11
REMARK    4  A    between atoms: C_11  and  C_12
REMARK    5  A    between atoms: C_20  and  C_21
REMARK    6  A    between atoms: N_22  and  C_23
REMARK    7  A    between atoms: C_27  and  C_28
REMARK                            x       y       z     vdW  Elec       q    Type
REMARK                         _______ _______ _______ _____ _____    ______ ____
ROOT
ATOM      1  C   UNL     1       1.792   4.389  21.231  0.00  0.00    +0.000 C 
ATOM      2  C   UNL     1       1.763   5.766  20.653  0.00  0.00    +0.000 A 
ATOM      3  C   UNL     1       1.335   6.897  21.320  0.00  0.00    +0.000 A 
ATOM      4  C   UNL     1       1.602   8.002  20.504  0.00  0.00    +0.000 A 
ATOM      5  C   UNL     1       2.163   7.551  19.322  0.00  0.00    +0.000 A 
ATOM      6  C   UNL     1       2.508   8.362  18.113  0.00  0.00    +0.000 C 
ATOM      7  N   UNL     1       2.261   6.149  19.400  0.00  0.00    +0.000 N 
ENDROOT
BRANCH   4   8
ATOM      8  C   UNL     1       1.324   9.358  20.843  0.00  0.00    +0.000 C 
ATOM      9  C   UNL     1       0.358  10.123  20.313  0.00  0.00    +0.000 C 
ATOM     10  S   UNL     1      -0.758   9.687  19.085  0.00  0.00    +0.000 S 
ATOM     11  C   UNL     1      -1.340  11.338  18.907  0.00  0.00    +0.000 C 
ATOM     12  S   UNL     1      -2.367  11.762  17.661  0.00  0.00    +0.000 S 
ATOM     13  N   UNL     1      -0.790  12.138  19.887  0.00  0.00    +0.000 N 
ATOM     14  C   UNL     1       0.161  11.546  20.698  0.00  0.00    +0.000 C 
ATOM     15  O   UNL     1       0.807  12.096  21.580  0.00  0.00    +0.000 OA
BRANCH  13  16
ATOM     16  C   UNL     1      -1.031  13.572  20.023  0.00  0.00    +0.000 C 
BRANCH  16  17
ATOM     17  C   UNL     1      -0.010  14.444  19.326  0.00  0.00    +0.000 A 
ATOM     18  C   UNL     1      -0.254  15.811  19.127  0.00  0.00    +0.000 A 
ATOM     19  C   UNL     1       0.735  16.638  18.586  0.00  0.00    +0.000 A 
ATOM     20  C   UNL     1       1.970  16.108  18.220  0.00  0.00    +0.000 A 
ATOM     21  C   UNL     1       2.213  14.746  18.379  0.00  0.00    +0.000 A 
ATOM     22  C   UNL     1       1.230  13.919  18.927  0.00  0.00    +0.000 A 
ENDBRANCH  16  17
ENDBRANCH  13  16
ENDBRANCH   4   8
BRANCH   7  23
ATOM     23  C   UNL     1       2.748   5.270  18.370  0.00  0.00    +0.000 A 
ATOM     24  C   UNL     1       1.978   4.194  17.913  0.00  0.00    +0.000 A 
ATOM     25  C   UNL     1       2.477   3.319  16.945  0.00  0.00    +0.000 A 
ATOM     26  C   UNL     1       3.740   3.530  16.395  0.00  0.00    +0.000 A 
ATOM     27  C   UNL     1       4.526   4.606  16.819  0.00  0.00    +0.000 A 
ATOM     28  C   UNL     1       4.023   5.462  17.816  0.00  0.00    +0.000 A 
BRANCH  27  29
ATOM     29  C   UNL     1       5.837   4.820  16.218  0.00  0.00    +0.000 A 
ATOM     30  N   UNL     1       7.007   4.393  16.657  0.00  0.00    +0.000 NA
ATOM     31  N   UNL     1       7.947   4.830  15.757  0.00  0.00    +0.000 NA
ATOM     32  N   UNL     1       7.384   5.532  14.784  0.00  0.00    +0.000 NA
ATOM     33  N   UNL     1       6.076   5.536  15.077  0.00  0.00    +0.000 N 
ATOM     34  H   UNL     1       5.434   6.040  14.483  0.00  0.00    +0.000 HD
ENDBRANCH  27  29
ENDBRANCH   7  23
TORSDOF 5
ENDMDL
MODEL 4
REMARK VINA RESULT:      -7.9      2.511      3.358
REMARK  Name = 
REMARK  7 active torsions:
REMARK  status: ('A' for Active; 'I' for Inactive)
REMARK    1  A    between atoms: C_1  and  C_2
REMARK    2  A    between atoms: C_4  and  C_5
REMARK    3  A    between atoms: N_10  and  C_11
REMARK    4  A    between atoms: C_11  and  C_12
REMARK    5  A    between atoms: C_20  and  C_21
REMARK    6  A    between atoms: N_22  and  C_23
REMARK    7  A    between atoms: C_27  and  C_28
REMARK                            x       y       z     vdW  Elec       q    Type
REMARK                         _______ _______ _______ _____ _____    ______ ____
ROOT
ATOM      1  C   UNL     1       4.130   6.550  16.584  0.00  0.00    +0.000 C 
ATOM      2  C   UNL     1       3.372   6.873  17.829  0.00  0.00    +0.000 A 
ATOM      3  C   UNL     1       3.100   8.148  18.284  0.00  0.00    +0.000 A 
ATOM      4  C   UNL     1       2.246   8.038  19.387  0.00  0.00    +0.000 A 
ATOM      5  C   UNL     1       2.017   6.695  19.632  0.00  0.00    +0.000 A 
ATOM      6  C   UNL     1       1.258   6.098  20.775  0.00  0.00    +0.000 C 
ATOM      7  N   UNL     1       2.725   5.954  18.668  0.00  0.00    +0.000 N 
ENDROOT
BRANCH   4   8
ATOM      8  C   UNL     1       1.719   9.134  20.130  0.00  0.00    +0.000 C 
ATOM      9  C   UNL     1       0.620   9.839  19.824  0.00  0.00    +0.000 C 
ATOM     10  S   UNL     1      -0.406   9.632  18.464  0.00  0.00    +0.000 S 
ATOM     11  C   UNL     1      -1.293  11.113  18.798  0.00  0.00    +0.000 C 
ATOM     12  S   UNL     1      -2.394  11.726  17.703  0.00  0.00    +0.000 S 
ATOM     13  N   UNL     1      -0.895  11.636  20.011  0.00  0.00    +0.000 N 
ATOM     14  C   UNL     1       0.160  10.996  20.636  0.00  0.00    +0.000 C 
ATOM     15  O   UNL     1       0.699  11.338  21.681  0.00  0.00    +0.000 OA
BRANCH  13  16
ATOM     16  C   UNL     1      -1.403  12.878  20.589  0.00  0.00    +0.000 C 
BRANCH  16  17
ATOM     17  C   UNL     1      -2.601  12.699  21.495  0.00  0.00    +0.000 A 
ATOM     18  C   UNL     1      -2.430  12.408  22.857  0.00  0.00    +0.000 A 
ATOM     19  C   UNL     1      -3.532  12.355  23.716  0.00  0.00    +0.000 A 
ATOM     20  C   UNL     1      -4.817  12.571  23.223  0.00  0.00    +0.000 A 
ATOM     21  C   UNL     1      -5.004  12.825  21.867  0.00  0.00    +0.000 A 
ATOM     22  C   UNL     1      -3.905  12.887  21.008  0.00  0.00    +0.000 A 
ENDBRANCH  16  17
ENDBRANCH  13  16
ENDBRANCH   4   8
BRANCH   7  23
ATOM     23  C   UNL     1       2.801   4.520  18.580  0.00  0.00    +0.000 A 
ATOM     24  C   UNL     1       2.010   3.807  17.671  0.00  0.00    +0.000 A 
ATOM     25  C   UNL     1       2.057   2.412  17.623  0.00  0.00    +0.000 A 
ATOM     26  C   UNL     1       2.923   1.712  18.461  0.00  0.00    +0.000 A 
ATOM     27  C   UNL     1       3.737   2.397  19.368  0.00  0.00    +0.000 A 
ATOM     28  C   UNL     1       3.658   3.800  19.426  0.00  0.00    +0.000 A 
BRANCH  27  29
ATOM     29  C   UNL     1       4.650   1.647  20.224  0.00  0.00    +0.000 A 
ATOM     30  N   UNL     1       5.050   1.953  21.444  0.00  0.00    +0.000 NA
ATOM     31  N   UNL     1       5.892   0.946  21.845  0.00  0.00    +0.000 NA
ATOM     32  N   UNL     1       6.033   0.036  20.893  0.00  0.00    +0.000 NA
ATOM     33  N   UNL     1       5.271   0.477  19.882  0.00  0.00    +0.000 N 
ATOM     34  H   UNL     1       5.237  -0.047  19.019  0.00  0.00    +0.000 HD
ENDBRANCH  27  29
ENDBRANCH   7  23
TORSDOF 5
ENDMDL
MODEL 5
REMARK VINA RESULT:      -7.9      6.795     10.655
REMARK  Name = 
REMARK  7 active torsions:
REMARK  status: ('A' for Active; 'I' for Inactive)
REMARK    1  A    between atoms: C_1  and  C_2
REMARK    2  A    between atoms: C_4  and  C_5
REMARK    3  A    between atoms: N_10  and  C_11
REMARK    4  A    between atoms: C_11  and  C_12
REMARK    5  A    between atoms: C_20  and  C_21
REMARK    6  A    between atoms: N_22  and  C_23
REMARK    7  A    between atoms: C_27  and  C_28
REMARK                            x       y       z     vdW  Elec       q    Type
REMARK                         _______ _______ _______ _____ _____    ______ ____
ROOT
ATOM      1  C   UNL     1       0.105  16.610  19.963  0.00  0.00    +0.000 C 
ATOM      2  C   UNL     1       1.139  15.724  19.350  0.00  0.00    +0.000 A 
ATOM      3  C   UNL     1       2.423  16.113  19.020  0.00  0.00    +0.000 A 
ATOM      4  C   UNL     1       3.126  14.973  18.617  0.00  0.00    +0.000 A 
ATOM      5  C   UNL     1       2.269  13.887  18.667  0.00  0.00    +0.000 A 
ATOM      6  C   UNL     1       2.551  12.487  18.221  0.00  0.00    +0.000 C 
ATOM      7  N   UNL     1       1.017  14.347  19.116  0.00  0.00    +0.000 N 
ENDROOT
BRANCH   4   8
ATOM      8  C   UNL     1       4.493  14.952  18.214  0.00  0.00    +0.000 C 
ATOM      9  C   UNL     1       5.557  14.958  19.030  0.00  0.00    +0.000 C 
ATOM     10  S   UNL     1       5.555  15.021  20.744  0.00  0.00    +0.000 S 
ATOM     11  C   UNL     1       7.294  15.271  20.825  0.00  0.00    +0.000 C 
ATOM     12  S   UNL     1       8.046  15.656  22.264  0.00  0.00    +0.000 S 
ATOM     13  N   UNL     1       7.846  15.140  19.568  0.00  0.00    +0.000 N 
ATOM     14  C   UNL     1       6.955  14.973  18.522  0.00  0.00    +0.000 C 
ATOM     15  O   UNL     1       7.237  14.899  17.333  0.00  0.00    +0.000 OA
BRANCH  13  16
ATOM     16  C   UNL     1       9.263  15.312  19.259  0.00  0.00    +0.000 C 
BRANCH  16  17
ATOM     17  C   UNL     1      10.047  14.020  19.191  0.00  0.00    +0.000 A 
ATOM     18  C   UNL     1      10.446  13.363  20.365  0.00  0.00    +0.000 A 
ATOM     19  C   UNL     1      11.071  12.114  20.304  0.00  0.00    +0.000 A 
ATOM     20  C   UNL     1      11.322  11.515  19.071  0.00  0.00    +0.000 A 
ATOM     21  C   UNL     1      10.964  12.172  17.897  0.00  0.00    +0.000 A 
ATOM     22  C   UNL     1      10.332  13.416  17.956  0.00  0.00    +0.000 A 
ENDBRANCH  16  17
ENDBRANCH  13  16
ENDBRANCH   4   8
BRANCH   7  23
ATOM     23  C   UNL     1      -0.175  13.558  19.273  0.00  0.00    +0.000 A 
ATOM     24  C   UNL     1      -0.837  13.482  20.504  0.00  0.00    +0.000 A 
ATOM     25  C   UNL     1      -1.970  12.678  20.658  0.00  0.00    +0.000 A 
ATOM     26  C   UNL     1      -2.476  11.966  19.572  0.00  0.00    +0.000 A 
ATOM     27  C   UNL     1      -1.846  12.034  18.326  0.00  0.00    +0.000 A 
ATOM     28  C   UNL     1      -0.690  12.825  18.192  0.00  0.00    +0.000 A 
BRANCH  27  29
ATOM     29  C   UNL     1      -2.402  11.296  17.198  0.00  0.00    +0.000 A 
ATOM     30  N   UNL     1      -2.043  10.105  16.756  0.00  0.00    +0.000 NA
ATOM     31  N   UNL     1      -2.855   9.823  15.685  0.00  0.00    +0.000 NA
ATOM     32  N   UNL     1      -3.693  10.821  15.448  0.00  0.00    +0.000 NA
ATOM     33  N   UNL     1      -3.404  11.740  16.379  0.00  0.00    +0.000 N 
ATOM     34  H   UNL     1      -3.903  12.618  16.385  0.00  0.00    +0.000 HD
ENDBRANCH  27  29
ENDBRANCH   7  23
TORSDOF 5
ENDMDL
MODEL 6
REMARK VINA RESULT:      -7.8      2.140      3.290
REMARK  Name = 
REMARK  7 active torsions:
REMARK  status: ('A' for Active; 'I' for Inactive)
REMARK    1  A    between atoms: C_1  and  C_2
REMARK    2  A    between atoms: C_4  and  C_5
REMARK    3  A    between atoms: N_10  and  C_11
REMARK    4  A    between atoms: C_11  and  C_12
REMARK    5  A    between atoms: C_20  and  C_21
REMARK    6  A    between atoms: N_22  and  C_23
REMARK    7  A    between atoms: C_27  and  C_28
REMARK                            x       y       z     vdW  Elec       q    Type
REMARK                         _______ _______ _______ _____ _____    ______ ____
ROOT
ATOM      1  C   UNL     1       2.893   8.430  17.009  0.00  0.00    +0.000 C 
ATOM      2  C   UNL     1       2.122   8.777  18.241  0.00  0.00    +0.000 A 
ATOM      3  C   UNL     1       1.398   9.938  18.424  0.00  0.00    +0.000 A 
ATOM      4  C   UNL     1       0.701   9.825  19.632  0.00  0.00    +0.000 A 
ATOM      5  C   UNL     1       1.021   8.608  20.210  0.00  0.00    +0.000 A 
ATOM      6  C   UNL     1       0.601   8.105  21.555  0.00  0.00    +0.000 C 
ATOM      7  N   UNL     1       1.918   7.946  19.352  0.00  0.00    +0.000 N 
ENDROOT
BRANCH   4   8
ATOM      8  C   UNL     1      -0.176  10.811  20.169  0.00  0.00    +0.000 C 
ATOM      9  C   UNL     1      -1.416  11.083  19.738  0.00  0.00    +0.000 C 
ATOM     10  S   UNL     1      -2.248  10.350  18.428  0.00  0.00    +0.000 S 
ATOM     11  C   UNL     1      -3.560  11.520  18.492  0.00  0.00    +0.000 C 
ATOM     12  S   UNL     1      -4.727  11.576  17.300  0.00  0.00    +0.000 S 
ATOM     13  N   UNL     1      -3.413  12.331  19.599  0.00  0.00    +0.000 N 
ATOM     14  C   UNL     1      -2.253  12.158  20.333  0.00  0.00    +0.000 C 
ATOM     15  O   UNL     1      -1.907  12.815  21.307  0.00  0.00    +0.000 OA
BRANCH  13  16
ATOM     16  C   UNL     1      -4.306  13.432  19.948  0.00  0.00    +0.000 C 
BRANCH  16  17
ATOM     17  C   UNL     1      -5.400  13.060  20.925  0.00  0.00    +0.000 A 
ATOM     18  C   UNL     1      -6.522  12.334  20.499  0.00  0.00    +0.000 A 
ATOM     19  C   UNL     1      -7.476  11.894  21.421  0.00  0.00    +0.000 A 
ATOM     20  C   UNL     1      -7.332  12.190  22.775  0.00  0.00    +0.000 A 
ATOM     21  C   UNL     1      -6.242  12.941  23.207  0.00  0.00    +0.000 A 
ATOM     22  C   UNL     1      -5.283  13.375  22.288  0.00  0.00    +0.000 A 
ENDBRANCH  16  17
ENDBRANCH  13  16
ENDBRANCH   4   8
BRANCH   7  23
ATOM     23  C   UNL     1       2.538   6.669  19.587  0.00  0.00    +0.000 A 
ATOM     24  C   UNL     1       1.828   5.617  20.177  0.00  0.00    +0.000 A 
ATOM     25  C   UNL     1       2.451   4.394  20.442  0.00  0.00    +0.000 A 
ATOM     26  C   UNL     1       3.784   4.197  20.088  0.00  0.00    +0.000 A 
ATOM     27  C   UNL     1       4.515   5.224  19.482  0.00  0.00    +0.000 A 
ATOM     28  C   UNL     1       3.883   6.459  19.248  0.00  0.00    +0.000 A 
BRANCH  27  29
ATOM     29  C   UNL     1       5.904   4.991  19.103  0.00  0.00    +0.000 A 
ATOM     30  N   UNL     1       6.991   5.321  19.774  0.00  0.00    +0.000 NA
ATOM     31  N   UNL     1       8.059   4.888  19.028  0.00  0.00    +0.000 NA
ATOM     32  N   UNL     1       7.653   4.315  17.904  0.00  0.00    +0.000 NA
ATOM     33  N   UNL     1       6.316   4.390  17.945  0.00  0.00    +0.000 N 
ATOM     34  H   UNL     1       5.773   4.035  17.171  0.00  0.00    +0.000 HD
ENDBRANCH  27  29
ENDBRANCH   7  23
TORSDOF 5
ENDMDL
MODEL 7
REMARK VINA RESULT:      -7.7      3.266     10.902
REMARK  Name = 
REMARK  7 active torsions:
REMARK  status: ('A' for Active; 'I' for Inactive)
REMARK    1  A    between atoms: C_1  and  C_2
REMARK    2  A    between atoms: C_4  and  C_5
REMARK    3  A    between atoms: N_10  and  C_11
REMARK    4  A    between atoms: C_11  and  C_12
REMARK    5  A    between atoms: C_20  and  C_21
REMARK    6  A    between atoms: N_22  and  C_23
REMARK    7  A    between atoms: C_27  and  C_28
REMARK                            x       y       z     vdW  Elec       q    Type
REMARK                         _______ _______ _______ _____ _____    ______ ____
ROOT
ATOM      1  C   UNL     1      -0.822  10.417  23.401  0.00  0.00    +0.000 C 
ATOM      2  C   UNL     1      -0.357  10.546  21.988  0.00  0.00    +0.000 A 
ATOM      3  C   UNL     1       0.574   9.727  21.380  0.00  0.00    +0.000 A 
ATOM      4  C   UNL     1       0.627  10.069  20.024  0.00  0.00    +0.000 A 
ATOM      5  C   UNL     1      -0.247  11.120  19.802  0.00  0.00    +0.000 A 
ATOM      6  C   UNL     1      -0.440  11.885  18.531  0.00  0.00    +0.000 C 
ATOM      7  N   UNL     1      -0.863  11.435  21.028  0.00  0.00    +0.000 N 
ENDROOT
BRANCH   4   8
ATOM      8  C   UNL     1       1.455   9.440  19.051  0.00  0.00    +0.000 C 
ATOM      9  C   UNL     1       1.855   8.159  19.063  0.00  0.00    +0.000 C 
ATOM     10  S   UNL     1       1.505   6.971  20.250  0.00  0.00    +0.000 S 
ATOM     11  C   UNL     1       2.642   5.821  19.559  0.00  0.00    +0.000 C 
ATOM     12  S   UNL     1       3.029   4.405  20.353  0.00  0.00    +0.000 S 
ATOM     13  N   UNL     1       3.134   6.305  18.365  0.00  0.00    +0.000 N 
ATOM     14  C   UNL     1       2.754   7.591  18.024  0.00  0.00    +0.000 C 
ATOM     15  O   UNL     1       3.127   8.222  17.043  0.00  0.00    +0.000 OA
BRANCH  13  16
ATOM     16  C   UNL     1       4.123   5.624  17.534  0.00  0.00    +0.000 C 
BRANCH  16  17
ATOM     17  C   UNL     1       5.559   5.963  17.871  0.00  0.00    +0.000 A 
ATOM     18  C   UNL     1       6.245   6.959  17.160  0.00  0.00    +0.000 A 
ATOM     19  C   UNL     1       7.531   7.348  17.544  0.00  0.00    +0.000 A 
ATOM     20  C   UNL     1       8.155   6.737  18.630  0.00  0.00    +0.000 A 
ATOM     21  C   UNL     1       7.500   5.721  19.322  0.00  0.00    +0.000 A 
ATOM     22  C   UNL     1       6.211   5.336  18.945  0.00  0.00    +0.000 A 
ENDBRANCH  16  17
ENDBRANCH  13  16
ENDBRANCH   4   8
BRANCH   7  23
ATOM     23  C   UNL     1      -1.808  12.493  21.260  0.00  0.00    +0.000 A 
ATOM     24  C   UNL     1      -1.382  13.796  21.545  0.00  0.00    +0.000 A 
ATOM     25  C   UNL     1      -2.307  14.808  21.813  0.00  0.00    +0.000 A 
ATOM     26  C   UNL     1      -3.673  14.539  21.764  0.00  0.00    +0.000 A 
ATOM     27  C   UNL     1      -4.130  13.251  21.465  0.00  0.00    +0.000 A 
ATOM     28  C   UNL     1      -3.187  12.235  21.227  0.00  0.00    +0.000 A 
BRANCH  27  29
ATOM     29  C   UNL     1      -5.565  12.994  21.401  0.00  0.00    +0.000 A 
ATOM     30  N   UNL     1      -6.393  13.279  20.414  0.00  0.00    +0.000 NA
ATOM     31  N   UNL     1      -7.634  12.840  20.805  0.00  0.00    +0.000 NA
ATOM     32  N   UNL     1      -7.590  12.308  22.018  0.00  0.00    +0.000 NA
ATOM     33  N   UNL     1      -6.308  12.415  22.393  0.00  0.00    +0.000 N 
ATOM     34  H   UNL     1      -6.029  12.095  23.309  0.00  0.00    +0.000 HD
ENDBRANCH  27  29
ENDBRANCH   7  23
TORSDOF 5
ENDMDL
MODEL 8
REMARK VINA RESULT:      -7.7      3.228     10.935
REMARK  Name = 
REMARK  7 active torsions:
REMARK  status: ('A' for Active; 'I' for Inactive)
REMARK    1  A    between atoms: C_1  and  C_2
REMARK    2  A    between atoms: C_4  and  C_5
REMARK    3  A    between atoms: N_10  and  C_11
REMARK    4  A    between atoms: C_11  and  C_12
REMARK    5  A    between atoms: C_20  and  C_21
REMARK    6  A    between atoms: N_22  and  C_23
REMARK    7  A    between atoms: C_27  and  C_28
REMARK                            x       y       z     vdW  Elec       q    Type
REMARK                         _______ _______ _______ _____ _____    ______ ____
ROOT
ATOM      1  C   UNL     1       0.328   9.467  23.721  0.00  0.00    +0.000 C 
ATOM      2  C   UNL     1       0.684   9.436  22.270  0.00  0.00    +0.000 A 
ATOM      3  C   UNL     1       1.371   8.415  21.643  0.00  0.00    +0.000 A 
ATOM      4  C   UNL     1       1.373   8.680  20.270  0.00  0.00    +0.000 A 
ATOM      5  C   UNL     1       0.716   9.879  20.052  0.00  0.00    +0.000 A 
ATOM      6  C   UNL     1       0.572  10.612  18.756  0.00  0.00    +0.000 C 
ATOM      7  N   UNL     1       0.287  10.367  21.300  0.00  0.00    +0.000 N 
ENDROOT
BRANCH   4   8
ATOM      8  C   UNL     1       1.968   7.850  19.275  0.00  0.00    +0.000 C 
ATOM      9  C   UNL     1       2.127   6.521  19.348  0.00  0.00    +0.000 C 
ATOM     10  S   UNL     1       1.693   5.490  20.649  0.00  0.00    +0.000 S 
ATOM     11  C   UNL     1       2.524   4.108  19.947  0.00  0.00    +0.000 C 
ATOM     12  S   UNL     1       2.728   2.693  20.808  0.00  0.00    +0.000 S 
ATOM     13  N   UNL     1       2.968   4.422  18.679  0.00  0.00    +0.000 N 
ATOM     14  C   UNL     1       2.795   5.734  18.277  0.00  0.00    +0.000 C 
ATOM     15  O   UNL     1       3.172   6.226  17.221  0.00  0.00    +0.000 OA
BRANCH  13  16
ATOM     16  C   UNL     1       3.725   3.519  17.816  0.00  0.00    +0.000 C 
BRANCH  16  17
ATOM     17  C   UNL     1       5.070   4.058  17.378  0.00  0.00    +0.000 A 
ATOM     18  C   UNL     1       6.040   4.417  18.326  0.00  0.00    +0.000 A 
ATOM     19  C   UNL     1       7.319   4.807  17.921  0.00  0.00    +0.000 A 
ATOM     20  C   UNL     1       7.641   4.862  16.566  0.00  0.00    +0.000 A 
ATOM     21  C   UNL     1       6.677   4.543  15.613  0.00  0.00    +0.000 A 
ATOM     22  C   UNL     1       5.400   4.145  16.016  0.00  0.00    +0.000 A 
ENDBRANCH  16  17
ENDBRANCH  13  16
ENDBRANCH   4   8
BRANCH   7  23
ATOM     23  C   UNL     1      -0.399  11.609  21.540  0.00  0.00    +0.000 A 
ATOM     24  C   UNL     1       0.213  12.839  21.271  0.00  0.00    +0.000 A 
ATOM     25  C   UNL     1      -0.444  14.040  21.548  0.00  0.00    +0.000 A 
ATOM     26  C   UNL     1      -1.738  14.027  22.065  0.00  0.00    +0.000 A 
ATOM     27  C   UNL     1      -2.382  12.814  22.329  0.00  0.00    +0.000 A 
ATOM     28  C   UNL     1      -1.697  11.612  22.073  0.00  0.00    +0.000 A 
BRANCH  27  29
ATOM     29  C   UNL     1      -3.743  12.822  22.854  0.00  0.00    +0.000 A 
ATOM     30  N   UNL     1      -4.764  13.549  22.441  0.00  0.00    +0.000 NA
ATOM     31  N   UNL     1      -5.835  13.205  23.229  0.00  0.00    +0.000 NA
ATOM     32  N   UNL     1      -5.490  12.295  24.128  0.00  0.00    +0.000 NA
ATOM     33  N   UNL     1      -4.189  12.066  23.903  0.00  0.00    +0.000 N 
ATOM     34  H   UNL     1      -3.689  11.416  24.492  0.00  0.00    +0.000 HD
ENDBRANCH  27  29
ENDBRANCH   7  23
TORSDOF 5
ENDMDL
MODEL 9
REMARK VINA RESULT:      -7.6      3.104     10.858
REMARK  Name = 
REMARK  7 active torsions:
REMARK  status: ('A' for Active; 'I' for Inactive)
REMARK    1  A    between atoms: C_1  and  C_2
REMARK    2  A    between atoms: C_4  and  C_5
REMARK    3  A    between atoms: N_10  and  C_11
REMARK    4  A    between atoms: C_11  and  C_12
REMARK    5  A    between atoms: C_20  and  C_21
REMARK    6  A    between atoms: N_22  and  C_23
REMARK    7  A    between atoms: C_27  and  C_28
REMARK                            x       y       z     vdW  Elec       q    Type
REMARK                         _______ _______ _______ _____ _____    ______ ____
ROOT
ATOM      1  C   UNL     1       0.066   9.540  23.607  0.00  0.00    +0.000 C 
ATOM      2  C   UNL     1       0.530   9.511  22.188  0.00  0.00    +0.000 A 
ATOM      3  C   UNL     1       1.227   8.472  21.602  0.00  0.00    +0.000 A 
ATOM      4  C   UNL     1       1.345   8.750  20.237  0.00  0.00    +0.000 A 
ATOM      5  C   UNL     1       0.751   9.975  19.985  0.00  0.00    +0.000 A 
ATOM      6  C   UNL     1       0.733  10.726  18.691  0.00  0.00    +0.000 C 
ATOM      7  N   UNL     1       0.244  10.466  21.202  0.00  0.00    +0.000 N 
ENDROOT
BRANCH   4   8
ATOM      8  C   UNL     1       1.984   7.910  19.280  0.00  0.00    +0.000 C 
ATOM      9  C   UNL     1       2.123   6.578  19.366  0.00  0.00    +0.000 C 
ATOM     10  S   UNL     1       1.602   5.558  20.644  0.00  0.00    +0.000 S 
ATOM     11  C   UNL     1       2.455   4.164  19.994  0.00  0.00    +0.000 C 
ATOM     12  S   UNL     1       2.592   2.749  20.870  0.00  0.00    +0.000 S 
ATOM     13  N   UNL     1       2.974   4.466  18.753  0.00  0.00    +0.000 N 
ATOM     14  C   UNL     1       2.839   5.779  18.337  0.00  0.00    +0.000 C 
ATOM     15  O   UNL     1       3.282   6.262  17.303  0.00  0.00    +0.000 OA
BRANCH  13  16
ATOM     16  C   UNL     1       3.767   3.552  17.936  0.00  0.00    +0.000 C 
BRANCH  16  17
ATOM     17  C   UNL     1       5.160   4.049  17.618  0.00  0.00    +0.000 A 
ATOM     18  C   UNL     1       5.634   4.050  16.297  0.00  0.00    +0.000 A 
ATOM     19  C   UNL     1       6.876   4.613  15.989  0.00  0.00    +0.000 A 
ATOM     20  C   UNL     1       7.666   5.164  16.995  0.00  0.00    +0.000 A 
ATOM     21  C   UNL     1       7.224   5.137  18.316  0.00  0.00    +0.000 A 
ATOM     22  C   UNL     1       5.980   4.583  18.625  0.00  0.00    +0.000 A 
ENDBRANCH  16  17
ENDBRANCH  13  16
ENDBRANCH   4   8
BRANCH   7  23
ATOM     23  C   UNL     1      -0.413  11.730  21.405  0.00  0.00    +0.000 A 
ATOM     24  C   UNL     1       0.320  12.916  21.529  0.00  0.00    +0.000 A 
ATOM     25  C   UNL     1      -0.324  14.132  21.770  0.00  0.00    +0.000 A 
ATOM     26  C   UNL     1      -1.715  14.183  21.854  0.00  0.00    +0.000 A 
ATOM     27  C   UNL     1      -2.475  13.018  21.717  0.00  0.00    +0.000 A 
ATOM     28  C   UNL     1      -1.812  11.796  21.505  0.00  0.00    +0.000 A 
BRANCH  27  29
ATOM     29  C   UNL     1      -3.930  13.096  21.791  0.00  0.00    +0.000 A 
ATOM     30  N   UNL     1      -4.734  13.871  21.088  0.00  0.00    +0.000 NA
ATOM     31  N   UNL     1      -6.013  13.584  21.497  0.00  0.00    +0.000 NA
ATOM     32  N   UNL     1      -6.011  12.662  22.449  0.00  0.00    +0.000 NA
ATOM     33  N   UNL     1      -4.718  12.367  22.639  0.00  0.00    +0.000 N 
ATOM     34  H   UNL     1      -4.459  11.696  23.348  0.00  0.00    +0.000 HD
ENDBRANCH  27  29
ENDBRANCH   7  23
TORSDOF 5
ENDMDL
