MODEL 1
REMARK VINA RESULT:      -9.1      0.000      0.000
REMARK  Name = 
REMARK  4 active torsions:
REMARK  status: ('A' for Active; 'I' for Inactive)
REMARK    1  A    between atoms: C_1  and  C_2
REMARK    2  A    between atoms: C_5  and  N_6
REMARK    3  A    between atoms: N_6  and  C_7
REMARK    4  A    between atoms: C_8  and  C_9
REMARK                            x       y       z     vdW  Elec       q    Type
REMARK                         _______ _______ _______ _____ _____    ______ ____
ROOT
ATOM      1  C   UNL     1       2.777   4.692  19.529  0.00  0.00    +0.000 C 
ATOM      2  C   UNL     1       3.536   3.936  18.715  0.00  0.00    +0.000 C 
ATOM      3  C   UNL     1       2.727   2.739  18.377  0.00  0.00    +0.000 C 
ATOM      4  O   UNL     1       3.069   1.771  17.719  0.00  0.00    +0.000 OA
ATOM      5  N   UNL     1       1.517   2.879  18.961  0.00  0.00    +0.000 N 
ATOM      6  C   UNL     1       1.499   3.969  19.746  0.00  0.00    +0.000 C 
ATOM      7  O   UNL     1       0.626   4.315  20.522  0.00  0.00    +0.000 OA
ATOM      8  H   UNL     1       0.787   2.189  18.929  0.00  0.00    +0.000 HD
ENDROOT
BRANCH   2   9
ATOM      9  C   UNL     1       4.863   4.196  18.265  0.00  0.00    +0.000 A 
ATOM     10  C   UNL     1       5.925   4.450  19.112  0.00  0.00    +0.000 A 
ATOM     11  N   UNL     1       7.024   4.730  18.349  0.00  0.00    +0.000 N 
ATOM     12  C   UNL     1       6.703   4.668  17.014  0.00  0.00    +0.000 A 
ATOM     13  C   UNL     1       7.504   4.910  15.891  0.00  0.00    +0.000 A 
ATOM     14  C   UNL     1       6.913   4.781  14.632  0.00  0.00    +0.000 A 
ATOM     15  C   UNL     1       5.576   4.421  14.504  0.00  0.00    +0.000 A 
ATOM     16  C   UNL     1       4.788   4.188  15.638  0.00  0.00    +0.000 A 
ATOM     17  C   UNL     1       5.354   4.311  16.926  0.00  0.00    +0.000 A 
ATOM     18  H   UNL     1       7.937   4.975  18.709  0.00  0.00    +0.000 HD
ENDBRANCH   2   9
BRANCH   1  19
ATOM     19  N   UNL     1       2.977   5.909  20.158  0.00  0.00    +0.000 N 
ATOM     20  H   UNL     1       2.745   5.808  21.150  0.00  0.00    +0.000 HD
BRANCH  19  25
ATOM     21  C   UNL     1       0.463  10.815  18.520  0.00  0.00    +0.000 C 
ATOM     22  C   UNL     1       1.101   9.523  18.935  0.00  0.00    +0.000 A 
ATOM     23  C   UNL     1       0.996   9.056  20.247  0.00  0.00    +0.000 A 
ATOM     24  C   UNL     1       1.621   7.865  20.625  0.00  0.00    +0.000 A 
ATOM     25  C   UNL     1       2.339   7.095  19.698  0.00  0.00    +0.000 A 
ATOM     26  C   UNL     1       2.468   7.589  18.395  0.00  0.00    +0.000 A 
ATOM     27  C   UNL     1       1.845   8.783  18.013  0.00  0.00    +0.000 A 
ENDBRANCH  19  25
ENDBRANCH   1  19
TORSDOF 3
ENDMDL
MODEL 2
REMARK VINA RESULT:      -8.6      1.666      5.095
REMARK  Name = 
REMARK  4 active torsions:
REMARK  status: ('A' for Active; 'I' for Inactive)
REMARK    1  A    between atoms: C_1  and  C_2
REMARK    2  A    between atoms: C_5  and  N_6
REMARK    3  A    between atoms: N_6  and  C_7
REMARK    4  A    between atoms: C_8  and  C_9
REMARK                            x       y       z     vdW  Elec       q    Type
REMARK                         _______ _______ _______ _____ _____    ______ ____
ROOT
ATOM      1  C   UNL     1       3.842   3.012  18.853  0.00  0.00    +0.000 C 
ATOM      2  C   UNL     1       2.659   3.621  19.047  0.00  0.00    +0.000 C 
ATOM      3  C   UNL     1       1.628   2.737  18.448  0.00  0.00    +0.000 C 
ATOM      4  O   UNL     1       0.432   2.951  18.347  0.00  0.00    +0.000 OA
ATOM      5  N   UNL     1       2.250   1.632  17.983  0.00  0.00    +0.000 N 
ATOM      6  C   UNL     1       3.582   1.761  18.099  0.00  0.00    +0.000 C 
ATOM      7  O   UNL     1       4.444   1.022  17.656  0.00  0.00    +0.000 OA
ATOM      8  H   UNL     1       1.791   0.886  17.490  0.00  0.00    +0.000 HD
ENDROOT
BRANCH   2   9
ATOM      9  C   UNL     1       2.412   4.874  19.680  0.00  0.00    +0.000 A 
ATOM     10  C   UNL     1       2.129   5.013  21.025  0.00  0.00    +0.000 A 
ATOM     11  N   UNL     1       1.872   6.332  21.275  0.00  0.00    +0.000 N 
ATOM     12  C   UNL     1       1.977   7.063  20.117  0.00  0.00    +0.000 A 
ATOM     13  C   UNL     1       1.769   8.431  19.903  0.00  0.00    +0.000 A 
ATOM     14  C   UNL     1       1.938   8.919  18.605  0.00  0.00    +0.000 A 
ATOM     15  C   UNL     1       2.304   8.071  17.566  0.00  0.00    +0.000 A 
ATOM     16  C   UNL     1       2.502   6.705  17.795  0.00  0.00    +0.000 A 
ATOM     17  C   UNL     1       2.338   6.178  19.095  0.00  0.00    +0.000 A 
ATOM     18  H   UNL     1       1.614   6.715  22.175  0.00  0.00    +0.000 HD
ENDBRANCH   2   9
BRANCH   1  19
ATOM     19  N   UNL     1       5.145   3.337  19.188  0.00  0.00    +0.000 N 
ATOM     20  H   UNL     1       5.227   3.361  20.209  0.00  0.00    +0.000 HD
BRANCH  19  25
ATOM     21  C   UNL     1       7.878   8.018  17.267  0.00  0.00    +0.000 C 
ATOM     22  C   UNL     1       7.146   6.812  17.773  0.00  0.00    +0.000 A 
ATOM     23  C   UNL     1       7.481   6.225  18.996  0.00  0.00    +0.000 A 
ATOM     24  C   UNL     1       6.809   5.084  19.440  0.00  0.00    +0.000 A 
ATOM     25  C   UNL     1       5.767   4.518  18.692  0.00  0.00    +0.000 A 
ATOM     26  C   UNL     1       5.461   5.092  17.452  0.00  0.00    +0.000 A 
ATOM     27  C   UNL     1       6.134   6.234  17.003  0.00  0.00    +0.000 A 
ENDBRANCH  19  25
ENDBRANCH   1  19
TORSDOF 3
ENDMDL
MODEL 3
REMARK VINA RESULT:      -8.6      3.053      6.853
REMARK  Name = 
REMARK  4 active torsions:
REMARK  status: ('A' for Active; 'I' for Inactive)
REMARK    1  A    between atoms: C_1  and  C_2
REMARK    2  A    between atoms: C_5  and  N_6
REMARK    3  A    between atoms: N_6  and  C_7
REMARK    4  A    between atoms: C_8  and  C_9
REMARK                            x       y       z     vdW  Elec       q    Type
REMARK                         _______ _______ _______ _____ _____    ______ ____
ROOT
ATOM      1  C   UNL     1       6.122   5.943  17.009  0.00  0.00    +0.000 C 
ATOM      2  C   UNL     1       5.754   5.207  18.074  0.00  0.00    +0.000 C 
ATOM      3  C   UNL     1       6.745   5.490  19.142  0.00  0.00    +0.000 C 
ATOM      4  O   UNL     1       6.816   4.976  20.246  0.00  0.00    +0.000 OA
ATOM      5  N   UNL     1       7.609   6.416  18.671  0.00  0.00    +0.000 N 
ATOM      6  C   UNL     1       7.365   6.667  17.374  0.00  0.00    +0.000 C 
ATOM      7  O   UNL     1       8.033   7.336  16.606  0.00  0.00    +0.000 OA
ATOM      8  H   UNL     1       8.408   6.757  19.176  0.00  0.00    +0.000 HD
ENDROOT
BRANCH   2   9
ATOM      9  C   UNL     1       4.652   4.311  18.180  0.00  0.00    +0.000 A 
ATOM     10  C   UNL     1       4.502   3.181  17.400  0.00  0.00    +0.000 A 
ATOM     11  N   UNL     1       3.304   2.601  17.710  0.00  0.00    +0.000 N 
ATOM     12  C   UNL     1       2.660   3.333  18.678  0.00  0.00    +0.000 A 
ATOM     13  C   UNL     1       1.406   3.127  19.267  0.00  0.00    +0.000 A 
ATOM     14  C   UNL     1       0.985   4.041  20.235  0.00  0.00    +0.000 A 
ATOM     15  C   UNL     1       1.788   5.116  20.600  0.00  0.00    +0.000 A 
ATOM     16  C   UNL     1       3.036   5.311  19.997  0.00  0.00    +0.000 A 
ATOM     17  C   UNL     1       3.492   4.406  19.014  0.00  0.00    +0.000 A 
ATOM     18  H   UNL     1       2.928   1.770  17.273  0.00  0.00    +0.000 HD
ENDBRANCH   2   9
BRANCH   1  19
ATOM     19  N   UNL     1       5.597   6.106  15.739  0.00  0.00    +0.000 N 
ATOM     20  H   UNL     1       4.575   6.112  15.803  0.00  0.00    +0.000 HD
BRANCH  19  25
ATOM     21  C   UNL     1       6.766   2.590  11.340  0.00  0.00    +0.000 C 
ATOM     22  C   UNL     1       6.475   3.493  12.501  0.00  0.00    +0.000 A 
ATOM     23  C   UNL     1       5.223   3.489  13.122  0.00  0.00    +0.000 A 
ATOM     24  C   UNL     1       4.959   4.356  14.184  0.00  0.00    +0.000 A 
ATOM     25  C   UNL     1       5.944   5.227  14.674  0.00  0.00    +0.000 A 
ATOM     26  C   UNL     1       7.183   5.248  14.024  0.00  0.00    +0.000 A 
ATOM     27  C   UNL     1       7.452   4.382  12.958  0.00  0.00    +0.000 A 
ENDBRANCH  19  25
ENDBRANCH   1  19
TORSDOF 3
ENDMDL
MODEL 4
REMARK VINA RESULT:      -8.6      1.315      5.487
REMARK  Name = 
REMARK  4 active torsions:
REMARK  status: ('A' for Active; 'I' for Inactive)
REMARK    1  A    between atoms: C_1  and  C_2
REMARK    2  A    between atoms: C_5  and  N_6
REMARK    3  A    between atoms: N_6  and  C_7
REMARK    4  A    between atoms: C_8  and  C_9
REMARK                            x       y       z     vdW  Elec       q    Type
REMARK                         _______ _______ _______ _____ _____    ______ ____
ROOT
ATOM      1  C   UNL     1       3.601   3.087  18.958  0.00  0.00    +0.000 C 
ATOM      2  C   UNL     1       2.441   3.656  19.332  0.00  0.00    +0.000 C 
ATOM      3  C   UNL     1       1.397   2.610  19.201  0.00  0.00    +0.000 C 
ATOM      4  O   UNL     1       0.196   2.730  19.375  0.00  0.00    +0.000 OA
ATOM      5  N   UNL     1       2.003   1.467  18.810  0.00  0.00    +0.000 N 
ATOM      6  C   UNL     1       3.302   1.692  18.550  0.00  0.00    +0.000 C 
ATOM      7  O   UNL     1       4.105   0.925  18.048  0.00  0.00    +0.000 OA
ATOM      8  H   UNL     1       1.521   0.610  18.605  0.00  0.00    +0.000 HD
ENDROOT
BRANCH   2   9
ATOM      9  C   UNL     1       2.222   4.999  19.757  0.00  0.00    +0.000 A 
ATOM     10  C   UNL     1       1.736   5.341  21.004  0.00  0.00    +0.000 A 
ATOM     11  N   UNL     1       1.576   6.698  21.045  0.00  0.00    +0.000 N 
ATOM     12  C   UNL     1       1.946   7.255  19.844  0.00  0.00    +0.000 A 
ATOM     13  C   UNL     1       1.916   8.593  19.435  0.00  0.00    +0.000 A 
ATOM     14  C   UNL     1       2.347   8.886  18.139  0.00  0.00    +0.000 A 
ATOM     15  C   UNL     1       2.792   7.879  17.290  0.00  0.00    +0.000 A 
ATOM     16  C   UNL     1       2.809   6.544  17.713  0.00  0.00    +0.000 A 
ATOM     17  C   UNL     1       2.379   6.214  19.016  0.00  0.00    +0.000 A 
ATOM     18  H   UNL     1       1.213   7.218  21.832  0.00  0.00    +0.000 HD
ENDBRANCH   2   9
BRANCH   1  19
ATOM     19  N   UNL     1       4.903   3.547  18.875  0.00  0.00    +0.000 N 
ATOM     20  H   UNL     1       5.027   4.310  19.547  0.00  0.00    +0.000 HD
BRANCH  19  25
ATOM     21  C   UNL     1       7.365   5.212  13.952  0.00  0.00    +0.000 C 
ATOM     22  C   UNL     1       6.710   4.798  15.235  0.00  0.00    +0.000 A 
ATOM     23  C   UNL     1       7.402   4.852  16.448  0.00  0.00    +0.000 A 
ATOM     24  C   UNL     1       6.787   4.436  17.631  0.00  0.00    +0.000 A 
ATOM     25  C   UNL     1       5.458   3.986  17.640  0.00  0.00    +0.000 A 
ATOM     26  C   UNL     1       4.785   3.903  16.415  0.00  0.00    +0.000 A 
ATOM     27  C   UNL     1       5.399   4.317  15.227  0.00  0.00    +0.000 A 
ENDBRANCH  19  25
ENDBRANCH   1  19
TORSDOF 3
ENDMDL
MODEL 5
REMARK VINA RESULT:      -8.4      1.350      6.109
REMARK  Name = 
REMARK  4 active torsions:
REMARK  status: ('A' for Active; 'I' for Inactive)
REMARK    1  A    between atoms: C_1  and  C_2
REMARK    2  A    between atoms: C_5  and  N_6
REMARK    3  A    between atoms: N_6  and  C_7
REMARK    4  A    between atoms: C_8  and  C_9
REMARK                            x       y       z     vdW  Elec       q    Type
REMARK                         _______ _______ _______ _____ _____    ______ ____
ROOT
ATOM      1  C   UNL     1       4.116   4.440  19.578  0.00  0.00    +0.000 C 
ATOM      2  C   UNL     1       2.909   5.031  19.622  0.00  0.00    +0.000 C 
ATOM      3  C   UNL     1       1.988   4.058  20.261  0.00  0.00    +0.000 C 
ATOM      4  O   UNL     1       0.786   4.173  20.431  0.00  0.00    +0.000 OA
ATOM      5  N   UNL     1       2.711   2.971  20.609  0.00  0.00    +0.000 N 
ATOM      6  C   UNL     1       3.968   3.078  20.150  0.00  0.00    +0.000 C 
ATOM      7  O   UNL     1       4.840   2.228  20.160  0.00  0.00    +0.000 OA
ATOM      8  H   UNL     1       2.324   2.140  21.022  0.00  0.00    +0.000 HD
ENDROOT
BRANCH   2   9
ATOM      9  C   UNL     1       2.549   6.323  19.142  0.00  0.00    +0.000 A 
ATOM     10  C   UNL     1       2.857   6.787  17.878  0.00  0.00    +0.000 A 
ATOM     11  N   UNL     1       2.434   8.083  17.781  0.00  0.00    +0.000 N 
ATOM     12  C   UNL     1       1.855   8.482  18.961  0.00  0.00    +0.000 A 
ATOM     13  C   UNL     1       1.318   9.725  19.316  0.00  0.00    +0.000 A 
ATOM     14  C   UNL     1       0.793   9.862  20.603  0.00  0.00    +0.000 A 
ATOM     15  C   UNL     1       0.805   8.797  21.497  0.00  0.00    +0.000 A 
ATOM     16  C   UNL     1       1.351   7.562  21.128  0.00  0.00    +0.000 A 
ATOM     17  C   UNL     1       1.891   7.390  19.834  0.00  0.00    +0.000 A 
ATOM     18  H   UNL     1       2.552   8.675  16.969  0.00  0.00    +0.000 HD
ENDBRANCH   2   9
BRANCH   1  19
ATOM     19  N   UNL     1       5.356   4.842  19.111  0.00  0.00    +0.000 N 
ATOM     20  H   UNL     1       5.484   5.834  19.329  0.00  0.00    +0.000 HD
BRANCH  19  25
ATOM     21  C   UNL     1       6.625   4.155  13.544  0.00  0.00    +0.000 C 
ATOM     22  C   UNL     1       6.311   4.318  15.001  0.00  0.00    +0.000 A 
ATOM     23  C   UNL     1       5.128   3.810  15.544  0.00  0.00    +0.000 A 
ATOM     24  C   UNL     1       4.836   3.995  16.898  0.00  0.00    +0.000 A 
ATOM     25  C   UNL     1       5.730   4.661  17.749  0.00  0.00    +0.000 A 
ATOM     26  C   UNL     1       6.896   5.196  17.189  0.00  0.00    +0.000 A 
ATOM     27  C   UNL     1       7.191   5.014  15.833  0.00  0.00    +0.000 A 
ENDBRANCH  19  25
ENDBRANCH   1  19
TORSDOF 3
ENDMDL
MODEL 6
REMARK VINA RESULT:      -8.3      3.078      6.748
REMARK  Name = 
REMARK  4 active torsions:
REMARK  status: ('A' for Active; 'I' for Inactive)
REMARK    1  A    between atoms: C_1  and  C_2
REMARK    2  A    between atoms: C_5  and  N_6
REMARK    3  A    between atoms: N_6  and  C_7
REMARK    4  A    between atoms: C_8  and  C_9
REMARK                            x       y       z     vdW  Elec       q    Type
REMARK                         _______ _______ _______ _____ _____    ______ ____
ROOT
ATOM      1  C   UNL     1       6.355   6.209  17.300  0.00  0.00    +0.000 C 
ATOM      2  C   UNL     1       6.144   5.410  18.361  0.00  0.00    +0.000 C 
ATOM      3  C   UNL     1       7.226   5.706  19.332  0.00  0.00    +0.000 C 
ATOM      4  O   UNL     1       7.443   5.153  20.397  0.00  0.00    +0.000 OA
ATOM      5  N   UNL     1       7.983   6.700  18.818  0.00  0.00    +0.000 N 
ATOM      6  C   UNL     1       7.589   6.989  17.567  0.00  0.00    +0.000 C 
ATOM      7  O   UNL     1       8.134   7.728  16.766  0.00  0.00    +0.000 OA
ATOM      8  H   UNL     1       8.812   7.067  19.253  0.00  0.00    +0.000 HD
ENDROOT
BRANCH   2   9
ATOM      9  C   UNL     1       5.109   4.447  18.539  0.00  0.00    +0.000 A 
ATOM     10  C   UNL     1       5.138   3.178  17.994  0.00  0.00    +0.000 A 
ATOM     11  N   UNL     1       3.960   2.554  18.297  0.00  0.00    +0.000 N 
ATOM     12  C   UNL     1       3.155   3.392  19.031  0.00  0.00    +0.000 A 
ATOM     13  C   UNL     1       1.862   3.180  19.525  0.00  0.00    +0.000 A 
ATOM     14  C   UNL     1       1.263   4.218  20.242  0.00  0.00    +0.000 A 
ATOM     15  C   UNL     1       1.933   5.417  20.457  0.00  0.00    +0.000 A 
ATOM     16  C   UNL     1       3.223   5.614  19.951  0.00  0.00    +0.000 A 
ATOM     17  C   UNL     1       3.858   4.586  19.221  0.00  0.00    +0.000 A 
ATOM     18  H   UNL     1       3.703   1.621  18.004  0.00  0.00    +0.000 HD
ENDBRANCH   2   9
BRANCH   1  19
ATOM     19  N   UNL     1       5.690   6.393  16.100  0.00  0.00    +0.000 N 
ATOM     20  H   UNL     1       4.684   6.447  16.286  0.00  0.00    +0.000 HD
BRANCH  19  25
ATOM     21  C   UNL     1       6.633   2.722  11.775  0.00  0.00    +0.000 C 
ATOM     22  C   UNL     1       6.373   3.692  12.888  0.00  0.00    +0.000 A 
ATOM     23  C   UNL     1       7.361   4.585  13.312  0.00  0.00    +0.000 A 
ATOM     24  C   UNL     1       7.113   5.463  14.370  0.00  0.00    +0.000 A 
ATOM     25  C   UNL     1       5.865   5.495  15.009  0.00  0.00    +0.000 A 
ATOM     26  C   UNL     1       4.893   4.574  14.600  0.00  0.00    +0.000 A 
ATOM     27  C   UNL     1       5.139   3.691  13.542  0.00  0.00    +0.000 A 
ENDBRANCH  19  25
ENDBRANCH   1  19
TORSDOF 3
ENDMDL
MODEL 7
REMARK VINA RESULT:      -8.3      1.754      2.339
REMARK  Name = 
REMARK  4 active torsions:
REMARK  status: ('A' for Active; 'I' for Inactive)
REMARK    1  A    between atoms: C_1  and  C_2
REMARK    2  A    between atoms: C_5  and  N_6
REMARK    3  A    between atoms: N_6  and  C_7
REMARK    4  A    between atoms: C_8  and  C_9
REMARK                            x       y       z     vdW  Elec       q    Type
REMARK                         _______ _______ _______ _____ _____    ______ ____
ROOT
ATOM      1  C   UNL     1       2.425   5.285  19.373  0.00  0.00    +0.000 C 
ATOM      2  C   UNL     1       3.143   5.038  18.264  0.00  0.00    +0.000 C 
ATOM      3  C   UNL     1       2.586   3.797  17.670  0.00  0.00    +0.000 C 
ATOM      4  O   UNL     1       2.994   3.191  16.694  0.00  0.00    +0.000 OA
ATOM      5  N   UNL     1       1.536   3.411  18.428  0.00  0.00    +0.000 N 
ATOM      6  C   UNL     1       1.434   4.190  19.517  0.00  0.00    +0.000 C 
ATOM      7  O   UNL     1       0.696   4.038  20.475  0.00  0.00    +0.000 OA
ATOM      8  H   UNL     1       1.001   2.574  18.273  0.00  0.00    +0.000 HD
ENDROOT
BRANCH   2   9
ATOM      9  C   UNL     1       4.240   5.786  17.745  0.00  0.00    +0.000 A 
ATOM     10  C   UNL     1       4.197   6.487  16.556  0.00  0.00    +0.000 A 
ATOM     11  N   UNL     1       5.435   7.019  16.327  0.00  0.00    +0.000 N 
ATOM     12  C   UNL     1       6.293   6.678  17.345  0.00  0.00    +0.000 A 
ATOM     13  C   UNL     1       7.652   6.977  17.505  0.00  0.00    +0.000 A 
ATOM     14  C   UNL     1       8.293   6.492  18.647  0.00  0.00    +0.000 A 
ATOM     15  C   UNL     1       7.601   5.740  19.590  0.00  0.00    +0.000 A 
ATOM     16  C   UNL     1       6.245   5.445  19.411  0.00  0.00    +0.000 A 
ATOM     17  C   UNL     1       5.566   5.919  18.268  0.00  0.00    +0.000 A 
ATOM     18  H   UNL     1       5.695   7.563  15.515  0.00  0.00    +0.000 HD
ENDBRANCH   2   9
BRANCH   1  19
ATOM     19  N   UNL     1       2.465   6.285  20.329  0.00  0.00    +0.000 N 
ATOM     20  H   UNL     1       2.113   5.910  21.214  0.00  0.00    +0.000 HD
BRANCH  19  25
ATOM     21  C   UNL     1      -0.076  11.408  19.723  0.00  0.00    +0.000 C 
ATOM     22  C   UNL     1       0.569  10.063  19.867  0.00  0.00    +0.000 A 
ATOM     23  C   UNL     1       0.491   9.351  21.067  0.00  0.00    +0.000 A 
ATOM     24  C   UNL     1       1.122   8.111  21.194  0.00  0.00    +0.000 A 
ATOM     25  C   UNL     1       1.819   7.537  20.121  0.00  0.00    +0.000 A 
ATOM     26  C   UNL     1       1.920   8.273  18.934  0.00  0.00    +0.000 A 
ATOM     27  C   UNL     1       1.291   9.516  18.803  0.00  0.00    +0.000 A 
ENDBRANCH  19  25
ENDBRANCH   1  19
TORSDOF 3
ENDMDL
MODEL 8
REMARK VINA RESULT:      -8.2      1.199      1.969
REMARK  Name = 
REMARK  4 active torsions:
REMARK  status: ('A' for Active; 'I' for Inactive)
REMARK    1  A    between atoms: C_1  and  C_2
REMARK    2  A    between atoms: C_5  and  N_6
REMARK    3  A    between atoms: N_6  and  C_7
REMARK    4  A    between atoms: C_8  and  C_9
REMARK                            x       y       z     vdW  Elec       q    Type
REMARK                         _______ _______ _______ _____ _____    ______ ____
ROOT
ATOM      1  C   UNL     1       2.591   4.370  19.778  0.00  0.00    +0.000 C 
ATOM      2  C   UNL     1       3.145   3.870  18.659  0.00  0.00    +0.000 C 
ATOM      3  C   UNL     1       2.527   2.538  18.443  0.00  0.00    +0.000 C 
ATOM      4  O   UNL     1       2.800   1.723  17.578  0.00  0.00    +0.000 OA
ATOM      5  N   UNL     1       1.605   2.348  19.411  0.00  0.00    +0.000 N 
ATOM      6  C   UNL     1       1.649   3.351  20.303  0.00  0.00    +0.000 C 
ATOM      7  O   UNL     1       1.060   3.428  21.367  0.00  0.00    +0.000 OA
ATOM      8  H   UNL     1       1.067   1.506  19.527  0.00  0.00    +0.000 HD
ENDROOT
BRANCH   2   9
ATOM      9  C   UNL     1       4.142   4.466  17.834  0.00  0.00    +0.000 A 
ATOM     10  C   UNL     1       4.064   4.528  16.456  0.00  0.00    +0.000 A 
ATOM     11  N   UNL     1       5.217   5.091  15.985  0.00  0.00    +0.000 N 
ATOM     12  C   UNL     1       6.055   5.398  17.030  0.00  0.00    +0.000 A 
ATOM     13  C   UNL     1       7.340   5.955  17.010  0.00  0.00    +0.000 A 
ATOM     14  C   UNL     1       7.979   6.157  18.234  0.00  0.00    +0.000 A 
ATOM     15  C   UNL     1       7.356   5.818  19.430  0.00  0.00    +0.000 A 
ATOM     16  C   UNL     1       6.074   5.257  19.433  0.00  0.00    +0.000 A 
ATOM     17  C   UNL     1       5.399   5.038  18.212  0.00  0.00    +0.000 A 
ATOM     18  H   UNL     1       5.438   5.237  15.009  0.00  0.00    +0.000 HD
ENDBRANCH   2   9
BRANCH   1  19
ATOM     19  N   UNL     1       2.752   5.557  20.471  0.00  0.00    +0.000 N 
ATOM     20  H   UNL     1       2.381   5.439  21.418  0.00  0.00    +0.000 HD
BRANCH  19  25
ATOM     21  C   UNL     1       0.718  10.625  18.670  0.00  0.00    +0.000 C 
ATOM     22  C   UNL     1       1.231   9.293  19.126  0.00  0.00    +0.000 A 
ATOM     23  C   UNL     1       0.997   8.837  20.426  0.00  0.00    +0.000 A 
ATOM     24  C   UNL     1       1.507   7.605  20.844  0.00  0.00    +0.000 A 
ATOM     25  C   UNL     1       2.235   6.785  19.970  0.00  0.00    +0.000 A 
ATOM     26  C   UNL     1       2.494   7.267  18.681  0.00  0.00    +0.000 A 
ATOM     27  C   UNL     1       1.986   8.500  18.258  0.00  0.00    +0.000 A 
ENDBRANCH  19  25
ENDBRANCH   1  19
TORSDOF 3
ENDMDL
MODEL 9
REMARK VINA RESULT:      -8.1      2.322      4.734
REMARK  Name = 
REMARK  4 active torsions:
REMARK  status: ('A' for Active; 'I' for Inactive)
REMARK    1  A    between atoms: C_1  and  C_2
REMARK    2  A    between atoms: C_5  and  N_6
REMARK    3  A    between atoms: N_6  and  C_7
REMARK    4  A    between atoms: C_8  and  C_9
REMARK                            x       y       z     vdW  Elec       q    Type
REMARK                         _______ _______ _______ _____ _____    ______ ____
ROOT
ATOM      1  C   UNL     1       4.691   6.525  17.495  0.00  0.00    +0.000 C 
ATOM      2  C   UNL     1       4.820   5.254  17.917  0.00  0.00    +0.000 C 
ATOM      3  C   UNL     1       6.264   5.045  18.188  0.00  0.00    +0.000 C 
ATOM      4  O   UNL     1       6.816   4.011  18.523  0.00  0.00    +0.000 OA
ATOM      5  N   UNL     1       6.900   6.216  17.966  0.00  0.00    +0.000 N 
ATOM      6  C   UNL     1       6.049   7.122  17.457  0.00  0.00    +0.000 C 
ATOM      7  O   UNL     1       6.314   8.225  17.012  0.00  0.00    +0.000 OA
ATOM      8  H   UNL     1       7.895   6.344  18.034  0.00  0.00    +0.000 HD
ENDROOT
BRANCH   2   9
ATOM      9  C   UNL     1       3.796   4.274  18.065  0.00  0.00    +0.000 A 
ATOM     10  C   UNL     1       3.298   3.520  17.021  0.00  0.00    +0.000 A 
ATOM     11  N   UNL     1       2.282   2.741  17.501  0.00  0.00    +0.000 N 
ATOM     12  C   UNL     1       2.101   2.972  18.843  0.00  0.00    +0.000 A 
ATOM     13  C   UNL     1       1.162   2.424  19.725  0.00  0.00    +0.000 A 
ATOM     14  C   UNL     1       1.195   2.847  21.056  0.00  0.00    +0.000 A 
ATOM     15  C   UNL     1       2.134   3.779  21.485  0.00  0.00    +0.000 A 
ATOM     16  C   UNL     1       3.062   4.322  20.589  0.00  0.00    +0.000 A 
ATOM     17  C   UNL     1       3.055   3.917  19.236  0.00  0.00    +0.000 A 
ATOM     18  H   UNL     1       1.723   2.105  16.947  0.00  0.00    +0.000 HD
ENDBRANCH   2   9
BRANCH   1  19
ATOM     19  N   UNL     1       3.608   7.293  17.104  0.00  0.00    +0.000 N 
ATOM     20  H   UNL     1       3.933   8.015  16.455  0.00  0.00    +0.000 HD
BRANCH  19  25
ATOM     21  C   UNL     1       0.064   9.944  20.776  0.00  0.00    +0.000 C 
ATOM     22  C   UNL     1       1.007   9.260  19.832  0.00  0.00    +0.000 A 
ATOM     23  C   UNL     1       1.249   9.775  18.556  0.00  0.00    +0.000 A 
ATOM     24  C   UNL     1       2.108   9.111  17.677  0.00  0.00    +0.000 A 
ATOM     25  C   UNL     1       2.771   7.935  18.059  0.00  0.00    +0.000 A 
ATOM     26  C   UNL     1       2.495   7.409  19.327  0.00  0.00    +0.000 A 
ATOM     27  C   UNL     1       1.634   8.070  20.209  0.00  0.00    +0.000 A 
ENDBRANCH  19  25
ENDBRANCH   1  19
TORSDOF 3
ENDMDL
