MODEL 1
REMARK VINA RESULT:      -7.4      0.000      0.000
REMARK  Name = 
REMARK  3 active torsions:
REMARK  status: ('A' for Active; 'I' for Inactive)
REMARK    1  A    between atoms: C_1  and  N_2
REMARK    2  A    between atoms: N_2  and  C_3
REMARK    3  A    between atoms: C_3  and  C_5
REMARK                            x       y       z     vdW  Elec       q    Type
REMARK                         _______ _______ _______ _____ _____    ______ ____
ROOT
ATOM      1  C   UNL     1       5.173   5.186  16.039  0.00  0.00    +0.000 C 
ATOM      2  C   UNL     1       4.816   6.672  15.878  0.00  0.00    +0.000 C 
ATOM      3  C   UNL     1       4.626   7.354  17.223  0.00  0.00    +0.000 C 
ATOM      4  C   UNL     1       3.524   6.681  18.032  0.00  0.00    +0.000 C 
ATOM      5  C   UNL     1       3.497   5.170  17.960  0.00  0.00    +0.000 A 
ATOM      6  C   UNL     1       4.210   4.474  16.973  0.00  0.00    +0.000 A 
ATOM      7  N   UNL     1       4.173   3.126  16.853  0.00  0.00    +0.000 NA
ATOM      8  C   UNL     1       3.430   2.437  17.740  0.00  0.00    +0.000 A 
ATOM      9  C   UNL     1       2.712   3.020  18.774  0.00  0.00    +0.000 A 
ATOM     10  C   UNL     1       2.714   4.422  18.868  0.00  0.00    +0.000 A 
ATOM     11  C   UNL     1       1.951   5.111  19.978  0.00  0.00    +0.000 C 
ATOM     12  C   UNL     1       0.897   4.228  20.640  0.00  0.00    +0.000 C 
ATOM     13  C   UNL     1       1.491   2.871  20.985  0.00  0.00    +0.000 C 
ATOM     14  C   UNL     1       1.923   2.146  19.713  0.00  0.00    +0.000 C 
ENDROOT
BRANCH   1  15
ATOM     15  C   UNL     1       6.641   4.995  16.492  0.00  0.00    +0.000 C 
ATOM     16  S   UNL     1       6.996   4.852  18.132  0.00  0.00    +0.000 S 
BRANCH  15  18
ATOM     17  C   UNL     1       7.308   4.770  14.065  0.00  0.00    +0.000 C 
ATOM     18  N   UNL     1       7.586   4.865  15.483  0.00  0.00    +0.000 N 
ATOM     19  H   UNL     1       8.514   4.564  15.752  0.00  0.00    +0.000 HD
ENDBRANCH  15  18
ENDBRANCH   1  15
TORSDOF 2
ENDMDL
MODEL 2
REMARK VINA RESULT:      -7.2      2.422      5.824
REMARK  Name = 
REMARK  3 active torsions:
REMARK  status: ('A' for Active; 'I' for Inactive)
REMARK    1  A    between atoms: C_1  and  N_2
REMARK    2  A    between atoms: N_2  and  C_3
REMARK    3  A    between atoms: C_3  and  C_5
REMARK                            x       y       z     vdW  Elec       q    Type
REMARK                         _______ _______ _______ _____ _____    ______ ____
ROOT
ATOM      1  C   UNL     1       1.403   4.159  19.087  0.00  0.00    +0.000 C 
ATOM      2  C   UNL     1       1.026   2.710  18.744  0.00  0.00    +0.000 C 
ATOM      3  C   UNL     1       2.251   1.812  18.673  0.00  0.00    +0.000 C 
ATOM      4  C   UNL     1       3.241   2.311  17.627  0.00  0.00    +0.000 C 
ATOM      5  C   UNL     1       3.421   3.812  17.568  0.00  0.00    +0.000 A 
ATOM      6  C   UNL     1       2.511   4.680  18.188  0.00  0.00    +0.000 A 
ATOM      7  N   UNL     1       2.618   6.029  18.119  0.00  0.00    +0.000 NA
ATOM      8  C   UNL     1       3.660   6.541  17.436  0.00  0.00    +0.000 A 
ATOM      9  C   UNL     1       4.635   5.776  16.813  0.00  0.00    +0.000 A 
ATOM     10  C   UNL     1       4.496   4.378  16.847  0.00  0.00    +0.000 A 
ATOM     11  C   UNL     1       5.531   3.494  16.186  0.00  0.00    +0.000 C 
ATOM     12  C   UNL     1       6.407   4.225  15.172  0.00  0.00    +0.000 C 
ATOM     13  C   UNL     1       6.926   5.525  15.768  0.00  0.00    +0.000 C 
ATOM     14  C   UNL     1       5.762   6.460  16.086  0.00  0.00    +0.000 C 
ENDROOT
BRANCH   1  15
ATOM     15  C   UNL     1       1.770   4.318  20.583  0.00  0.00    +0.000 C 
ATOM     16  S   UNL     1       1.703   2.981  21.604  0.00  0.00    +0.000 S 
BRANCH  15  18
ATOM     17  C   UNL     1       1.431   6.779  21.047  0.00  0.00    +0.000 C 
ATOM     18  N   UNL     1       2.225   5.570  20.976  0.00  0.00    +0.000 N 
ATOM     19  H   UNL     1       3.225   5.720  20.976  0.00  0.00    +0.000 HD
ENDBRANCH  15  18
ENDBRANCH   1  15
TORSDOF 2
ENDMDL
MODEL 3
REMARK VINA RESULT:      -7.0      1.195      1.428
REMARK  Name = 
REMARK  3 active torsions:
REMARK  status: ('A' for Active; 'I' for Inactive)
REMARK    1  A    between atoms: C_1  and  N_2
REMARK    2  A    between atoms: N_2  and  C_3
REMARK    3  A    between atoms: C_3  and  C_5
REMARK                            x       y       z     vdW  Elec       q    Type
REMARK                         _______ _______ _______ _____ _____    ______ ____
ROOT
ATOM      1  C   UNL     1       4.847   5.093  15.801  0.00  0.00    +0.000 C 
ATOM      2  C   UNL     1       4.809   6.626  15.897  0.00  0.00    +0.000 C 
ATOM      3  C   UNL     1       5.082   7.109  17.312  0.00  0.00    +0.000 C 
ATOM      4  C   UNL     1       4.064   6.542  18.294  0.00  0.00    +0.000 C 
ATOM      5  C   UNL     1       3.679   5.096  18.068  0.00  0.00    +0.000 A 
ATOM      6  C   UNL     1       3.979   4.442  16.864  0.00  0.00    +0.000 A 
ATOM      7  N   UNL     1       3.612   3.163  16.612  0.00  0.00    +0.000 NA
ATOM      8  C   UNL     1       2.948   2.499  17.577  0.00  0.00    +0.000 A 
ATOM      9  C   UNL     1       2.628   3.038  18.815  0.00  0.00    +0.000 A 
ATOM     10  C   UNL     1       2.969   4.379  19.057  0.00  0.00    +0.000 A 
ATOM     11  C   UNL     1       2.648   5.018  20.390  0.00  0.00    +0.000 C 
ATOM     12  C   UNL     1       1.594   4.262  21.196  0.00  0.00    +0.000 C 
ATOM     13  C   UNL     1       1.927   2.778  21.232  0.00  0.00    +0.000 C 
ATOM     14  C   UNL     1       1.891   2.195  19.822  0.00  0.00    +0.000 C 
ENDROOT
BRANCH   1  15
ATOM     15  C   UNL     1       6.297   4.551  15.849  0.00  0.00    +0.000 C 
ATOM     16  S   UNL     1       7.285   4.694  14.493  0.00  0.00    +0.000 S 
BRANCH  15  18
ATOM     17  C   UNL     1       7.692   4.662  17.952  0.00  0.00    +0.000 C 
ATOM     18  N   UNL     1       6.726   4.044  17.068  0.00  0.00    +0.000 N 
ATOM     19  H   UNL     1       6.554   3.064  17.249  0.00  0.00    +0.000 HD
ENDBRANCH  15  18
ENDBRANCH   1  15
TORSDOF 2
ENDMDL
MODEL 4
REMARK VINA RESULT:      -7.0      1.655      1.928
REMARK  Name = 
REMARK  3 active torsions:
REMARK  status: ('A' for Active; 'I' for Inactive)
REMARK    1  A    between atoms: C_1  and  N_2
REMARK    2  A    between atoms: N_2  and  C_3
REMARK    3  A    between atoms: C_3  and  C_5
REMARK                            x       y       z     vdW  Elec       q    Type
REMARK                         _______ _______ _______ _____ _____    ______ ____
ROOT
ATOM      1  C   UNL     1       5.880   5.700  17.034  0.00  0.00    +0.000 C 
ATOM      2  C   UNL     1       5.046   6.703  16.223  0.00  0.00    +0.000 C 
ATOM      3  C   UNL     1       4.132   7.527  17.116  0.00  0.00    +0.000 C 
ATOM      4  C   UNL     1       3.177   6.635  17.900  0.00  0.00    +0.000 C 
ATOM      5  C   UNL     1       3.780   5.356  18.439  0.00  0.00    +0.000 A 
ATOM      6  C   UNL     1       5.013   4.878  17.973  0.00  0.00    +0.000 A 
ATOM      7  N   UNL     1       5.561   3.716  18.401  0.00  0.00    +0.000 NA
ATOM      8  C   UNL     1       4.887   3.010  19.331  0.00  0.00    +0.000 A 
ATOM      9  C   UNL     1       3.678   3.406  19.884  0.00  0.00    +0.000 A 
ATOM     10  C   UNL     1       3.090   4.588  19.403  0.00  0.00    +0.000 A 
ATOM     11  C   UNL     1       1.773   5.068  19.973  0.00  0.00    +0.000 C 
ATOM     12  C   UNL     1       0.994   3.987  20.719  0.00  0.00    +0.000 C 
ATOM     13  C   UNL     1       1.911   3.257  21.688  0.00  0.00    +0.000 C 
ATOM     14  C   UNL     1       3.021   2.539  20.925  0.00  0.00    +0.000 C 
ENDROOT
BRANCH   1  15
ATOM     15  C   UNL     1       7.033   6.396  17.798  0.00  0.00    +0.000 C 
ATOM     16  S   UNL     1       7.581   5.747  19.251  0.00  0.00    +0.000 S 
BRANCH  15  18
ATOM     17  C   UNL     1       7.962   8.746  17.810  0.00  0.00    +0.000 C 
ATOM     18  N   UNL     1       7.611   7.493  17.174  0.00  0.00    +0.000 N 
ATOM     19  H   UNL     1       7.561   7.532  16.164  0.00  0.00    +0.000 HD
ENDBRANCH  15  18
ENDBRANCH   1  15
TORSDOF 2
ENDMDL
MODEL 5
REMARK VINA RESULT:      -6.9      2.619      5.440
REMARK  Name = 
REMARK  3 active torsions:
REMARK  status: ('A' for Active; 'I' for Inactive)
REMARK    1  A    between atoms: C_1  and  N_2
REMARK    2  A    between atoms: N_2  and  C_3
REMARK    3  A    between atoms: C_3  and  C_5
REMARK                            x       y       z     vdW  Elec       q    Type
REMARK                         _______ _______ _______ _____ _____    ______ ____
ROOT
ATOM      1  C   UNL     1       2.655   4.463  20.120  0.00  0.00    +0.000 C 
ATOM      2  C   UNL     1       1.295   4.466  19.405  0.00  0.00    +0.000 C 
ATOM      3  C   UNL     1       1.317   3.609  18.150  0.00  0.00    +0.000 C 
ATOM      4  C   UNL     1       2.376   4.097  17.168  0.00  0.00    +0.000 C 
ATOM      5  C   UNL     1       3.686   4.532  17.789  0.00  0.00    +0.000 A 
ATOM      6  C   UNL     1       3.793   4.780  19.165  0.00  0.00    +0.000 A 
ATOM      7  N   UNL     1       4.937   5.212  19.748  0.00  0.00    +0.000 NA
ATOM      8  C   UNL     1       6.014   5.387  18.959  0.00  0.00    +0.000 A 
ATOM      9  C   UNL     1       6.029   5.141  17.594  0.00  0.00    +0.000 A 
ATOM     10  C   UNL     1       4.828   4.739  16.985  0.00  0.00    +0.000 A 
ATOM     11  C   UNL     1       4.787   4.454  15.499  0.00  0.00    +0.000 C 
ATOM     12  C   UNL     1       5.961   5.048  14.726  0.00  0.00    +0.000 C 
ATOM     13  C   UNL     1       7.270   4.724  15.428  0.00  0.00    +0.000 C 
ATOM     14  C   UNL     1       7.298   5.364  16.814  0.00  0.00    +0.000 C 
ENDROOT
BRANCH   1  15
ATOM     15  C   UNL     1       2.905   3.133  20.872  0.00  0.00    +0.000 C 
ATOM     16  S   UNL     1       1.712   2.510  21.884  0.00  0.00    +0.000 S 
BRANCH  15  18
ATOM     17  C   UNL     1       4.279   1.433  19.606  0.00  0.00    +0.000 C 
ATOM     18  N   UNL     1       4.097   2.479  20.589  0.00  0.00    +0.000 N 
ATOM     19  H   UNL     1       4.837   2.549  21.275  0.00  0.00    +0.000 HD
ENDBRANCH  15  18
ENDBRANCH   1  15
TORSDOF 2
ENDMDL
MODEL 6
REMARK VINA RESULT:      -6.9      1.120      1.411
REMARK  Name = 
REMARK  3 active torsions:
REMARK  status: ('A' for Active; 'I' for Inactive)
REMARK    1  A    between atoms: C_1  and  N_2
REMARK    2  A    between atoms: N_2  and  C_3
REMARK    3  A    between atoms: C_3  and  C_5
REMARK                            x       y       z     vdW  Elec       q    Type
REMARK                         _______ _______ _______ _____ _____    ______ ____
ROOT
ATOM      1  C   UNL     1       5.203   5.806  16.280  0.00  0.00    +0.000 C 
ATOM      2  C   UNL     1       4.536   7.175  16.082  0.00  0.00    +0.000 C 
ATOM      3  C   UNL     1       4.049   7.760  17.398  0.00  0.00    +0.000 C 
ATOM      4  C   UNL     1       3.048   6.833  18.077  0.00  0.00    +0.000 C 
ATOM      5  C   UNL     1       3.374   5.358  18.000  0.00  0.00    +0.000 A 
ATOM      6  C   UNL     1       4.331   4.868  17.098  0.00  0.00    +0.000 A 
ATOM      7  N   UNL     1       4.617   3.551  16.973  0.00  0.00    +0.000 NA
ATOM      8  C   UNL     1       3.957   2.688  17.770  0.00  0.00    +0.000 A 
ATOM      9  C   UNL     1       3.016   3.065  18.717  0.00  0.00    +0.000 A 
ATOM     10  C   UNL     1       2.688   4.427  18.812  0.00  0.00    +0.000 A 
ATOM     11  C   UNL     1       1.671   4.896  19.830  0.00  0.00    +0.000 C 
ATOM     12  C   UNL     1       0.780   3.779  20.367  0.00  0.00    +0.000 C 
ATOM     13  C   UNL     1       1.626   2.583  20.775  0.00  0.00    +0.000 C 
ATOM     14  C   UNL     1       2.350   2.010  19.560  0.00  0.00    +0.000 C 
ENDROOT
BRANCH   1  15
ATOM     15  C   UNL     1       6.617   5.940  16.897  0.00  0.00    +0.000 C 
ATOM     16  S   UNL     1       7.320   4.618  17.666  0.00  0.00    +0.000 S 
BRANCH  15  18
ATOM     17  C   UNL     1       7.820   8.002  17.726  0.00  0.00    +0.000 C 
ATOM     18  N   UNL     1       7.266   7.151  16.694  0.00  0.00    +0.000 N 
ATOM     19  H   UNL     1       7.131   7.605  15.800  0.00  0.00    +0.000 HD
ENDBRANCH  15  18
ENDBRANCH   1  15
TORSDOF 2
ENDMDL
MODEL 7
REMARK VINA RESULT:      -6.8      2.413      5.902
REMARK  Name = 
REMARK  3 active torsions:
REMARK  status: ('A' for Active; 'I' for Inactive)
REMARK    1  A    between atoms: C_1  and  N_2
REMARK    2  A    between atoms: N_2  and  C_3
REMARK    3  A    between atoms: C_3  and  C_5
REMARK                            x       y       z     vdW  Elec       q    Type
REMARK                         _______ _______ _______ _____ _____    ______ ____
ROOT
ATOM      1  C   UNL     1       1.449   4.079  18.586  0.00  0.00    +0.000 C 
ATOM      2  C   UNL     1       1.472   2.606  18.150  0.00  0.00    +0.000 C 
ATOM      3  C   UNL     1       2.806   1.947  18.464  0.00  0.00    +0.000 C 
ATOM      4  C   UNL     1       3.955   2.670  17.772  0.00  0.00    +0.000 C 
ATOM      5  C   UNL     1       3.861   4.180  17.764  0.00  0.00    +0.000 A 
ATOM      6  C   UNL     1       2.660   4.837  18.069  0.00  0.00    +0.000 A 
ATOM      7  N   UNL     1       2.529   6.185  18.030  0.00  0.00    +0.000 NA
ATOM      8  C   UNL     1       3.614   6.911  17.699  0.00  0.00    +0.000 A 
ATOM      9  C   UNL     1       4.857   6.367  17.410  0.00  0.00    +0.000 A 
ATOM     10  C   UNL     1       4.978   4.967  17.406  0.00  0.00    +0.000 A 
ATOM     11  C   UNL     1       6.311   4.320  17.101  0.00  0.00    +0.000 C 
ATOM     12  C   UNL     1       7.301   5.249  16.402  0.00  0.00    +0.000 C 
ATOM     13  C   UNL     1       7.361   6.587  17.123  0.00  0.00    +0.000 C 
ATOM     14  C   UNL     1       6.002   7.281  17.062  0.00  0.00    +0.000 C 
ENDROOT
BRANCH   1  15
ATOM     15  C   UNL     1       1.308   4.222  20.121  0.00  0.00    +0.000 C 
ATOM     16  S   UNL     1       1.664   5.693  20.858  0.00  0.00    +0.000 S 
BRANCH  15  18
ATOM     17  C   UNL     1       1.443   2.429  21.897  0.00  0.00    +0.000 C 
ATOM     18  N   UNL     1       0.801   3.120  20.798  0.00  0.00    +0.000 N 
ATOM     19  H   UNL     1       0.059   2.601  20.348  0.00  0.00    +0.000 HD
ENDBRANCH  15  18
ENDBRANCH   1  15
TORSDOF 2
ENDMDL
MODEL 8
REMARK VINA RESULT:      -6.8      2.021      3.021
REMARK  Name = 
REMARK  3 active torsions:
REMARK  status: ('A' for Active; 'I' for Inactive)
REMARK    1  A    between atoms: C_1  and  N_2
REMARK    2  A    between atoms: N_2  and  C_3
REMARK    3  A    between atoms: C_3  and  C_5
REMARK                            x       y       z     vdW  Elec       q    Type
REMARK                         _______ _______ _______ _____ _____    ______ ____
ROOT
ATOM      1  C   UNL     1       6.630   5.339  17.642  0.00  0.00    +0.000 C 
ATOM      2  C   UNL     1       7.122   4.393  16.535  0.00  0.00    +0.000 C 
ATOM      3  C   UNL     1       6.002   4.016  15.578  0.00  0.00    +0.000 C 
ATOM      4  C   UNL     1       4.854   3.336  16.314  0.00  0.00    +0.000 C 
ATOM      5  C   UNL     1       4.506   3.928  17.662  0.00  0.00    +0.000 A 
ATOM      6  C   UNL     1       5.378   4.807  18.320  0.00  0.00    +0.000 A 
ATOM      7  N   UNL     1       5.118   5.322  19.545  0.00  0.00    +0.000 NA
ATOM      8  C   UNL     1       3.957   4.979  20.135  0.00  0.00    +0.000 A 
ATOM      9  C   UNL     1       3.008   4.144  19.562  0.00  0.00    +0.000 A 
ATOM     10  C   UNL     1       3.302   3.575  18.312  0.00  0.00    +0.000 A 
ATOM     11  C   UNL     1       2.302   2.660  17.639  0.00  0.00    +0.000 C 
ATOM     12  C   UNL     1       1.245   2.101  18.587  0.00  0.00    +0.000 C 
ATOM     13  C   UNL     1       0.657   3.219  19.434  0.00  0.00    +0.000 C 
ATOM     14  C   UNL     1       1.739   3.839  20.314  0.00  0.00    +0.000 C 
ENDROOT
BRANCH   1  15
ATOM     15  C   UNL     1       6.416   6.778  17.114  0.00  0.00    +0.000 C 
ATOM     16  S   UNL     1       4.854   7.344  16.844  0.00  0.00    +0.000 S 
BRANCH  15  18
ATOM     17  C   UNL     1       7.921   8.686  17.807  0.00  0.00    +0.000 C 
ATOM     18  N   UNL     1       7.556   7.559  16.974  0.00  0.00    +0.000 N 
ATOM     19  H   UNL     1       8.046   7.511  16.090  0.00  0.00    +0.000 HD
ENDBRANCH  15  18
ENDBRANCH   1  15
TORSDOF 2
ENDMDL
MODEL 9
REMARK VINA RESULT:      -6.6      1.571      1.910
REMARK  Name = 
REMARK  3 active torsions:
REMARK  status: ('A' for Active; 'I' for Inactive)
REMARK    1  A    between atoms: C_1  and  N_2
REMARK    2  A    between atoms: N_2  and  C_3
REMARK    3  A    between atoms: C_3  and  C_5
REMARK                            x       y       z     vdW  Elec       q    Type
REMARK                         _______ _______ _______ _____ _____    ______ ____
ROOT
ATOM      1  C   UNL     1       5.613   5.588  16.885  0.00  0.00    +0.000 C 
ATOM      2  C   UNL     1       4.866   6.777  16.262  0.00  0.00    +0.000 C 
ATOM      3  C   UNL     1       4.102   7.573  17.308  0.00  0.00    +0.000 C 
ATOM      4  C   UNL     1       3.088   6.698  18.034  0.00  0.00    +0.000 C 
ATOM      5  C   UNL     1       3.560   5.299  18.369  0.00  0.00    +0.000 A 
ATOM      6  C   UNL     1       4.702   4.752  17.767  0.00  0.00    +0.000 A 
ATOM      7  N   UNL     1       5.127   3.489  18.010  0.00  0.00    +0.000 NA
ATOM      8  C   UNL     1       4.421   2.748  18.885  0.00  0.00    +0.000 A 
ATOM      9  C   UNL     1       3.297   3.199  19.561  0.00  0.00    +0.000 A 
ATOM     10  C   UNL     1       2.831   4.493  19.271  0.00  0.00    +0.000 A 
ATOM     11  C   UNL     1       1.611   5.039  19.981  0.00  0.00    +0.000 C 
ATOM     12  C   UNL     1       0.747   3.963  20.635  0.00  0.00    +0.000 C 
ATOM     13  C   UNL     1       1.617   3.013  21.443  0.00  0.00    +0.000 C 
ATOM     14  C   UNL     1       2.594   2.282  20.526  0.00  0.00    +0.000 C 
ENDROOT
BRANCH   1  15
ATOM     15  C   UNL     1       6.877   6.044  17.654  0.00  0.00    +0.000 C 
ATOM     16  S   UNL     1       7.499   7.587  17.397  0.00  0.00    +0.000 S 
BRANCH  15  18
ATOM     17  C   UNL     1       7.970   5.509  19.869  0.00  0.00    +0.000 C 
ATOM     18  N   UNL     1       7.380   5.155  18.595  0.00  0.00    +0.000 N 
ATOM     19  H   UNL     1       7.585   4.215  18.281  0.00  0.00    +0.000 HD
ENDBRANCH  15  18
ENDBRANCH   1  15
TORSDOF 2
ENDMDL
