MODEL 1
REMARK VINA RESULT:      -8.7      0.000      0.000
REMARK  Name = 
REMARK  5 active torsions:
REMARK  status: ('A' for Active; 'I' for Inactive)
REMARK    1  A    between atoms: C_3  and  C_4
REMARK    2  A    between atoms: N_13  and  C_14
REMARK    3  A    between atoms: C_14  and  C_15
REMARK    4  A    between atoms: C_14  and  C_21
REMARK    5  A    between atoms: C_15  and  N_16
REMARK                            x       y       z     vdW  Elec       q    Type
REMARK                         _______ _______ _______ _____ _____    ______ ____
ROOT
ATOM      1  O   UNL     1       4.867   6.791  16.224  0.00  0.00    +0.000 OA
ATOM      2  C   UNL     1       5.316   5.848  16.862  0.00  0.00    +0.000 A 
ATOM      3  C   UNL     1       6.386   4.972  16.269  0.00  0.00    +0.000 A 
ATOM      4  C   UNL     1       7.275   4.541  17.180  0.00  0.00    +0.000 A 
ATOM      5  N   UNL     1       7.221   4.797  18.524  0.00  0.00    +0.000 NA
ATOM      6  C   UNL     1       6.109   5.287  18.961  0.00  0.00    +0.000 A 
ATOM      7  N   UNL     1       5.014   5.586  18.186  0.00  0.00    +0.000 N 
ENDROOT
BRANCH   3   8
ATOM      8  C   UNL     1       6.544   4.689  14.819  0.00  0.00    +0.000 A 
ATOM      9  C   UNL     1       5.690   3.787  14.154  0.00  0.00    +0.000 A 
ATOM     10  C   UNL     1       5.840   3.489  12.798  0.00  0.00    +0.000 A 
ATOM     11  C   UNL     1       6.859   4.096  12.066  0.00  0.00    +0.000 A 
ATOM     12  C   UNL     1       7.699   5.006  12.687  0.00  0.00    +0.000 A 
ATOM     13  C   UNL     1       7.546   5.301  14.050  0.00  0.00    +0.000 A 
ENDBRANCH   3   8
BRANCH   7  14
ATOM     14  C   UNL     1       3.792   6.130  18.852  0.00  0.00    +0.000 C 
BRANCH  14  15
ATOM     15  C   UNL     1       2.630   5.105  18.979  0.00  0.00    +0.000 A 
ATOM     16  C   UNL     1       2.014   4.795  20.208  0.00  0.00    +0.000 A 
ATOM     17  C   UNL     1       1.148   3.706  20.328  0.00  0.00    +0.000 A 
ATOM     18  C   UNL     1       0.906   2.876  19.239  0.00  0.00    +0.000 A 
ATOM     19  C   UNL     1       1.469   3.183  18.005  0.00  0.00    +0.000 A 
ATOM     20  C   UNL     1       2.284   4.310  17.865  0.00  0.00    +0.000 A 
ENDBRANCH  14  15
BRANCH  14  21
ATOM     21  C   UNL     1       3.228   7.474  18.231  0.00  0.00    +0.000 C 
BRANCH  21  22
ATOM     22  N   UNL     1       1.810   7.823  18.510  0.00  0.00    +0.000 NA
ATOM     23  C   UNL     1       1.321   8.824  17.543  0.00  0.00    +0.000 C 
ATOM     24  C   UNL     1       1.694  10.165  18.144  0.00  0.00    +0.000 C 
ATOM     25  C   UNL     1       1.496   9.947  19.633  0.00  0.00    +0.000 C 
ATOM     26  C   UNL     1       1.561   8.440  19.820  0.00  0.00    +0.000 C 
ENDBRANCH  21  22
ENDBRANCH  14  21
ENDBRANCH   7  14
TORSDOF 5
ENDMDL
MODEL 2
REMARK VINA RESULT:      -8.4      0.327      1.366
REMARK  Name = 
REMARK  5 active torsions:
REMARK  status: ('A' for Active; 'I' for Inactive)
REMARK    1  A    between atoms: C_3  and  C_4
REMARK    2  A    between atoms: N_13  and  C_14
REMARK    3  A    between atoms: C_14  and  C_15
REMARK    4  A    between atoms: C_14  and  C_21
REMARK    5  A    between atoms: C_15  and  N_16
REMARK                            x       y       z     vdW  Elec       q    Type
REMARK                         _______ _______ _______ _____ _____    ______ ____
ROOT
ATOM      1  O   UNL     1       4.964   6.665  16.223  0.00  0.00    +0.000 OA
ATOM      2  C   UNL     1       5.499   5.760  16.849  0.00  0.00    +0.000 A 
ATOM      3  C   UNL     1       6.597   4.947  16.220  0.00  0.00    +0.000 A 
ATOM      4  C   UNL     1       7.548   4.584  17.096  0.00  0.00    +0.000 A 
ATOM      5  N   UNL     1       7.534   4.850  18.438  0.00  0.00    +0.000 NA
ATOM      6  C   UNL     1       6.412   5.274  18.917  0.00  0.00    +0.000 A 
ATOM      7  N   UNL     1       5.269   5.494  18.188  0.00  0.00    +0.000 N 
ENDROOT
BRANCH   3   8
ATOM      8  C   UNL     1       6.712   4.658  14.766  0.00  0.00    +0.000 A 
ATOM      9  C   UNL     1       7.661   5.321  13.964  0.00  0.00    +0.000 A 
ATOM     10  C   UNL     1       7.766   5.082  12.591  0.00  0.00    +0.000 A 
ATOM     11  C   UNL     1       6.915   4.160  11.984  0.00  0.00    +0.000 A 
ATOM     12  C   UNL     1       5.988   3.474  12.753  0.00  0.00    +0.000 A 
ATOM     13  C   UNL     1       5.885   3.719  14.130  0.00  0.00    +0.000 A 
ENDBRANCH   3   8
BRANCH   7  14
ATOM     14  C   UNL     1       4.044   5.967  18.900  0.00  0.00    +0.000 C 
BRANCH  14  15
ATOM     15  C   UNL     1       2.981   4.857  19.138  0.00  0.00    +0.000 A 
ATOM     16  C   UNL     1       2.327   4.184  18.087  0.00  0.00    +0.000 A 
ATOM     17  C   UNL     1       1.215   3.375  18.327  0.00  0.00    +0.000 A 
ATOM     18  C   UNL     1       0.703   3.247  19.614  0.00  0.00    +0.000 A 
ATOM     19  C   UNL     1       1.353   3.867  20.675  0.00  0.00    +0.000 A 
ATOM     20  C   UNL     1       2.505   4.626  20.447  0.00  0.00    +0.000 A 
ENDBRANCH  14  15
BRANCH  14  21
ATOM     21  C   UNL     1       3.335   7.229  18.256  0.00  0.00    +0.000 C 
BRANCH  21  22
ATOM     22  N   UNL     1       1.921   7.494  18.632  0.00  0.00    +0.000 NA
ATOM     23  C   UNL     1       1.290   8.413  17.665  0.00  0.00    +0.000 C 
ATOM     24  C   UNL     1       1.612   9.803  18.177  0.00  0.00    +0.000 C 
ATOM     25  C   UNL     1       1.544   9.643  19.686  0.00  0.00    +0.000 C 
ATOM     26  C   UNL     1       1.729   8.154  19.930  0.00  0.00    +0.000 C 
ENDBRANCH  21  22
ENDBRANCH  14  21
ENDBRANCH   7  14
TORSDOF 5
ENDMDL
MODEL 3
REMARK VINA RESULT:      -8.3      0.631      1.367
REMARK  Name = 
REMARK  5 active torsions:
REMARK  status: ('A' for Active; 'I' for Inactive)
REMARK    1  A    between atoms: C_3  and  C_4
REMARK    2  A    between atoms: N_13  and  C_14
REMARK    3  A    between atoms: C_14  and  C_15
REMARK    4  A    between atoms: C_14  and  C_21
REMARK    5  A    between atoms: C_15  and  N_16
REMARK                            x       y       z     vdW  Elec       q    Type
REMARK                         _______ _______ _______ _____ _____    ______ ____
ROOT
ATOM      1  O   UNL     1       4.480   6.736  16.369  0.00  0.00    +0.000 OA
ATOM      2  C   UNL     1       4.919   5.810  17.037  0.00  0.00    +0.000 A 
ATOM      3  C   UNL     1       6.052   4.968  16.516  0.00  0.00    +0.000 A 
ATOM      4  C   UNL     1       6.895   4.568  17.482  0.00  0.00    +0.000 A 
ATOM      5  N   UNL     1       6.749   4.824  18.819  0.00  0.00    +0.000 NA
ATOM      6  C   UNL     1       5.597   5.279  19.184  0.00  0.00    +0.000 A 
ATOM      7  N   UNL     1       4.543   5.541  18.341  0.00  0.00    +0.000 N 
ENDROOT
BRANCH   3   8
ATOM      8  C   UNL     1       6.309   4.687  15.080  0.00  0.00    +0.000 A 
ATOM      9  C   UNL     1       7.426   5.234  14.418  0.00  0.00    +0.000 A 
ATOM     10  C   UNL     1       7.669   5.003  13.062  0.00  0.00    +0.000 A 
ATOM     11  C   UNL     1       6.791   4.207  12.328  0.00  0.00    +0.000 A 
ATOM     12  C   UNL     1       5.697   3.634  12.959  0.00  0.00    +0.000 A 
ATOM     13  C   UNL     1       5.456   3.871  14.320  0.00  0.00    +0.000 A 
ENDBRANCH   3   8
BRANCH   7  14
ATOM     14  C   UNL     1       3.265   6.046  18.928  0.00  0.00    +0.000 C 
BRANCH  14  15
ATOM     15  C   UNL     1       2.234   4.930  19.257  0.00  0.00    +0.000 A 
ATOM     16  C   UNL     1       1.885   4.575  20.576  0.00  0.00    +0.000 A 
ATOM     17  C   UNL     1       1.148   3.419  20.842  0.00  0.00    +0.000 A 
ATOM     18  C   UNL     1       0.775   2.569  19.807  0.00  0.00    +0.000 A 
ATOM     19  C   UNL     1       1.071   2.916  18.493  0.00  0.00    +0.000 A 
ATOM     20  C   UNL     1       1.752   4.105  18.218  0.00  0.00    +0.000 A 
ENDBRANCH  14  15
BRANCH  14  21
ATOM     21  C   UNL     1       2.544   7.183  18.093  0.00  0.00    +0.000 C 
BRANCH  21  22
ATOM     22  N   UNL     1       2.570   8.565  18.640  0.00  0.00    +0.000 NA
ATOM     23  C   UNL     1       1.789   8.644  19.890  0.00  0.00    +0.000 C 
ATOM     24  C   UNL     1       0.367   8.924  19.446  0.00  0.00    +0.000 C 
ATOM     25  C   UNL     1       0.549   9.843  18.251  0.00  0.00    +0.000 C 
ATOM     26  C   UNL     1       1.972   9.594  17.779  0.00  0.00    +0.000 C 
ENDBRANCH  21  22
ENDBRANCH  14  21
ENDBRANCH   7  14
TORSDOF 5
ENDMDL
MODEL 4
REMARK VINA RESULT:      -8.3      0.599      1.333
REMARK  Name = 
REMARK  5 active torsions:
REMARK  status: ('A' for Active; 'I' for Inactive)
REMARK    1  A    between atoms: C_3  and  C_4
REMARK    2  A    between atoms: N_13  and  C_14
REMARK    3  A    between atoms: C_14  and  C_15
REMARK    4  A    between atoms: C_14  and  C_21
REMARK    5  A    between atoms: C_15  and  N_16
REMARK                            x       y       z     vdW  Elec       q    Type
REMARK                         _______ _______ _______ _____ _____    ______ ____
ROOT
ATOM      1  O   UNL     1       4.718   6.596  16.165  0.00  0.00    +0.000 OA
ATOM      2  C   UNL     1       5.247   5.693  16.800  0.00  0.00    +0.000 A 
ATOM      3  C   UNL     1       6.403   4.929  16.214  0.00  0.00    +0.000 A 
ATOM      4  C   UNL     1       7.316   4.575  17.134  0.00  0.00    +0.000 A 
ATOM      5  N   UNL     1       7.221   4.810  18.478  0.00  0.00    +0.000 NA
ATOM      6  C   UNL     1       6.062   5.188  18.904  0.00  0.00    +0.000 A 
ATOM      7  N   UNL     1       4.954   5.390  18.118  0.00  0.00    +0.000 N 
ENDROOT
BRANCH   3   8
ATOM      8  C   UNL     1       6.606   4.678  14.764  0.00  0.00    +0.000 A 
ATOM      9  C   UNL     1       5.816   3.742  14.068  0.00  0.00    +0.000 A 
ATOM     10  C   UNL     1       6.009   3.473  12.711  0.00  0.00    +0.000 A 
ATOM     11  C   UNL     1       7.009   4.145  12.009  0.00  0.00    +0.000 A 
ATOM     12  C   UNL     1       7.785   5.090  12.662  0.00  0.00    +0.000 A 
ATOM     13  C   UNL     1       7.588   5.355  14.025  0.00  0.00    +0.000 A 
ENDBRANCH   3   8
BRANCH   7  14
ATOM     14  C   UNL     1       3.677   5.809  18.771  0.00  0.00    +0.000 C 
BRANCH  14  15
ATOM     15  C   UNL     1       2.730   4.628  19.128  0.00  0.00    +0.000 A 
ATOM     16  C   UNL     1       2.136   3.801  18.154  0.00  0.00    +0.000 A 
ATOM     17  C   UNL     1       1.111   2.913  18.487  0.00  0.00    +0.000 A 
ATOM     18  C   UNL     1       0.626   2.856  19.788  0.00  0.00    +0.000 A 
ATOM     19  C   UNL     1       1.221   3.631  20.777  0.00  0.00    +0.000 A 
ATOM     20  C   UNL     1       2.290   4.473  20.461  0.00  0.00    +0.000 A 
ENDBRANCH  14  15
BRANCH  14  21
ATOM     21  C   UNL     1       2.851   6.913  17.991  0.00  0.00    +0.000 C 
BRANCH  21  22
ATOM     22  N   UNL     1       2.828   8.288  18.557  0.00  0.00    +0.000 NA
ATOM     23  C   UNL     1       1.994   8.335  19.774  0.00  0.00    +0.000 C 
ATOM     24  C   UNL     1       0.587   8.595  19.274  0.00  0.00    +0.000 C 
ATOM     25  C   UNL     1       0.801   9.533  18.100  0.00  0.00    +0.000 C 
ATOM     26  C   UNL     1       2.247   9.317  17.684  0.00  0.00    +0.000 C 
ENDBRANCH  21  22
ENDBRANCH  14  21
ENDBRANCH   7  14
TORSDOF 5
ENDMDL
MODEL 5
REMARK VINA RESULT:      -8.3      2.618      7.456
REMARK  Name = 
REMARK  5 active torsions:
REMARK  status: ('A' for Active; 'I' for Inactive)
REMARK    1  A    between atoms: C_3  and  C_4
REMARK    2  A    between atoms: N_13  and  C_14
REMARK    3  A    between atoms: C_14  and  C_15
REMARK    4  A    between atoms: C_14  and  C_21
REMARK    5  A    between atoms: C_15  and  N_16
REMARK                            x       y       z     vdW  Elec       q    Type
REMARK                         _______ _______ _______ _____ _____    ______ ____
ROOT
ATOM      1  O   UNL     1       2.575   7.643  20.838  0.00  0.00    +0.000 OA
ATOM      2  C   UNL     1       2.023   7.954  19.791  0.00  0.00    +0.000 A 
ATOM      3  C   UNL     1       1.136   9.167  19.732  0.00  0.00    +0.000 A 
ATOM      4  C   UNL     1       1.215   9.818  18.560  0.00  0.00    +0.000 A 
ATOM      5  N   UNL     1       1.964   9.426  17.484  0.00  0.00    +0.000 NA
ATOM      6  C   UNL     1       2.434   8.224  17.531  0.00  0.00    +0.000 A 
ATOM      7  N   UNL     1       2.260   7.344  18.572  0.00  0.00    +0.000 N 
ENDROOT
BRANCH   3   8
ATOM      8  C   UNL     1       0.334   9.688  20.870  0.00  0.00    +0.000 A 
ATOM      9  C   UNL     1      -0.242  10.972  20.830  0.00  0.00    +0.000 A 
ATOM     10  C   UNL     1      -0.977  11.488  21.900  0.00  0.00    +0.000 A 
ATOM     11  C   UNL     1      -1.156  10.720  23.049  0.00  0.00    +0.000 A 
ATOM     12  C   UNL     1      -0.622   9.442  23.108  0.00  0.00    +0.000 A 
ATOM     13  C   UNL     1       0.116   8.929  22.031  0.00  0.00    +0.000 A 
ENDBRANCH   3   8
BRANCH   7  14
ATOM     14  C   UNL     1       2.853   5.977  18.462  0.00  0.00    +0.000 C 
BRANCH  14  15
ATOM     15  C   UNL     1       2.101   4.891  19.281  0.00  0.00    +0.000 A 
ATOM     16  C   UNL     1       2.309   4.691  20.661  0.00  0.00    +0.000 A 
ATOM     17  C   UNL     1       1.806   3.563  21.311  0.00  0.00    +0.000 A 
ATOM     18  C   UNL     1       1.118   2.587  20.598  0.00  0.00    +0.000 A 
ATOM     19  C   UNL     1       0.864   2.779  19.245  0.00  0.00    +0.000 A 
ATOM     20  C   UNL     1       1.310   3.938  18.603  0.00  0.00    +0.000 A 
ENDBRANCH  14  15
BRANCH  14  21
ATOM     21  C   UNL     1       4.402   5.886  18.787  0.00  0.00    +0.000 C 
BRANCH  21  22
ATOM     22  N   UNL     1       5.330   5.609  17.659  0.00  0.00    +0.000 NA
ATOM     23  C   UNL     1       6.494   4.830  18.124  0.00  0.00    +0.000 C 
ATOM     24  C   UNL     1       7.494   5.865  18.599  0.00  0.00    +0.000 C 
ATOM     25  C   UNL     1       7.308   7.007  17.615  0.00  0.00    +0.000 C 
ATOM     26  C   UNL     1       5.923   6.796  17.027  0.00  0.00    +0.000 C 
ENDBRANCH  21  22
ENDBRANCH  14  21
ENDBRANCH   7  14
TORSDOF 5
ENDMDL
MODEL 6
REMARK VINA RESULT:      -8.2      1.315      3.512
REMARK  Name = 
REMARK  5 active torsions:
REMARK  status: ('A' for Active; 'I' for Inactive)
REMARK    1  A    between atoms: C_3  and  C_4
REMARK    2  A    between atoms: N_13  and  C_14
REMARK    3  A    between atoms: C_14  and  C_15
REMARK    4  A    between atoms: C_14  and  C_21
REMARK    5  A    between atoms: C_15  and  N_16
REMARK                            x       y       z     vdW  Elec       q    Type
REMARK                         _______ _______ _______ _____ _____    ______ ____
ROOT
ATOM      1  O   UNL     1       4.368   5.688  16.080  0.00  0.00    +0.000 OA
ATOM      2  C   UNL     1       5.201   5.015  16.673  0.00  0.00    +0.000 A 
ATOM      3  C   UNL     1       6.524   4.704  16.029  0.00  0.00    +0.000 A 
ATOM      4  C   UNL     1       7.540   4.674  16.908  0.00  0.00    +0.000 A 
ATOM      5  N   UNL     1       7.424   4.845  18.260  0.00  0.00    +0.000 NA
ATOM      6  C   UNL     1       6.224   4.794  18.735  0.00  0.00    +0.000 A 
ATOM      7  N   UNL     1       5.083   4.612  17.991  0.00  0.00    +0.000 N 
ENDROOT
BRANCH   3   8
ATOM      8  C   UNL     1       6.742   4.556  14.567  0.00  0.00    +0.000 A 
ATOM      9  C   UNL     1       6.027   3.604  13.814  0.00  0.00    +0.000 A 
ATOM     10  C   UNL     1       6.237   3.433  12.444  0.00  0.00    +0.000 A 
ATOM     11  C   UNL     1       7.179   4.223  11.786  0.00  0.00    +0.000 A 
ATOM     12  C   UNL     1       7.880   5.186  12.495  0.00  0.00    +0.000 A 
ATOM     13  C   UNL     1       7.666   5.352  13.871  0.00  0.00    +0.000 A 
ENDBRANCH   3   8
BRANCH   7  14
ATOM     14  C   UNL     1       3.768   4.556  18.698  0.00  0.00    +0.000 C 
BRANCH  14  15
ATOM     15  C   UNL     1       3.190   5.950  19.073  0.00  0.00    +0.000 A 
ATOM     16  C   UNL     1       2.498   6.194  20.276  0.00  0.00    +0.000 A 
ATOM     17  C   UNL     1       1.787   7.380  20.473  0.00  0.00    +0.000 A 
ATOM     18  C   UNL     1       1.715   8.333  19.464  0.00  0.00    +0.000 A 
ATOM     19  C   UNL     1       2.422   8.137  18.283  0.00  0.00    +0.000 A 
ATOM     20  C   UNL     1       3.188   6.980  18.107  0.00  0.00    +0.000 A 
ENDBRANCH  14  15
BRANCH  14  21
ATOM     21  C   UNL     1       3.730   3.623  19.978  0.00  0.00    +0.000 C 
BRANCH  21  22
ATOM     22  N   UNL     1       2.825   2.444  19.946  0.00  0.00    +0.000 NA
ATOM     23  C   UNL     1       2.354   2.187  18.571  0.00  0.00    +0.000 C 
ATOM     24  C   UNL     1       1.118   3.050  18.413  0.00  0.00    +0.000 C 
ATOM     25  C   UNL     1       0.469   2.986  19.784  0.00  0.00    +0.000 C 
ATOM     26  C   UNL     1       1.588   2.580  20.728  0.00  0.00    +0.000 C 
ENDBRANCH  21  22
ENDBRANCH  14  21
ENDBRANCH   7  14
TORSDOF 5
ENDMDL
MODEL 7
REMARK VINA RESULT:      -8.1      2.047      7.425
REMARK  Name = 
REMARK  5 active torsions:
REMARK  status: ('A' for Active; 'I' for Inactive)
REMARK    1  A    between atoms: C_3  and  C_4
REMARK    2  A    between atoms: N_13  and  C_14
REMARK    3  A    between atoms: C_14  and  C_15
REMARK    4  A    between atoms: C_14  and  C_21
REMARK    5  A    between atoms: C_15  and  N_16
REMARK                            x       y       z     vdW  Elec       q    Type
REMARK                         _______ _______ _______ _____ _____    ______ ____
ROOT
ATOM      1  O   UNL     1       2.602   7.538  20.703  0.00  0.00    +0.000 OA
ATOM      2  C   UNL     1       2.054   7.924  19.680  0.00  0.00    +0.000 A 
ATOM      3  C   UNL     1       1.198   9.162  19.697  0.00  0.00    +0.000 A 
ATOM      4  C   UNL     1       1.289   9.877  18.564  0.00  0.00    +0.000 A 
ATOM      5  N   UNL     1       2.022   9.529  17.462  0.00  0.00    +0.000 NA
ATOM      6  C   UNL     1       2.460   8.314  17.436  0.00  0.00    +0.000 A 
ATOM      7  N   UNL     1       2.269   7.380  18.426  0.00  0.00    +0.000 N 
ENDROOT
BRANCH   3   8
ATOM      8  C   UNL     1       0.416   9.636  20.868  0.00  0.00    +0.000 A 
ATOM      9  C   UNL     1       0.048  10.989  21.001  0.00  0.00    +0.000 A 
ATOM     10  C   UNL     1      -0.664  11.457  22.107  0.00  0.00    +0.000 A 
ATOM     11  C   UNL     1      -1.032  10.571  23.118  0.00  0.00    +0.000 A 
ATOM     12  C   UNL     1      -0.706   9.228  23.003  0.00  0.00    +0.000 A 
ATOM     13  C   UNL     1       0.011   8.763  21.890  0.00  0.00    +0.000 A 
ENDBRANCH   3   8
BRANCH   7  14
ATOM     14  C   UNL     1       2.825   6.007  18.233  0.00  0.00    +0.000 C 
BRANCH  14  15
ATOM     15  C   UNL     1       1.967   4.879  18.871  0.00  0.00    +0.000 A 
ATOM     16  C   UNL     1       1.816   4.727  20.264  0.00  0.00    +0.000 A 
ATOM     17  C   UNL     1       1.245   3.574  20.807  0.00  0.00    +0.000 A 
ATOM     18  C   UNL     1       0.847   2.529  19.980  0.00  0.00    +0.000 A 
ATOM     19  C   UNL     1       0.947   2.670  18.600  0.00  0.00    +0.000 A 
ATOM     20  C   UNL     1       1.458   3.849  18.050  0.00  0.00    +0.000 A 
ENDBRANCH  14  15
BRANCH  14  21
ATOM     21  C   UNL     1       4.334   5.822  18.682  0.00  0.00    +0.000 C 
BRANCH  21  22
ATOM     22  N   UNL     1       5.395   6.284  17.748  0.00  0.00    +0.000 NA
ATOM     23  C   UNL     1       5.076   5.888  16.362  0.00  0.00    +0.000 C 
ATOM     24  C   UNL     1       5.651   4.494  16.212  0.00  0.00    +0.000 C 
ATOM     25  C   UNL     1       6.929   4.553  17.029  0.00  0.00    +0.000 C 
ATOM     26  C   UNL     1       6.729   5.718  17.984  0.00  0.00    +0.000 C 
ENDBRANCH  21  22
ENDBRANCH  14  21
ENDBRANCH   7  14
TORSDOF 5
ENDMDL
MODEL 8
REMARK VINA RESULT:      -8.1      2.565      7.821
REMARK  Name = 
REMARK  5 active torsions:
REMARK  status: ('A' for Active; 'I' for Inactive)
REMARK    1  A    between atoms: C_3  and  C_4
REMARK    2  A    between atoms: N_13  and  C_14
REMARK    3  A    between atoms: C_14  and  C_15
REMARK    4  A    between atoms: C_14  and  C_21
REMARK    5  A    between atoms: C_15  and  N_16
REMARK                            x       y       z     vdW  Elec       q    Type
REMARK                         _______ _______ _______ _____ _____    ______ ____
ROOT
ATOM      1  O   UNL     1       2.312   7.446  21.015  0.00  0.00    +0.000 OA
ATOM      2  C   UNL     1       1.876   7.798  19.927  0.00  0.00    +0.000 A 
ATOM      3  C   UNL     1       1.147   9.107  19.789  0.00  0.00    +0.000 A 
ATOM      4  C   UNL     1       1.385   9.719  18.618  0.00  0.00    +0.000 A 
ATOM      5  N   UNL     1       2.155   9.218  17.603  0.00  0.00    +0.000 NA
ATOM      6  C   UNL     1       2.472   7.969  17.699  0.00  0.00    +0.000 A 
ATOM      7  N   UNL     1       2.122   7.139  18.736  0.00  0.00    +0.000 N 
ENDROOT
BRANCH   3   8
ATOM      8  C   UNL     1       0.336   9.743  20.860  0.00  0.00    +0.000 A 
ATOM      9  C   UNL     1      -0.358  10.947  20.632  0.00  0.00    +0.000 A 
ATOM     10  C   UNL     1      -1.103  11.573  21.634  0.00  0.00    +0.000 A 
ATOM     11  C   UNL     1      -1.174  11.000  22.903  0.00  0.00    +0.000 A 
ATOM     12  C   UNL     1      -0.522   9.801  23.150  0.00  0.00    +0.000 A 
ATOM     13  C   UNL     1       0.226   9.178  22.141  0.00  0.00    +0.000 A 
ENDBRANCH   3   8
BRANCH   7  14
ATOM     14  C   UNL     1       2.553   5.709  18.686  0.00  0.00    +0.000 C 
BRANCH  14  15
ATOM     15  C   UNL     1       4.033   5.508  18.254  0.00  0.00    +0.000 A 
ATOM     16  C   UNL     1       4.400   4.986  16.998  0.00  0.00    +0.000 A 
ATOM     17  C   UNL     1       5.714   4.593  16.734  0.00  0.00    +0.000 A 
ATOM     18  C   UNL     1       6.685   4.673  17.726  0.00  0.00    +0.000 A 
ATOM     19  C   UNL     1       6.360   5.222  18.961  0.00  0.00    +0.000 A 
ATOM     20  C   UNL     1       5.061   5.676  19.208  0.00  0.00    +0.000 A 
ENDBRANCH  14  15
BRANCH  14  21
ATOM     21  C   UNL     1       1.630   4.757  17.819  0.00  0.00    +0.000 C 
BRANCH  21  22
ATOM     22  N   UNL     1       1.111   3.522  18.464  0.00  0.00    +0.000 NA
ATOM     23  C   UNL     1       1.009   3.704  19.926  0.00  0.00    +0.000 C 
ATOM     24  C   UNL     1       2.375   3.324  20.463  0.00  0.00    +0.000 C 
ATOM     25  C   UNL     1       2.796   2.175  19.565  0.00  0.00    +0.000 C 
ATOM     26  C   UNL     1       1.954   2.329  18.309  0.00  0.00    +0.000 C 
ENDBRANCH  21  22
ENDBRANCH  14  21
ENDBRANCH   7  14
TORSDOF 5
ENDMDL
MODEL 9
REMARK VINA RESULT:      -8.0      1.217      3.965
REMARK  Name = 
REMARK  5 active torsions:
REMARK  status: ('A' for Active; 'I' for Inactive)
REMARK    1  A    between atoms: C_3  and  C_4
REMARK    2  A    between atoms: N_13  and  C_14
REMARK    3  A    between atoms: C_14  and  C_15
REMARK    4  A    between atoms: C_14  and  C_21
REMARK    5  A    between atoms: C_15  and  N_16
REMARK                            x       y       z     vdW  Elec       q    Type
REMARK                         _______ _______ _______ _____ _____    ______ ____
ROOT
ATOM      1  O   UNL     1       4.119   6.315  15.973  0.00  0.00    +0.000 OA
ATOM      2  C   UNL     1       4.781   5.610  16.724  0.00  0.00    +0.000 A 
ATOM      3  C   UNL     1       6.123   5.090  16.289  0.00  0.00    +0.000 A 
ATOM      4  C   UNL     1       7.012   5.028  17.295  0.00  0.00    +0.000 A 
ATOM      5  N   UNL     1       6.754   5.339  18.602  0.00  0.00    +0.000 NA
ATOM      6  C   UNL     1       5.508   5.471  18.915  0.00  0.00    +0.000 A 
ATOM      7  N   UNL     1       4.453   5.351  18.043  0.00  0.00    +0.000 N 
ENDROOT
BRANCH   3   8
ATOM      8  C   UNL     1       6.499   4.780  14.885  0.00  0.00    +0.000 A 
ATOM      9  C   UNL     1       7.554   5.458  14.245  0.00  0.00    +0.000 A 
ATOM     10  C   UNL     1       7.904   5.198  12.918  0.00  0.00    +0.000 A 
ATOM     11  C   UNL     1       7.198   4.240  12.192  0.00  0.00    +0.000 A 
ATOM     12  C   UNL     1       6.171   3.538  12.804  0.00  0.00    +0.000 A 
ATOM     13  C   UNL     1       5.823   3.804  14.136  0.00  0.00    +0.000 A 
ENDBRANCH   3   8
BRANCH   7  14
ATOM     14  C   UNL     1       3.065   5.514  18.571  0.00  0.00    +0.000 C 
BRANCH  14  15
ATOM     15  C   UNL     1       2.659   6.990  18.842  0.00  0.00    +0.000 A 
ATOM     16  C   UNL     1       2.080   7.415  20.055  0.00  0.00    +0.000 A 
ATOM     17  C   UNL     1       1.508   8.683  20.178  0.00  0.00    +0.000 A 
ATOM     18  C   UNL     1       1.464   9.543  19.087  0.00  0.00    +0.000 A 
ATOM     19  C   UNL     1       2.063   9.166  17.890  0.00  0.00    +0.000 A 
ATOM     20  C   UNL     1       2.693   7.923  17.782  0.00  0.00    +0.000 A 
ENDBRANCH  14  15
BRANCH  14  21
ATOM     21  C   UNL     1       2.723   4.643  19.850  0.00  0.00    +0.000 C 
BRANCH  21  22
ATOM     22  N   UNL     1       1.949   3.390  19.646  0.00  0.00    +0.000 NA
ATOM     23  C   UNL     1       2.771   2.211  19.983  0.00  0.00    +0.000 C 
ATOM     24  C   UNL     1       3.515   1.875  18.705  0.00  0.00    +0.000 C 
ATOM     25  C   UNL     1       2.500   2.183  17.619  0.00  0.00    +0.000 C 
ATOM     26  C   UNL     1       1.511   3.139  18.267  0.00  0.00    +0.000 C 
ENDBRANCH  21  22
ENDBRANCH  14  21
ENDBRANCH   7  14
TORSDOF 5
ENDMDL
