MODEL 1
REMARK VINA RESULT:      -5.8      0.000      0.000
REMARK  Name = 
REMARK  1 active torsions:
REMARK  status: ('A' for Active; 'I' for Inactive)
REMARK    1  A    between atoms: C_2  and  C_3
REMARK                            x       y       z     vdW  Elec       q    Type
REMARK                         _______ _______ _______ _____ _____    ______ ____
ROOT
ATOM      1  O   UNL     1       5.356   3.199  19.787  0.00  0.00    +0.000 OA
ATOM      2  C   UNL     1       4.569   3.728  19.002  0.00  0.00    +0.000 C 
ATOM      3  N   UNL     1       5.050   4.554  17.979  0.00  0.00    +0.000 N 
ATOM      4  C   UNL     1       6.496   4.676  17.774  0.00  0.00    +0.000 C 
ATOM      5  C   UNL     1       6.908   6.145  17.619  0.00  0.00    +0.000 C 
ATOM      6  O   UNL     1       6.158   6.782  16.573  0.00  0.00    +0.000 OA
ATOM      7  C   UNL     1       4.759   6.754  16.878  0.00  0.00    +0.000 C 
ATOM      8  C   UNL     1       4.248   5.319  17.014  0.00  0.00    +0.000 C 
ENDROOT
BRANCH   2   9
ATOM      9  C   UNL     1       3.127   3.541  19.130  0.00  0.00    +0.000 A 
ATOM     10  C   UNL     1       2.195   4.216  19.901  0.00  0.00    +0.000 A 
ATOM     11  C   UNL     1       0.891   3.648  19.808  0.00  0.00    +0.000 A 
ATOM     12  C   UNL     1       0.842   2.624  18.890  0.00  0.00    +0.000 A 
ATOM     13  S   UNL     1       2.365   2.337  18.169  0.00  0.00    +0.000 S 
ENDBRANCH   2   9
TORSDOF 1
ENDMDL
MODEL 2
REMARK VINA RESULT:      -5.7      1.169      1.169
REMARK  Name = 
REMARK  1 active torsions:
REMARK  status: ('A' for Active; 'I' for Inactive)
REMARK    1  A    between atoms: C_2  and  C_3
REMARK                            x       y       z     vdW  Elec       q    Type
REMARK                         _______ _______ _______ _____ _____    ______ ____
ROOT
ATOM      1  O   UNL     1       5.563   4.054  19.712  0.00  0.00    +0.000 OA
ATOM      2  C   UNL     1       4.963   3.988  18.638  0.00  0.00    +0.000 C 
ATOM      3  N   UNL     1       5.611   4.346  17.450  0.00  0.00    +0.000 N 
ATOM      4  C   UNL     1       7.040   4.673  17.482  0.00  0.00    +0.000 C 
ATOM      5  C   UNL     1       7.327   5.964  16.707  0.00  0.00    +0.000 C 
ATOM      6  O   UNL     1       6.820   5.882  15.365  0.00  0.00    +0.000 OA
ATOM      7  C   UNL     1       5.401   5.693  15.381  0.00  0.00    +0.000 C 
ATOM      8  C   UNL     1       5.020   4.400  16.107  0.00  0.00    +0.000 C 
ENDROOT
BRANCH   2   9
ATOM      9  C   UNL     1       3.565   3.572  18.574  0.00  0.00    +0.000 A 
ATOM     10  C   UNL     1       2.401   4.322  18.549  0.00  0.00    +0.000 A 
ATOM     11  C   UNL     1       1.227   3.515  18.585  0.00  0.00    +0.000 A 
ATOM     12  C   UNL     1       1.526   2.173  18.530  0.00  0.00    +0.000 A 
ATOM     13  S   UNL     1       3.211   1.895  18.463  0.00  0.00    +0.000 S 
ENDBRANCH   2   9
TORSDOF 1
ENDMDL
MODEL 3
REMARK VINA RESULT:      -5.6      1.013      1.207
REMARK  Name = 
REMARK  1 active torsions:
REMARK  status: ('A' for Active; 'I' for Inactive)
REMARK    1  A    between atoms: C_2  and  C_3
REMARK                            x       y       z     vdW  Elec       q    Type
REMARK                         _______ _______ _______ _____ _____    ______ ____
ROOT
ATOM      1  O   UNL     1       5.349   3.082  19.721  0.00  0.00    +0.000 OA
ATOM      2  C   UNL     1       4.501   3.684  19.063  0.00  0.00    +0.000 C 
ATOM      3  N   UNL     1       4.895   4.543  18.029  0.00  0.00    +0.000 N 
ATOM      4  C   UNL     1       6.311   4.616  17.657  0.00  0.00    +0.000 C 
ATOM      5  C   UNL     1       6.771   6.072  17.524  0.00  0.00    +0.000 C 
ATOM      6  O   UNL     1       5.933   6.794  16.608  0.00  0.00    +0.000 OA
ATOM      7  C   UNL     1       4.581   6.808  17.078  0.00  0.00    +0.000 C 
ATOM      8  C   UNL     1       4.022   5.390  17.207  0.00  0.00    +0.000 C 
ENDROOT
BRANCH   2   9
ATOM      9  C   UNL     1       3.077   3.551  19.356  0.00  0.00    +0.000 A 
ATOM     10  C   UNL     1       2.134   2.662  18.866  0.00  0.00    +0.000 A 
ATOM     11  C   UNL     1       0.819   2.938  19.342  0.00  0.00    +0.000 A 
ATOM     12  C   UNL     1       0.812   3.962  20.261  0.00  0.00    +0.000 A 
ATOM     13  S   UNL     1       2.377   4.597  20.525  0.00  0.00    +0.000 S 
ENDBRANCH   2   9
TORSDOF 1
ENDMDL
MODEL 4
REMARK VINA RESULT:      -5.6      1.826      2.092
REMARK  Name = 
REMARK  1 active torsions:
REMARK  status: ('A' for Active; 'I' for Inactive)
REMARK    1  A    between atoms: C_2  and  C_3
REMARK                            x       y       z     vdW  Elec       q    Type
REMARK                         _______ _______ _______ _____ _____    ______ ____
ROOT
ATOM      1  O   UNL     1       3.997   2.407  17.381  0.00  0.00    +0.000 OA
ATOM      2  C   UNL     1       4.078   3.278  18.248  0.00  0.00    +0.000 C 
ATOM      3  N   UNL     1       5.043   4.287  18.138  0.00  0.00    +0.000 N 
ATOM      4  C   UNL     1       5.860   4.370  16.924  0.00  0.00    +0.000 C 
ATOM      5  C   UNL     1       7.343   4.546  17.270  0.00  0.00    +0.000 C 
ATOM      6  O   UNL     1       7.540   5.677  18.133  0.00  0.00    +0.000 OA
ATOM      7  C   UNL     1       6.827   5.494  19.361  0.00  0.00    +0.000 C 
ATOM      8  C   UNL     1       5.324   5.346  19.115  0.00  0.00    +0.000 C 
ENDROOT
BRANCH   2   9
ATOM      9  C   UNL     1       3.207   3.268  19.419  0.00  0.00    +0.000 A 
ATOM     10  C   UNL     1       3.364   2.662  20.655  0.00  0.00    +0.000 A 
ATOM     11  C   UNL     1       2.222   2.819  21.492  0.00  0.00    +0.000 A 
ATOM     12  C   UNL     1       1.270   3.627  20.914  0.00  0.00    +0.000 A 
ATOM     13  S   UNL     1       1.745   4.168  19.364  0.00  0.00    +0.000 S 
ENDBRANCH   2   9
TORSDOF 1
ENDMDL
MODEL 5
REMARK VINA RESULT:      -5.6      2.402      5.235
REMARK  Name = 
REMARK  1 active torsions:
REMARK  status: ('A' for Active; 'I' for Inactive)
REMARK    1  A    between atoms: C_2  and  C_3
REMARK                            x       y       z     vdW  Elec       q    Type
REMARK                         _______ _______ _______ _____ _____    ______ ____
ROOT
ATOM      1  O   UNL     1       3.204   6.307  17.808  0.00  0.00    +0.000 OA
ATOM      2  C   UNL     1       3.659   5.187  17.575  0.00  0.00    +0.000 C 
ATOM      3  N   UNL     1       2.869   4.051  17.792  0.00  0.00    +0.000 N 
ATOM      4  C   UNL     1       1.463   4.216  18.172  0.00  0.00    +0.000 C 
ATOM      5  C   UNL     1       1.103   3.310  19.355  0.00  0.00    +0.000 C 
ATOM      6  O   UNL     1       1.430   1.941  19.074  0.00  0.00    +0.000 OA
ATOM      7  C   UNL     1       2.836   1.805  18.837  0.00  0.00    +0.000 C 
ATOM      8  C   UNL     1       3.283   2.649  17.642  0.00  0.00    +0.000 C 
ENDROOT
BRANCH   2   9
ATOM      9  C   UNL     1       5.029   5.006  17.104  0.00  0.00    +0.000 A 
ATOM     10  C   UNL     1       5.540   4.947  15.818  0.00  0.00    +0.000 A 
ATOM     11  C   UNL     1       6.936   4.658  15.795  0.00  0.00    +0.000 A 
ATOM     12  C   UNL     1       7.470   4.610  17.062  0.00  0.00    +0.000 A 
ATOM     13  S   UNL     1       6.289   4.885  18.266  0.00  0.00    +0.000 S 
ENDBRANCH   2   9
TORSDOF 1
ENDMDL
MODEL 6
REMARK VINA RESULT:      -5.6      1.806      2.041
REMARK  Name = 
REMARK  1 active torsions:
REMARK  status: ('A' for Active; 'I' for Inactive)
REMARK    1  A    between atoms: C_2  and  C_3
REMARK                            x       y       z     vdW  Elec       q    Type
REMARK                         _______ _______ _______ _____ _____    ______ ____
ROOT
ATOM      1  O   UNL     1       3.884   2.533  17.322  0.00  0.00    +0.000 OA
ATOM      2  C   UNL     1       3.966   3.438  18.152  0.00  0.00    +0.000 C 
ATOM      3  N   UNL     1       4.990   4.389  18.054  0.00  0.00    +0.000 N 
ATOM      4  C   UNL     1       5.876   4.370  16.886  0.00  0.00    +0.000 C 
ATOM      5  C   UNL     1       7.345   4.484  17.309  0.00  0.00    +0.000 C 
ATOM      6  O   UNL     1       7.556   5.643  18.131  0.00  0.00    +0.000 OA
ATOM      7  C   UNL     1       6.768   5.556  19.323  0.00  0.00    +0.000 C 
ATOM      8  C   UNL     1       5.275   5.477  18.998  0.00  0.00    +0.000 C 
ENDROOT
BRANCH   2   9
ATOM      9  C   UNL     1       3.032   3.530  19.271  0.00  0.00    +0.000 A 
ATOM     10  C   UNL     1       1.827   4.203  19.387  0.00  0.00    +0.000 A 
ATOM     11  C   UNL     1       1.272   4.113  20.697  0.00  0.00    +0.000 A 
ATOM     12  C   UNL     1       2.013   3.288  21.511  0.00  0.00    +0.000 A 
ATOM     13  S   UNL     1       3.380   2.652  20.706  0.00  0.00    +0.000 S 
ENDBRANCH   2   9
TORSDOF 1
ENDMDL
MODEL 7
REMARK VINA RESULT:      -5.5      1.445      1.618
REMARK  Name = 
REMARK  1 active torsions:
REMARK  status: ('A' for Active; 'I' for Inactive)
REMARK    1  A    between atoms: C_2  and  C_3
REMARK                            x       y       z     vdW  Elec       q    Type
REMARK                         _______ _______ _______ _____ _____    ______ ____
ROOT
ATOM      1  O   UNL     1       5.608   4.168  19.712  0.00  0.00    +0.000 OA
ATOM      2  C   UNL     1       5.042   3.971  18.637  0.00  0.00    +0.000 C 
ATOM      3  N   UNL     1       5.687   4.291  17.436  0.00  0.00    +0.000 N 
ATOM      4  C   UNL     1       7.084   4.736  17.468  0.00  0.00    +0.000 C 
ATOM      5  C   UNL     1       7.284   5.983  16.600  0.00  0.00    +0.000 C 
ATOM      6  O   UNL     1       6.818   5.758  15.260  0.00  0.00    +0.000 OA
ATOM      7  C   UNL     1       5.419   5.454  15.266  0.00  0.00    +0.000 C 
ATOM      8  C   UNL     1       5.127   4.193  16.082  0.00  0.00    +0.000 C 
ENDROOT
BRANCH   2   9
ATOM      9  C   UNL     1       3.684   3.437  18.580  0.00  0.00    +0.000 A 
ATOM     10  C   UNL     1       3.231   2.132  18.497  0.00  0.00    +0.000 A 
ATOM     11  C   UNL     1       1.814   2.049  18.364  0.00  0.00    +0.000 A 
ATOM     12  C   UNL     1       1.219   3.286  18.455  0.00  0.00    +0.000 A 
ATOM     13  S   UNL     1       2.365   4.535  18.673  0.00  0.00    +0.000 S 
ENDBRANCH   2   9
TORSDOF 1
ENDMDL
MODEL 8
REMARK VINA RESULT:      -5.5      2.324      4.862
REMARK  Name = 
REMARK  1 active torsions:
REMARK  status: ('A' for Active; 'I' for Inactive)
REMARK    1  A    between atoms: C_2  and  C_3
REMARK                            x       y       z     vdW  Elec       q    Type
REMARK                         _______ _______ _______ _____ _____    ______ ____
ROOT
ATOM      1  O   UNL     1       5.488   3.724  19.488  0.00  0.00    +0.000 OA
ATOM      2  C   UNL     1       4.593   4.070  18.716  0.00  0.00    +0.000 C 
ATOM      3  N   UNL     1       3.252   3.967  19.107  0.00  0.00    +0.000 N 
ATOM      4  C   UNL     1       2.934   3.571  20.481  0.00  0.00    +0.000 C 
ATOM      5  C   UNL     1       1.852   2.485  20.504  0.00  0.00    +0.000 C 
ATOM      6  O   UNL     1       0.686   2.904  19.777  0.00  0.00    +0.000 OA
ATOM      7  C   UNL     1       1.019   3.155  18.408  0.00  0.00    +0.000 C 
ATOM      8  C   UNL     1       2.071   4.260  18.284  0.00  0.00    +0.000 C 
ENDROOT
BRANCH   2   9
ATOM      9  C   UNL     1       4.895   4.559  17.374  0.00  0.00    +0.000 A 
ATOM     10  C   UNL     1       5.163   3.871  16.202  0.00  0.00    +0.000 A 
ATOM     11  C   UNL     1       5.508   4.737  15.124  0.00  0.00    +0.000 A 
ATOM     12  C   UNL     1       5.390   6.062  15.474  0.00  0.00    +0.000 A 
ATOM     13  S   UNL     1       4.894   6.255  17.097  0.00  0.00    +0.000 S 
ENDBRANCH   2   9
TORSDOF 1
ENDMDL
MODEL 9
REMARK VINA RESULT:      -5.5      2.045      2.571
REMARK  Name = 
REMARK  1 active torsions:
REMARK  status: ('A' for Active; 'I' for Inactive)
REMARK    1  A    between atoms: C_2  and  C_3
REMARK                            x       y       z     vdW  Elec       q    Type
REMARK                         _______ _______ _______ _____ _____    ______ ____
ROOT
ATOM      1  O   UNL     1       2.260   6.901  18.125  0.00  0.00    +0.000 OA
ATOM      2  C   UNL     1       2.788   5.797  18.259  0.00  0.00    +0.000 C 
ATOM      3  N   UNL     1       4.040   5.545  17.686  0.00  0.00    +0.000 N 
ATOM      4  C   UNL     1       4.768   6.642  17.041  0.00  0.00    +0.000 C 
ATOM      5  C   UNL     1       5.309   6.213  15.672  0.00  0.00    +0.000 C 
ATOM      6  O   UNL     1       6.108   5.025  15.783  0.00  0.00    +0.000 OA
ATOM      7  C   UNL     1       5.321   3.944  16.296  0.00  0.00    +0.000 C 
ATOM      8  C   UNL     1       4.767   4.269  17.684  0.00  0.00    +0.000 C 
ENDROOT
BRANCH   2   9
ATOM      9  C   UNL     1       2.119   4.719  18.982  0.00  0.00    +0.000 A 
ATOM     10  C   UNL     1       1.351   3.664  18.519  0.00  0.00    +0.000 A 
ATOM     11  C   UNL     1       0.796   2.884  19.575  0.00  0.00    +0.000 A 
ATOM     12  C   UNL     1       1.242   3.301  20.808  0.00  0.00    +0.000 A 
ATOM     13  S   UNL     1       2.298   4.639  20.688  0.00  0.00    +0.000 S 
ENDBRANCH   2   9
TORSDOF 1
ENDMDL
