MODEL 1
REMARK VINA RESULT:      -8.0      0.000      0.000
REMARK  Name = 
REMARK  6 active torsions:
REMARK  status: ('A' for Active; 'I' for Inactive)
REMARK    1  A    between atoms: C_1  and  O_2
REMARK    2  A    between atoms: O_2  and  C_3
REMARK    3  A    between atoms: C_8  and  C_9
REMARK    4  A    between atoms: C_13  and  N_14
REMARK    5  A    between atoms: N_14  and  C_15
REMARK    6  A    between atoms: C_23  and  C_24
REMARK                            x       y       z     vdW  Elec       q    Type
REMARK                         _______ _______ _______ _____ _____    ______ ____
ROOT
ATOM      1  C   UNL     1       3.323   7.229  17.878  0.00  0.00    +0.000 A 
ATOM      2  C   UNL     1       4.584   7.571  17.343  0.00  0.00    +0.000 A 
ATOM      3  N   UNL     1       5.280   6.529  16.883  0.00  0.00    +0.000 NA
ATOM      4  N   UNL     1       4.473   5.459  17.126  0.00  0.00    +0.000 N 
ATOM      5  C   UNL     1       4.758   4.095  16.862  0.00  0.00    +0.000 A 
ATOM      6  C   UNL     1       3.825   3.177  17.177  0.00  0.00    +0.000 A 
ATOM      7  C   UNL     1       2.575   3.673  17.813  0.00  0.00    +0.000 A 
ATOM      8  C   UNL     1       1.545   2.647  18.209  0.00  0.00    +0.000 C 
ATOM      9  N   UNL     1       2.312   4.922  18.060  0.00  0.00    +0.000 NA
ATOM     10  C   UNL     1       3.271   5.847  17.725  0.00  0.00    +0.000 A 
ENDROOT
BRANCH   1  16
ATOM     11  C   UNL     1       1.853   7.960  19.809  0.00  0.00    +0.000 A 
ATOM     12  C   UNL     1       0.913   8.873  20.324  0.00  0.00    +0.000 A 
ATOM     13  C   UNL     1       0.313   9.827  19.504  0.00  0.00    +0.000 A 
ATOM     14  C   UNL     1       0.639   9.876  18.158  0.00  0.00    +0.000 A 
ATOM     15  C   UNL     1       1.596   8.999  17.646  0.00  0.00    +0.000 A 
ATOM     16  C   UNL     1       2.256   8.055  18.458  0.00  0.00    +0.000 A 
BRANCH  11  18
ATOM     17  C   UNL     1       1.568   5.927  20.983  0.00  0.00    +0.000 C 
ATOM     18  O   UNL     1       2.432   7.004  20.611  0.00  0.00    +0.000 OA
ENDBRANCH  11  18
ENDBRANCH   1  16
BRANCH   5  19
ATOM     19  N   UNL     1       5.977   3.790  16.253  0.00  0.00    +0.000 N 
ATOM     20  H   UNL     1       6.323   2.876  16.562  0.00  0.00    +0.000 HD
BRANCH  19  21
ATOM     21  C   UNL     1       6.293   4.016  14.891  0.00  0.00    +0.000 A 
ATOM     22  C   UNL     1       7.355   4.832  14.471  0.00  0.00    +0.000 A 
ATOM     23  C   UNL     1       7.651   4.998  13.115  0.00  0.00    +0.000 A 
ATOM     24  C   UNL     1       6.888   4.343  12.153  0.00  0.00    +0.000 A 
ATOM     25  C   UNL     1       5.831   3.532  12.553  0.00  0.00    +0.000 A 
ATOM     26 CL   UNL     1       4.890   2.716  11.363  0.00  0.00    +0.000 Cl
ATOM     27  C   UNL     1       5.531   3.366  13.909  0.00  0.00    +0.000 A 
ENDBRANCH  19  21
ENDBRANCH   5  19
TORSDOF 4
ENDMDL
MODEL 2
REMARK VINA RESULT:      -7.9      2.008      3.274
REMARK  Name = 
REMARK  6 active torsions:
REMARK  status: ('A' for Active; 'I' for Inactive)
REMARK    1  A    between atoms: C_1  and  O_2
REMARK    2  A    between atoms: O_2  and  C_3
REMARK    3  A    between atoms: C_8  and  C_9
REMARK    4  A    between atoms: C_13  and  N_14
REMARK    5  A    between atoms: N_14  and  C_15
REMARK    6  A    between atoms: C_23  and  C_24
REMARK                            x       y       z     vdW  Elec       q    Type
REMARK                         _______ _______ _______ _____ _____    ______ ____
ROOT
ATOM      1  C   UNL     1       1.836   7.801  19.519  0.00  0.00    +0.000 A 
ATOM      2  C   UNL     1       2.430   8.059  18.264  0.00  0.00    +0.000 A 
ATOM      3  N   UNL     1       2.901   6.970  17.653  0.00  0.00    +0.000 NA
ATOM      4  N   UNL     1       2.629   5.958  18.523  0.00  0.00    +0.000 N 
ATOM      5  C   UNL     1       2.962   4.588  18.373  0.00  0.00    +0.000 A 
ATOM      6  C   UNL     1       2.604   3.734  19.351  0.00  0.00    +0.000 A 
ATOM      7  C   UNL     1       1.914   4.313  20.534  0.00  0.00    +0.000 A 
ATOM      8  C   UNL     1       1.551   3.371  21.654  0.00  0.00    +0.000 C 
ATOM      9  N   UNL     1       1.612   5.569  20.678  0.00  0.00    +0.000 NA
ATOM     10  C   UNL     1       1.975   6.425  19.667  0.00  0.00    +0.000 A 
ENDROOT
BRANCH   1  16
ATOM     11  C   UNL     1       0.256   9.689  20.123  0.00  0.00    +0.000 A 
ATOM     12  C   UNL     1      -0.417  10.419  21.121  0.00  0.00    +0.000 A 
ATOM     13  C   UNL     1      -0.125  10.230  22.471  0.00  0.00    +0.000 A 
ATOM     14  C   UNL     1       0.847   9.315  22.840  0.00  0.00    +0.000 A 
ATOM     15  C   UNL     1       1.494   8.561  21.859  0.00  0.00    +0.000 A 
ATOM     16  C   UNL     1       1.189   8.694  20.490  0.00  0.00    +0.000 A 
BRANCH  11  18
ATOM     17  C   UNL     1      -1.236  10.580  18.519  0.00  0.00    +0.000 C 
ATOM     18  O   UNL     1      -0.015   9.888  18.788  0.00  0.00    +0.000 OA
ENDBRANCH  11  18
ENDBRANCH   1  16
BRANCH   5  19
ATOM     19  N   UNL     1       3.607   4.199  17.197  0.00  0.00    +0.000 N 
ATOM     20  H   UNL     1       3.018   4.382  16.377  0.00  0.00    +0.000 HD
BRANCH  19  21
ATOM     21  C   UNL     1       4.973   4.424  16.898  0.00  0.00    +0.000 A 
ATOM     22  C   UNL     1       5.968   4.535  17.880  0.00  0.00    +0.000 A 
ATOM     23  C   UNL     1       7.310   4.723  17.537  0.00  0.00    +0.000 A 
ATOM     24  C   UNL     1       7.680   4.797  16.197  0.00  0.00    +0.000 A 
ATOM     25  C   UNL     1       6.704   4.690  15.211  0.00  0.00    +0.000 A 
ATOM     26 CL   UNL     1       7.162   4.776  13.553  0.00  0.00    +0.000 Cl
ATOM     27  C   UNL     1       5.361   4.505  15.552  0.00  0.00    +0.000 A 
ENDBRANCH  19  21
ENDBRANCH   5  19
TORSDOF 4
ENDMDL
MODEL 3
REMARK VINA RESULT:      -7.8      2.619      3.813
REMARK  Name = 
REMARK  6 active torsions:
REMARK  status: ('A' for Active; 'I' for Inactive)
REMARK    1  A    between atoms: C_1  and  O_2
REMARK    2  A    between atoms: O_2  and  C_3
REMARK    3  A    between atoms: C_8  and  C_9
REMARK    4  A    between atoms: C_13  and  N_14
REMARK    5  A    between atoms: N_14  and  C_15
REMARK    6  A    between atoms: C_23  and  C_24
REMARK                            x       y       z     vdW  Elec       q    Type
REMARK                         _______ _______ _______ _____ _____    ______ ____
ROOT
ATOM      1  C   UNL     1       1.751   7.898  19.612  0.00  0.00    +0.000 A 
ATOM      2  C   UNL     1       2.371   8.198  18.380  0.00  0.00    +0.000 A 
ATOM      3  N   UNL     1       2.847   7.130  17.736  0.00  0.00    +0.000 NA
ATOM      4  N   UNL     1       2.551   6.088  18.563  0.00  0.00    +0.000 N 
ATOM      5  C   UNL     1       2.878   4.722  18.367  0.00  0.00    +0.000 A 
ATOM      6  C   UNL     1       2.495   3.835  19.306  0.00  0.00    +0.000 A 
ATOM      7  C   UNL     1       1.786   4.373  20.496  0.00  0.00    +0.000 A 
ATOM      8  C   UNL     1       1.395   3.393  21.572  0.00  0.00    +0.000 C 
ATOM      9  N   UNL     1       1.489   5.626  20.681  0.00  0.00    +0.000 NA
ATOM     10  C   UNL     1       1.878   6.517  19.711  0.00  0.00    +0.000 A 
ENDROOT
BRANCH   1  16
ATOM     11  C   UNL     1       0.114   9.720  20.264  0.00  0.00    +0.000 A 
ATOM     12  C   UNL     1      -0.565  10.417  21.281  0.00  0.00    +0.000 A 
ATOM     13  C   UNL     1      -0.239  10.229  22.623  0.00  0.00    +0.000 A 
ATOM     14  C   UNL     1       0.775   9.348  22.965  0.00  0.00    +0.000 A 
ATOM     15  C   UNL     1       1.429   8.627  21.965  0.00  0.00    +0.000 A 
ATOM     16  C   UNL     1       1.091   8.758  20.604  0.00  0.00    +0.000 A 
BRANCH  11  18
ATOM     17  C   UNL     1      -0.738  11.204  18.631  0.00  0.00    +0.000 C 
ATOM     18  O   UNL     1      -0.191   9.920  18.937  0.00  0.00    +0.000 OA
ENDBRANCH  11  18
ENDBRANCH   1  16
BRANCH   5  19
ATOM     19  N   UNL     1       3.543   4.373  17.190  0.00  0.00    +0.000 N 
ATOM     20  H   UNL     1       3.018   4.684  16.366  0.00  0.00    +0.000 HD
BRANCH  19  21
ATOM     21  C   UNL     1       4.938   4.485  16.972  0.00  0.00    +0.000 A 
ATOM     22  C   UNL     1       5.546   4.240  15.732  0.00  0.00    +0.000 A 
ATOM     23  C   UNL     1       6.924   4.397  15.555  0.00  0.00    +0.000 A 
ATOM     24  C   UNL     1       7.718   4.810  16.621  0.00  0.00    +0.000 A 
ATOM     25  C   UNL     1       7.130   5.055  17.857  0.00  0.00    +0.000 A 
ATOM     26 CL   UNL     1       8.111   5.571  19.175  0.00  0.00    +0.000 Cl
ATOM     27  C   UNL     1       5.753   4.896  18.038  0.00  0.00    +0.000 A 
ENDBRANCH  19  21
ENDBRANCH   5  19
TORSDOF 4
ENDMDL
MODEL 4
REMARK VINA RESULT:      -7.7      1.065      1.422
REMARK  Name = 
REMARK  6 active torsions:
REMARK  status: ('A' for Active; 'I' for Inactive)
REMARK    1  A    between atoms: C_1  and  O_2
REMARK    2  A    between atoms: O_2  and  C_3
REMARK    3  A    between atoms: C_8  and  C_9
REMARK    4  A    between atoms: C_13  and  N_14
REMARK    5  A    between atoms: N_14  and  C_15
REMARK    6  A    between atoms: C_23  and  C_24
REMARK                            x       y       z     vdW  Elec       q    Type
REMARK                         _______ _______ _______ _____ _____    ______ ____
ROOT
ATOM      1  C   UNL     1       3.415   7.090  17.850  0.00  0.00    +0.000 A 
ATOM      2  C   UNL     1       4.675   7.415  17.300  0.00  0.00    +0.000 A 
ATOM      3  N   UNL     1       5.344   6.366  16.817  0.00  0.00    +0.000 NA
ATOM      4  N   UNL     1       4.521   5.308  17.062  0.00  0.00    +0.000 N 
ATOM      5  C   UNL     1       4.776   3.942  16.780  0.00  0.00    +0.000 A 
ATOM      6  C   UNL     1       3.831   3.038  17.099  0.00  0.00    +0.000 A 
ATOM      7  C   UNL     1       2.601   3.550  17.758  0.00  0.00    +0.000 A 
ATOM      8  C   UNL     1       1.557   2.538  18.160  0.00  0.00    +0.000 C 
ATOM      9  N   UNL     1       2.365   4.801  18.023  0.00  0.00    +0.000 NA
ATOM     10  C   UNL     1       3.335   5.712  17.683  0.00  0.00    +0.000 A 
ENDROOT
BRANCH   1  16
ATOM     11  C   UNL     1       1.950   7.792  19.796  0.00  0.00    +0.000 A 
ATOM     12  C   UNL     1       1.039   8.716  20.341  0.00  0.00    +0.000 A 
ATOM     13  C   UNL     1       0.484   9.726  19.557  0.00  0.00    +0.000 A 
ATOM     14  C   UNL     1       0.827   9.822  18.219  0.00  0.00    +0.000 A 
ATOM     15  C   UNL     1       1.758   8.932  17.679  0.00  0.00    +0.000 A 
ATOM     16  C   UNL     1       2.372   7.930  18.455  0.00  0.00    +0.000 A 
BRANCH  11  18
ATOM     17  C   UNL     1       1.549   5.781  20.975  0.00  0.00    +0.000 C 
ATOM     18  O   UNL     1       2.484   6.780  20.561  0.00  0.00    +0.000 OA
ENDBRANCH  11  18
ENDBRANCH   1  16
BRANCH   5  19
ATOM     19  N   UNL     1       5.980   3.621  16.149  0.00  0.00    +0.000 N 
ATOM     20  H   UNL     1       6.328   2.709  16.463  0.00  0.00    +0.000 HD
BRANCH  19  21
ATOM     21  C   UNL     1       6.268   3.826  14.777  0.00  0.00    +0.000 A 
ATOM     22  C   UNL     1       5.554   3.206  13.740  0.00  0.00    +0.000 A 
ATOM     23  C   UNL     1       5.851   3.465  12.399  0.00  0.00    +0.000 A 
ATOM     24  C   UNL     1       6.867   4.358  12.073  0.00  0.00    +0.000 A 
ATOM     25  C   UNL     1       7.584   4.979  13.090  0.00  0.00    +0.000 A 
ATOM     26 CL   UNL     1       8.839   6.089  12.687  0.00  0.00    +0.000 Cl
ATOM     27  C   UNL     1       7.292   4.720  14.432  0.00  0.00    +0.000 A 
ENDBRANCH  19  21
ENDBRANCH   5  19
TORSDOF 4
ENDMDL
MODEL 5
REMARK VINA RESULT:      -7.7      4.574      8.130
REMARK  Name = 
REMARK  6 active torsions:
REMARK  status: ('A' for Active; 'I' for Inactive)
REMARK    1  A    between atoms: C_1  and  O_2
REMARK    2  A    between atoms: O_2  and  C_3
REMARK    3  A    between atoms: C_8  and  C_9
REMARK    4  A    between atoms: C_13  and  N_14
REMARK    5  A    between atoms: N_14  and  C_15
REMARK    6  A    between atoms: C_23  and  C_24
REMARK                            x       y       z     vdW  Elec       q    Type
REMARK                         _______ _______ _______ _____ _____    ______ ____
ROOT
ATOM      1  C   UNL     1       2.217   7.102  19.014  0.00  0.00    +0.000 A 
ATOM      2  C   UNL     1       2.441   7.661  17.736  0.00  0.00    +0.000 A 
ATOM      3  N   UNL     1       2.084   8.943  17.633  0.00  0.00    +0.000 NA
ATOM      4  N   UNL     1       1.595   9.249  18.867  0.00  0.00    +0.000 N 
ATOM      5  C   UNL     1       1.041  10.486  19.285  0.00  0.00    +0.000 A 
ATOM      6  C   UNL     1       0.608  10.594  20.556  0.00  0.00    +0.000 A 
ATOM      7  C   UNL     1       0.718   9.383  21.412  0.00  0.00    +0.000 A 
ATOM      8  C   UNL     1       0.194   9.482  22.822  0.00  0.00    +0.000 C 
ATOM      9  N   UNL     1       1.221   8.246  21.031  0.00  0.00    +0.000 NA
ATOM     10  C   UNL     1       1.666   8.155  19.735  0.00  0.00    +0.000 A 
ENDROOT
BRANCH   1  16
ATOM     11  C   UNL     1       3.715   5.091  19.380  0.00  0.00    +0.000 A 
ATOM     12  C   UNL     1       3.938   3.862  20.029  0.00  0.00    +0.000 A 
ATOM     13  C   UNL     1       2.934   3.252  20.779  0.00  0.00    +0.000 A 
ATOM     14  C   UNL     1       1.693   3.857  20.883  0.00  0.00    +0.000 A 
ATOM     15  C   UNL     1       1.474   5.094  20.272  0.00  0.00    +0.000 A 
ATOM     16  C   UNL     1       2.482   5.759  19.548  0.00  0.00    +0.000 A 
BRANCH  11  18
ATOM     17  C   UNL     1       6.035   5.398  19.037  0.00  0.00    +0.000 C 
ATOM     18  O   UNL     1       4.698   5.686  18.622  0.00  0.00    +0.000 OA
ENDBRANCH  11  18
ENDBRANCH   1  16
BRANCH   5  19
ATOM     19  N   UNL     1       1.014  11.533  18.361  0.00  0.00    +0.000 N 
ATOM     20  H   UNL     1       0.101  11.591  17.898  0.00  0.00    +0.000 HD
BRANCH  19  21
ATOM     21  C   UNL     1       1.558  12.824  18.569  0.00  0.00    +0.000 A 
ATOM     22  C   UNL     1       0.844  13.873  19.168  0.00  0.00    +0.000 A 
ATOM     23  C   UNL     1       1.434  15.122  19.385  0.00  0.00    +0.000 A 
ATOM     24  C   UNL     1       2.756  15.340  19.009  0.00  0.00    +0.000 A 
ATOM     25  C   UNL     1       3.476  14.310  18.413  0.00  0.00    +0.000 A 
ATOM     26 CL   UNL     1       5.114  14.577  17.952  0.00  0.00    +0.000 Cl
ATOM     27  C   UNL     1       2.889  13.061  18.192  0.00  0.00    +0.000 A 
ENDBRANCH  19  21
ENDBRANCH   5  19
TORSDOF 4
ENDMDL
MODEL 6
REMARK VINA RESULT:      -7.6      2.503      3.961
REMARK  Name = 
REMARK  6 active torsions:
REMARK  status: ('A' for Active; 'I' for Inactive)
REMARK    1  A    between atoms: C_1  and  O_2
REMARK    2  A    between atoms: O_2  and  C_3
REMARK    3  A    between atoms: C_8  and  C_9
REMARK    4  A    between atoms: C_13  and  N_14
REMARK    5  A    between atoms: N_14  and  C_15
REMARK    6  A    between atoms: C_23  and  C_24
REMARK                            x       y       z     vdW  Elec       q    Type
REMARK                         _______ _______ _______ _____ _____    ______ ____
ROOT
ATOM      1  C   UNL     1       1.243   9.473  19.783  0.00  0.00    +0.000 A 
ATOM      2  C   UNL     1       1.696  10.102  18.602  0.00  0.00    +0.000 A 
ATOM      3  N   UNL     1       2.400   9.303  17.797  0.00  0.00    +0.000 NA
ATOM      4  N   UNL     1       2.432   8.113  18.458  0.00  0.00    +0.000 N 
ATOM      5  C   UNL     1       3.094   6.926  18.051  0.00  0.00    +0.000 A 
ATOM      6  C   UNL     1       3.009   5.844  18.847  0.00  0.00    +0.000 A 
ATOM      7  C   UNL     1       2.249   5.996  20.116  0.00  0.00    +0.000 A 
ATOM      8  C   UNL     1       2.187   4.803  21.035  0.00  0.00    +0.000 C 
ATOM      9  N   UNL     1       1.645   7.084  20.495  0.00  0.00    +0.000 NA
ATOM     10  C   UNL     1       1.734   8.176  19.667  0.00  0.00    +0.000 A 
ENDROOT
BRANCH   1  16
ATOM     11  C   UNL     1      -0.453  11.065  20.788  0.00  0.00    +0.000 A 
ATOM     12  C   UNL     1      -1.287  11.405  21.870  0.00  0.00    +0.000 A 
ATOM     13  C   UNL     1      -1.199  10.730  23.086  0.00  0.00    +0.000 A 
ATOM     14  C   UNL     1      -0.272   9.712  23.239  0.00  0.00    +0.000 A 
ATOM     15  C   UNL     1       0.534   9.343  22.160  0.00  0.00    +0.000 A 
ATOM     16  C   UNL     1       0.436   9.973  20.904  0.00  0.00    +0.000 A 
BRANCH  11  18
ATOM     17  C   UNL     1      -1.800  11.704  18.952  0.00  0.00    +0.000 C 
ATOM     18  O   UNL     1      -0.523  11.743  19.593  0.00  0.00    +0.000 OA
ENDBRANCH  11  18
ENDBRANCH   1  16
BRANCH   5  19
ATOM     19  N   UNL     1       3.763   6.941  16.825  0.00  0.00    +0.000 N 
ATOM     20  H   UNL     1       3.760   7.882  16.417  0.00  0.00    +0.000 HD
BRANCH  19  21
ATOM     21  C   UNL     1       4.980   6.272  16.547  0.00  0.00    +0.000 A 
ATOM     22  C   UNL     1       6.110   6.353  17.375  0.00  0.00    +0.000 A 
ATOM     23  C   UNL     1       7.279   5.647  17.079  0.00  0.00    +0.000 A 
ATOM     24  C   UNL     1       7.336   4.842  15.946  0.00  0.00    +0.000 A 
ATOM     25  C   UNL     1       6.225   4.753  15.114  0.00  0.00    +0.000 A 
ATOM     26 CL   UNL     1       6.291   3.751  13.714  0.00  0.00    +0.000 Cl
ATOM     27  C   UNL     1       5.054   5.459  15.406  0.00  0.00    +0.000 A 
ENDBRANCH  19  21
ENDBRANCH   5  19
TORSDOF 4
ENDMDL
MODEL 7
REMARK VINA RESULT:      -7.6      4.910      8.304
REMARK  Name = 
REMARK  6 active torsions:
REMARK  status: ('A' for Active; 'I' for Inactive)
REMARK    1  A    between atoms: C_1  and  O_2
REMARK    2  A    between atoms: O_2  and  C_3
REMARK    3  A    between atoms: C_8  and  C_9
REMARK    4  A    between atoms: C_13  and  N_14
REMARK    5  A    between atoms: N_14  and  C_15
REMARK    6  A    between atoms: C_23  and  C_24
REMARK                            x       y       z     vdW  Elec       q    Type
REMARK                         _______ _______ _______ _____ _____    ______ ____
ROOT
ATOM      1  C   UNL     1       2.247   6.865  19.035  0.00  0.00    +0.000 A 
ATOM      2  C   UNL     1       2.513   7.379  17.747  0.00  0.00    +0.000 A 
ATOM      3  N   UNL     1       2.214   8.672  17.605  0.00  0.00    +0.000 NA
ATOM      4  N   UNL     1       1.722   9.032  18.823  0.00  0.00    +0.000 N 
ATOM      5  C   UNL     1       1.217  10.303  19.200  0.00  0.00    +0.000 A 
ATOM      6  C   UNL     1       0.772  10.463  20.461  0.00  0.00    +0.000 A 
ATOM      7  C   UNL     1       0.816   9.273  21.350  0.00  0.00    +0.000 A 
ATOM      8  C   UNL     1       0.278   9.432  22.749  0.00  0.00    +0.000 C 
ATOM      9  N   UNL     1       1.275   8.105  21.007  0.00  0.00    +0.000 NA
ATOM     10  C   UNL     1       1.733   7.960  19.720  0.00  0.00    +0.000 A 
ENDROOT
BRANCH   1  16
ATOM     11  C   UNL     1       3.632   4.780  19.433  0.00  0.00    +0.000 A 
ATOM     12  C   UNL     1       3.798   3.561  20.119  0.00  0.00    +0.000 A 
ATOM     13  C   UNL     1       2.779   3.038  20.912  0.00  0.00    +0.000 A 
ATOM     14  C   UNL     1       1.579   3.720  21.025  0.00  0.00    +0.000 A 
ATOM     15  C   UNL     1       1.418   4.947  20.378  0.00  0.00    +0.000 A 
ATOM     16  C   UNL     1       2.445   5.527  19.608  0.00  0.00    +0.000 A 
BRANCH  11  18
ATOM     17  C   UNL     1       5.935   5.269  19.211  0.00  0.00    +0.000 C 
ATOM     18  O   UNL     1       4.628   5.290  18.633  0.00  0.00    +0.000 OA
ENDBRANCH  11  18
ENDBRANCH   1  16
BRANCH   5  19
ATOM     19  N   UNL     1       1.249  11.325  18.249  0.00  0.00    +0.000 N 
ATOM     20  H   UNL     1       0.464  11.242  17.594  0.00  0.00    +0.000 HD
BRANCH  19  21
ATOM     21  C   UNL     1       1.541  12.685  18.516  0.00  0.00    +0.000 A 
ATOM     22  C   UNL     1       2.848  13.190  18.598  0.00  0.00    +0.000 A 
ATOM     23  C   UNL     1       3.089  14.547  18.829  0.00  0.00    +0.000 A 
ATOM     24  C   UNL     1       2.020  15.426  18.978  0.00  0.00    +0.000 A 
ATOM     25  C   UNL     1       0.719  14.941  18.900  0.00  0.00    +0.000 A 
ATOM     26 CL   UNL     1      -0.604  16.029  19.077  0.00  0.00    +0.000 Cl
ATOM     27  C   UNL     1       0.475  13.583  18.672  0.00  0.00    +0.000 A 
ENDBRANCH  19  21
ENDBRANCH   5  19
TORSDOF 4
ENDMDL
MODEL 8
REMARK VINA RESULT:      -7.6      2.731      4.080
REMARK  Name = 
REMARK  6 active torsions:
REMARK  status: ('A' for Active; 'I' for Inactive)
REMARK    1  A    between atoms: C_1  and  O_2
REMARK    2  A    between atoms: O_2  and  C_3
REMARK    3  A    between atoms: C_8  and  C_9
REMARK    4  A    between atoms: C_13  and  N_14
REMARK    5  A    between atoms: N_14  and  C_15
REMARK    6  A    between atoms: C_23  and  C_24
REMARK                            x       y       z     vdW  Elec       q    Type
REMARK                         _______ _______ _______ _____ _____    ______ ____
ROOT
ATOM      1  C   UNL     1       1.425   8.485  19.841  0.00  0.00    +0.000 A 
ATOM      2  C   UNL     1       1.880   8.918  18.576  0.00  0.00    +0.000 A 
ATOM      3  N   UNL     1       2.450   7.957  17.845  0.00  0.00    +0.000 NA
ATOM      4  N   UNL     1       2.388   6.855  18.642  0.00  0.00    +0.000 N 
ATOM      5  C   UNL     1       2.895   5.562  18.356  0.00  0.00    +0.000 A 
ATOM      6  C   UNL     1       2.736   4.595  19.279  0.00  0.00    +0.000 A 
ATOM      7  C   UNL     1       2.065   4.978  20.550  0.00  0.00    +0.000 A 
ATOM      8  C   UNL     1       1.923   3.913  21.607  0.00  0.00    +0.000 C 
ATOM      9  N   UNL     1       1.603   6.164  20.818  0.00  0.00    +0.000 NA
ATOM     10  C   UNL     1       1.766   7.136  19.862  0.00  0.00    +0.000 A 
ENDROOT
BRANCH   1  16
ATOM     11  C   UNL     1      -0.271  10.162  20.696  0.00  0.00    +0.000 A 
ATOM     12  C   UNL     1      -0.973  10.711  21.786  0.00  0.00    +0.000 A 
ATOM     13  C   UNL     1      -0.641  10.377  23.097  0.00  0.00    +0.000 A 
ATOM     14  C   UNL     1       0.401   9.497  23.337  0.00  0.00    +0.000 A 
ATOM     15  C   UNL     1       1.080   8.920  22.262  0.00  0.00    +0.000 A 
ATOM     16  C   UNL     1       0.737   9.199  20.924  0.00  0.00    +0.000 A 
BRANCH  11  18
ATOM     17  C   UNL     1      -1.581  11.521  19.270  0.00  0.00    +0.000 C 
ATOM     18  O   UNL     1      -0.583  10.506  19.400  0.00  0.00    +0.000 OA
ENDBRANCH  11  18
ENDBRANCH   1  16
BRANCH   5  19
ATOM     19  N   UNL     1       3.496   5.359  17.111  0.00  0.00    +0.000 N 
ATOM     20  H   UNL     1       2.989   5.859  16.373  0.00  0.00    +0.000 HD
BRANCH  19  21
ATOM     21  C   UNL     1       4.891   5.370  16.862  0.00  0.00    +0.000 A 
ATOM     22  C   UNL     1       5.553   4.360  16.147  0.00  0.00    +0.000 A 
ATOM     23  C   UNL     1       6.926   4.431  15.895  0.00  0.00    +0.000 A 
ATOM     24  C   UNL     1       7.661   5.520  16.353  0.00  0.00    +0.000 A 
ATOM     25  C   UNL     1       7.019   6.528  17.064  0.00  0.00    +0.000 A 
ATOM     26 CL   UNL     1       7.927   7.879  17.626  0.00  0.00    +0.000 Cl
ATOM     27  C   UNL     1       5.646   6.460  17.320  0.00  0.00    +0.000 A 
ENDBRANCH  19  21
ENDBRANCH   5  19
TORSDOF 4
ENDMDL
MODEL 9
REMARK VINA RESULT:      -7.6      6.492     10.957
REMARK  Name = 
REMARK  6 active torsions:
REMARK  status: ('A' for Active; 'I' for Inactive)
REMARK    1  A    between atoms: C_1  and  O_2
REMARK    2  A    between atoms: O_2  and  C_3
REMARK    3  A    between atoms: C_8  and  C_9
REMARK    4  A    between atoms: C_13  and  N_14
REMARK    5  A    between atoms: N_14  and  C_15
REMARK    6  A    between atoms: C_23  and  C_24
REMARK                            x       y       z     vdW  Elec       q    Type
REMARK                         _______ _______ _______ _____ _____    ______ ____
ROOT
ATOM      1  C   UNL     1      -0.381  10.292  19.322  0.00  0.00    +0.000 A 
ATOM      2  C   UNL     1      -0.707  11.150  20.395  0.00  0.00    +0.000 A 
ATOM      3  N   UNL     1      -1.854  11.814  20.231  0.00  0.00    +0.000 NA
ATOM      4  N   UNL     1      -2.302  11.402  19.013  0.00  0.00    +0.000 N 
ATOM      5  C   UNL     1      -3.472  11.838  18.340  0.00  0.00    +0.000 A 
ATOM      6  C   UNL     1      -3.747  11.309  17.132  0.00  0.00    +0.000 A 
ATOM      7  C   UNL     1      -2.773  10.327  16.586  0.00  0.00    +0.000 A 
ATOM      8  C   UNL     1      -3.050   9.764  15.216  0.00  0.00    +0.000 C 
ATOM      9  N   UNL     1      -1.697   9.928  17.199  0.00  0.00    +0.000 NA
ATOM     10  C   UNL     1      -1.435  10.471  18.433  0.00  0.00    +0.000 A 
ENDROOT
BRANCH   1  16
ATOM     11  C   UNL     1       1.199   8.465  20.090  0.00  0.00    +0.000 A 
ATOM     12  C   UNL     1       2.212   7.540  19.771  0.00  0.00    +0.000 A 
ATOM     13  C   UNL     1       2.840   7.562  18.527  0.00  0.00    +0.000 A 
ATOM     14  C   UNL     1       2.470   8.513  17.590  0.00  0.00    +0.000 A 
ATOM     15  C   UNL     1       1.443   9.411  17.884  0.00  0.00    +0.000 A 
ATOM     16  C   UNL     1       0.755   9.384  19.114  0.00  0.00    +0.000 A 
BRANCH  11  18
ATOM     17  C   UNL     1       1.344   9.080  22.370  0.00  0.00    +0.000 C 
ATOM     18  O   UNL     1       0.591   8.459  21.325  0.00  0.00    +0.000 OA
ENDBRANCH  11  18
ENDBRANCH   1  16
BRANCH   5  19
ATOM     19  N   UNL     1      -4.291  12.764  18.990  0.00  0.00    +0.000 N 
ATOM     20  H   UNL     1      -4.524  13.546  18.370  0.00  0.00    +0.000 HD
BRANCH  19  21
ATOM     21  C   UNL     1      -5.384  12.442  19.832  0.00  0.00    +0.000 A 
ATOM     22  C   UNL     1      -6.456  11.633  19.427  0.00  0.00    +0.000 A 
ATOM     23  C   UNL     1      -7.496  11.314  20.304  0.00  0.00    +0.000 A 
ATOM     24  C   UNL     1      -7.477  11.797  21.609  0.00  0.00    +0.000 A 
ATOM     25  C   UNL     1      -6.421  12.602  22.025  0.00  0.00    +0.000 A 
ATOM     26 CL   UNL     1      -6.394  13.196  23.641  0.00  0.00    +0.000 Cl
ATOM     27  C   UNL     1      -5.381  12.925  21.149  0.00  0.00    +0.000 A 
ENDBRANCH  19  21
ENDBRANCH   5  19
TORSDOF 4
ENDMDL
