MODEL 1
REMARK VINA RESULT:      -7.8      0.000      0.000
REMARK  Name = 
REMARK  6 active torsions:
REMARK  status: ('A' for Active; 'I' for Inactive)
REMARK    1  A    between atoms: C_1  and  N_2
REMARK    2  A    between atoms: N_5  and  C_6
REMARK    3  A    between atoms: C_15  and  C_16
REMARK    4  A    between atoms: C_19  and  N_20
REMARK    5  A    between atoms: N_20  and  C_21
REMARK    6  A    between atoms: N_20  and  C_22
REMARK                            x       y       z     vdW  Elec       q    Type
REMARK                         _______ _______ _______ _____ _____    ______ ____
ROOT
ATOM      1  C   UNL     1       2.449   3.274  21.168  0.00  0.00    +0.000 C 
ATOM      2  N   UNL     1       2.774   3.973  19.937  0.00  0.00    +0.000 N 
ATOM      3  C   UNL     1       3.507   3.434  18.864  0.00  0.00    +0.000 C 
ATOM      4  S   UNL     1       3.667   1.796  18.536  0.00  0.00    +0.000 S 
ATOM      5  N   UNL     1       3.964   4.505  18.088  0.00  0.00    +0.000 N 
ATOM      6  C   UNL     1       3.422   5.705  18.531  0.00  0.00    +0.000 C 
ATOM      7  O   UNL     1       3.658   6.839  18.150  0.00  0.00    +0.000 OA
ATOM      8  C   UNL     1       2.605   5.334  19.741  0.00  0.00    +0.000 C 
ATOM      9  C   UNL     1       1.853   6.152  20.492  0.00  0.00    +0.000 C 
ENDROOT
BRANCH   5  10
ATOM     10  C   UNL     1       5.078   4.480  17.216  0.00  0.00    +0.000 A 
ATOM     11  C   UNL     1       4.936   4.403  15.829  0.00  0.00    +0.000 A 
ATOM     12  C   UNL     1       6.067   4.450  15.013  0.00  0.00    +0.000 A 
ATOM     13  C   UNL     1       7.310   4.600  15.608  0.00  0.00    +0.000 A 
ATOM     14  N   UNL     1       7.492   4.697  16.932  0.00  0.00    +0.000 NA
ATOM     15  C   UNL     1       6.378   4.638  17.699  0.00  0.00    +0.000 A 
ENDBRANCH   5  10
BRANCH   9  16
ATOM     16  C   UNL     1       1.597   7.564  20.203  0.00  0.00    +0.000 A 
ATOM     17  C   UNL     1       1.335   8.448  21.247  0.00  0.00    +0.000 A 
ATOM     18  C   UNL     1       1.068   9.801  20.986  0.00  0.00    +0.000 A 
ATOM     19  C   UNL     1       1.073  10.336  19.685  0.00  0.00    +0.000 A 
ATOM     20  C   UNL     1       1.342   9.415  18.656  0.00  0.00    +0.000 A 
ATOM     21  C   UNL     1       1.599   8.055  18.901  0.00  0.00    +0.000 A 
BRANCH  19  22
ATOM     22  N   UNL     1       0.764  11.669  19.445  0.00  0.00    +0.000 N 
ATOM     23  C   UNL     1       1.800  12.635  19.074  0.00  0.00    +0.000 C 
ATOM     24  C   UNL     1      -0.591  12.107  19.113  0.00  0.00    +0.000 C 
ENDBRANCH  19  22
ENDBRANCH   9  16
TORSDOF 3
ENDMDL
MODEL 2
REMARK VINA RESULT:      -7.7      0.352      1.188
REMARK  Name = 
REMARK  6 active torsions:
REMARK  status: ('A' for Active; 'I' for Inactive)
REMARK    1  A    between atoms: C_1  and  N_2
REMARK    2  A    between atoms: N_5  and  C_6
REMARK    3  A    between atoms: C_15  and  C_16
REMARK    4  A    between atoms: C_19  and  N_20
REMARK    5  A    between atoms: N_20  and  C_21
REMARK    6  A    between atoms: N_20  and  C_22
REMARK                            x       y       z     vdW  Elec       q    Type
REMARK                         _______ _______ _______ _____ _____    ______ ____
ROOT
ATOM      1  C   UNL     1       2.364   3.171  21.201  0.00  0.00    +0.000 C 
ATOM      2  N   UNL     1       2.709   3.898  19.992  0.00  0.00    +0.000 N 
ATOM      3  C   UNL     1       3.450   3.378  18.914  0.00  0.00    +0.000 C 
ATOM      4  S   UNL     1       3.599   1.748  18.547  0.00  0.00    +0.000 S 
ATOM      5  N   UNL     1       3.925   4.464  18.170  0.00  0.00    +0.000 N 
ATOM      6  C   UNL     1       3.389   5.657  18.637  0.00  0.00    +0.000 C 
ATOM      7  O   UNL     1       3.639   6.799  18.286  0.00  0.00    +0.000 OA
ATOM      8  C   UNL     1       2.555   5.264  19.828  0.00  0.00    +0.000 C 
ATOM      9  C   UNL     1       1.801   6.071  20.590  0.00  0.00    +0.000 C 
ENDROOT
BRANCH   5  10
ATOM     10  C   UNL     1       5.049   4.450  17.310  0.00  0.00    +0.000 A 
ATOM     11  C   UNL     1       4.923   4.384  15.921  0.00  0.00    +0.000 A 
ATOM     12  C   UNL     1       6.062   4.443  15.118  0.00  0.00    +0.000 A 
ATOM     13  C   UNL     1       7.299   4.592  15.728  0.00  0.00    +0.000 A 
ATOM     14  N   UNL     1       7.465   4.679  17.056  0.00  0.00    +0.000 NA
ATOM     15  C   UNL     1       6.343   4.610  17.809  0.00  0.00    +0.000 A 
ENDBRANCH   5  10
BRANCH   9  16
ATOM     16  C   UNL     1       1.561   7.491  20.333  0.00  0.00    +0.000 A 
ATOM     17  C   UNL     1       1.570   7.969  19.025  0.00  0.00    +0.000 A 
ATOM     18  C   UNL     1       1.361   9.333  18.763  0.00  0.00    +0.000 A 
ATOM     19  C   UNL     1       1.112  10.270  19.782  0.00  0.00    +0.000 A 
ATOM     20  C   UNL     1       1.109   9.751  21.090  0.00  0.00    +0.000 A 
ATOM     21  C   UNL     1       1.330   8.392  21.368  0.00  0.00    +0.000 A 
BRANCH  19  22
ATOM     22  N   UNL     1       0.950  11.621  19.504  0.00  0.00    +0.000 N 
ATOM     23  C   UNL     1       0.163  12.490  20.382  0.00  0.00    +0.000 C 
ATOM     24  C   UNL     1       1.862  12.350  18.624  0.00  0.00    +0.000 C 
ENDBRANCH  19  22
ENDBRANCH   9  16
TORSDOF 3
ENDMDL
MODEL 3
REMARK VINA RESULT:      -7.6      2.374      4.367
REMARK  Name = 
REMARK  6 active torsions:
REMARK  status: ('A' for Active; 'I' for Inactive)
REMARK    1  A    between atoms: C_1  and  N_2
REMARK    2  A    between atoms: N_5  and  C_6
REMARK    3  A    between atoms: C_15  and  C_16
REMARK    4  A    between atoms: C_19  and  N_20
REMARK    5  A    between atoms: N_20  and  C_21
REMARK    6  A    between atoms: N_20  and  C_22
REMARK                            x       y       z     vdW  Elec       q    Type
REMARK                         _______ _______ _______ _____ _____    ______ ____
ROOT
ATOM      1  C   UNL     1       4.460   7.150  16.637  0.00  0.00    +0.000 C 
ATOM      2  N   UNL     1       3.751   6.945  17.888  0.00  0.00    +0.000 N 
ATOM      3  C   UNL     1       3.885   5.822  18.724  0.00  0.00    +0.000 C 
ATOM      4  S   UNL     1       5.220   4.806  18.763  0.00  0.00    +0.000 S 
ATOM      5  N   UNL     1       2.769   5.792  19.568  0.00  0.00    +0.000 N 
ATOM      6  C   UNL     1       2.000   6.938  19.414  0.00  0.00    +0.000 C 
ATOM      7  O   UNL     1       0.925   7.214  19.921  0.00  0.00    +0.000 OA
ATOM      8  C   UNL     1       2.683   7.714  18.318  0.00  0.00    +0.000 C 
ATOM      9  C   UNL     1       2.334   8.918  17.841  0.00  0.00    +0.000 C 
ENDROOT
BRANCH   5  10
ATOM     10  C   UNL     1       2.258   4.647  20.224  0.00  0.00    +0.000 A 
ATOM     11  C   UNL     1       1.509   3.677  19.555  0.00  0.00    +0.000 A 
ATOM     12  C   UNL     1       1.088   2.534  20.235  0.00  0.00    +0.000 A 
ATOM     13  C   UNL     1       1.451   2.380  21.564  0.00  0.00    +0.000 A 
ATOM     14  N   UNL     1       2.185   3.275  22.241  0.00  0.00    +0.000 NA
ATOM     15  C   UNL     1       2.570   4.378  21.558  0.00  0.00    +0.000 A 
ENDBRANCH   5  10
BRANCH   9  16
ATOM     16  C   UNL     1       1.271   9.765  18.385  0.00  0.00    +0.000 A 
ATOM     17  C   UNL     1      -0.010   9.701  17.841  0.00  0.00    +0.000 A 
ATOM     18  C   UNL     1      -1.037  10.520  18.338  0.00  0.00    +0.000 A 
ATOM     19  C   UNL     1      -0.841  11.416  19.404  0.00  0.00    +0.000 A 
ATOM     20  C   UNL     1       0.464  11.453  19.928  0.00  0.00    +0.000 A 
ATOM     21  C   UNL     1       1.505  10.649  19.433  0.00  0.00    +0.000 A 
BRANCH  19  22
ATOM     22  N   UNL     1      -1.860  12.249  19.851  0.00  0.00    +0.000 N 
ATOM     23  C   UNL     1      -1.568  13.545  20.466  0.00  0.00    +0.000 C 
ATOM     24  C   UNL     1      -3.234  12.126  19.369  0.00  0.00    +0.000 C 
ENDBRANCH  19  22
ENDBRANCH   9  16
TORSDOF 3
ENDMDL
MODEL 4
REMARK VINA RESULT:      -7.5      0.734      1.102
REMARK  Name = 
REMARK  6 active torsions:
REMARK  status: ('A' for Active; 'I' for Inactive)
REMARK    1  A    between atoms: C_1  and  N_2
REMARK    2  A    between atoms: N_5  and  C_6
REMARK    3  A    between atoms: C_15  and  C_16
REMARK    4  A    between atoms: C_19  and  N_20
REMARK    5  A    between atoms: N_20  and  C_21
REMARK    6  A    between atoms: N_20  and  C_22
REMARK                            x       y       z     vdW  Elec       q    Type
REMARK                         _______ _______ _______ _____ _____    ______ ____
ROOT
ATOM      1  C   UNL     1       2.072   3.464  21.463  0.00  0.00    +0.000 C 
ATOM      2  N   UNL     1       2.476   4.173  20.261  0.00  0.00    +0.000 N 
ATOM      3  C   UNL     1       3.245   3.630  19.216  0.00  0.00    +0.000 C 
ATOM      4  S   UNL     1       3.376   1.994  18.868  0.00  0.00    +0.000 S 
ATOM      5  N   UNL     1       3.770   4.700  18.481  0.00  0.00    +0.000 N 
ATOM      6  C   UNL     1       3.241   5.907  18.918  0.00  0.00    +0.000 C 
ATOM      7  O   UNL     1       3.527   7.040  18.567  0.00  0.00    +0.000 OA
ATOM      8  C   UNL     1       2.355   5.541  20.080  0.00  0.00    +0.000 C 
ATOM      9  C   UNL     1       1.591   6.369  20.807  0.00  0.00    +0.000 C 
ENDROOT
BRANCH   5  10
ATOM     10  C   UNL     1       4.924   4.656  17.663  0.00  0.00    +0.000 A 
ATOM     11  C   UNL     1       6.212   4.786  18.186  0.00  0.00    +0.000 A 
ATOM     12  C   UNL     1       7.318   4.666  17.343  0.00  0.00    +0.000 A 
ATOM     13  C   UNL     1       7.103   4.393  16.001  0.00  0.00    +0.000 A 
ATOM     14  N   UNL     1       5.886   4.241  15.460  0.00  0.00    +0.000 NA
ATOM     15  C   UNL     1       4.833   4.373  16.299  0.00  0.00    +0.000 A 
ENDBRANCH   5  10
BRANCH   9  16
ATOM     16  C   UNL     1       1.388   7.792  20.530  0.00  0.00    +0.000 A 
ATOM     17  C   UNL     1       1.294   8.696  21.586  0.00  0.00    +0.000 A 
ATOM     18  C   UNL     1       1.081  10.061  21.338  0.00  0.00    +0.000 A 
ATOM     19  C   UNL     1       0.975  10.587  20.038  0.00  0.00    +0.000 A 
ATOM     20  C   UNL     1       1.076   9.645  18.997  0.00  0.00    +0.000 A 
ATOM     21  C   UNL     1       1.277   8.274  19.230  0.00  0.00    +0.000 A 
BRANCH  19  22
ATOM     22  N   UNL     1       0.721  11.935  19.816  0.00  0.00    +0.000 N 
ATOM     23  C   UNL     1       1.731  12.956  20.105  0.00  0.00    +0.000 C 
ATOM     24  C   UNL     1      -0.330  12.390  18.908  0.00  0.00    +0.000 C 
ENDBRANCH  19  22
ENDBRANCH   9  16
TORSDOF 3
ENDMDL
MODEL 5
REMARK VINA RESULT:      -7.3      2.219      4.269
REMARK  Name = 
REMARK  6 active torsions:
REMARK  status: ('A' for Active; 'I' for Inactive)
REMARK    1  A    between atoms: C_1  and  N_2
REMARK    2  A    between atoms: N_5  and  C_6
REMARK    3  A    between atoms: C_15  and  C_16
REMARK    4  A    between atoms: C_19  and  N_20
REMARK    5  A    between atoms: N_20  and  C_21
REMARK    6  A    between atoms: N_20  and  C_22
REMARK                            x       y       z     vdW  Elec       q    Type
REMARK                         _______ _______ _______ _____ _____    ______ ____
ROOT
ATOM      1  C   UNL     1       4.799   7.045  16.353  0.00  0.00    +0.000 C 
ATOM      2  N   UNL     1       4.113   6.814  17.612  0.00  0.00    +0.000 N 
ATOM      3  C   UNL     1       4.293   5.693  18.443  0.00  0.00    +0.000 C 
ATOM      4  S   UNL     1       5.660   4.721  18.462  0.00  0.00    +0.000 S 
ATOM      5  N   UNL     1       3.189   5.625  19.300  0.00  0.00    +0.000 N 
ATOM      6  C   UNL     1       2.382   6.747  19.159  0.00  0.00    +0.000 C 
ATOM      7  O   UNL     1       1.305   6.986  19.680  0.00  0.00    +0.000 OA
ATOM      8  C   UNL     1       3.026   7.547  18.057  0.00  0.00    +0.000 C 
ATOM      9  C   UNL     1       2.633   8.741  17.589  0.00  0.00    +0.000 C 
ENDROOT
BRANCH   5  10
ATOM     10  C   UNL     1       2.723   4.462  19.958  0.00  0.00    +0.000 A 
ATOM     11  C   UNL     1       2.552   4.409  21.343  0.00  0.00    +0.000 A 
ATOM     12  C   UNL     1       2.024   3.259  21.932  0.00  0.00    +0.000 A 
ATOM     13  C   UNL     1       1.657   2.201  21.115  0.00  0.00    +0.000 A 
ATOM     14  N   UNL     1       1.785   2.217  19.780  0.00  0.00    +0.000 NA
ATOM     15  C   UNL     1       2.308   3.340  19.238  0.00  0.00    +0.000 A 
ENDBRANCH   5  10
BRANCH   9  16
ATOM     16  C   UNL     1       1.550   9.551  18.148  0.00  0.00    +0.000 A 
ATOM     17  C   UNL     1       0.247   9.379  17.685  0.00  0.00    +0.000 A 
ATOM     18  C   UNL     1      -0.801  10.162  18.197  0.00  0.00    +0.000 A 
ATOM     19  C   UNL     1      -0.603  11.128  19.201  0.00  0.00    +0.000 A 
ATOM     20  C   UNL     1       0.724  11.273  19.644  0.00  0.00    +0.000 A 
ATOM     21  C   UNL     1       1.785  10.506  19.132  0.00  0.00    +0.000 A 
BRANCH  19  22
ATOM     22  N   UNL     1      -1.646  11.921  19.662  0.00  0.00    +0.000 N 
ATOM     23  C   UNL     1      -1.397  13.082  20.519  0.00  0.00    +0.000 C 
ATOM     24  C   UNL     1      -2.954  11.945  19.010  0.00  0.00    +0.000 C 
ENDBRANCH  19  22
ENDBRANCH   9  16
TORSDOF 3
ENDMDL
MODEL 6
REMARK VINA RESULT:      -6.8      4.066      9.080
REMARK  Name = 
REMARK  6 active torsions:
REMARK  status: ('A' for Active; 'I' for Inactive)
REMARK    1  A    between atoms: C_1  and  N_2
REMARK    2  A    between atoms: N_5  and  C_6
REMARK    3  A    between atoms: C_15  and  C_16
REMARK    4  A    between atoms: C_19  and  N_20
REMARK    5  A    between atoms: N_20  and  C_21
REMARK    6  A    between atoms: N_20  and  C_22
REMARK                            x       y       z     vdW  Elec       q    Type
REMARK                         _______ _______ _______ _____ _____    ______ ____
ROOT
ATOM      1  C   UNL     1      -2.684  12.802  20.229  0.00  0.00    +0.000 C 
ATOM      2  N   UNL     1      -1.244  12.944  20.353  0.00  0.00    +0.000 N 
ATOM      3  C   UNL     1      -0.567  14.139  20.656  0.00  0.00    +0.000 C 
ATOM      4  S   UNL     1      -1.244  15.451  21.454  0.00  0.00    +0.000 S 
ATOM      5  N   UNL     1       0.769  13.974  20.272  0.00  0.00    +0.000 N 
ATOM      6  C   UNL     1       1.013  12.665  19.879  0.00  0.00    +0.000 C 
ATOM      7  O   UNL     1       2.031  12.183  19.410  0.00  0.00    +0.000 OA
ATOM      8  C   UNL     1      -0.326  11.980  19.969  0.00  0.00    +0.000 C 
ATOM      9  C   UNL     1      -0.592  10.688  19.729  0.00  0.00    +0.000 C 
ENDROOT
BRANCH   5  10
ATOM     10  C   UNL     1       1.677  15.015  19.965  0.00  0.00    +0.000 A 
ATOM     11  C   UNL     1       1.651  15.689  18.743  0.00  0.00    +0.000 A 
ATOM     12  C   UNL     1       2.525  16.754  18.520  0.00  0.00    +0.000 A 
ATOM     13  C   UNL     1       3.386  17.132  19.539  0.00  0.00    +0.000 A 
ATOM     14  N   UNL     1       3.431  16.527  20.734  0.00  0.00    +0.000 NA
ATOM     15  C   UNL     1       2.579  15.492  20.918  0.00  0.00    +0.000 A 
ENDBRANCH   5  10
BRANCH   9  16
ATOM     16  C   UNL     1       0.409   9.661  19.435  0.00  0.00    +0.000 A 
ATOM     17  C   UNL     1       0.870   9.498  18.131  0.00  0.00    +0.000 A 
ATOM     18  C   UNL     1       1.816   8.505  17.828  0.00  0.00    +0.000 A 
ATOM     19  C   UNL     1       2.358   7.652  18.807  0.00  0.00    +0.000 A 
ATOM     20  C   UNL     1       1.870   7.847  20.112  0.00  0.00    +0.000 A 
ATOM     21  C   UNL     1       0.914   8.827  20.428  0.00  0.00    +0.000 A 
BRANCH  19  22
ATOM     22  N   UNL     1       3.260   6.648  18.479  0.00  0.00    +0.000 N 
ATOM     23  C   UNL     1       4.261   6.840  17.427  0.00  0.00    +0.000 C 
ATOM     24  C   UNL     1       3.576   5.555  19.396  0.00  0.00    +0.000 C 
ENDBRANCH  19  22
ENDBRANCH   9  16
TORSDOF 3
ENDMDL
MODEL 7
REMARK VINA RESULT:      -6.8      3.621      8.528
REMARK  Name = 
REMARK  6 active torsions:
REMARK  status: ('A' for Active; 'I' for Inactive)
REMARK    1  A    between atoms: C_1  and  N_2
REMARK    2  A    between atoms: N_5  and  C_6
REMARK    3  A    between atoms: C_15  and  C_16
REMARK    4  A    between atoms: C_19  and  N_20
REMARK    5  A    between atoms: N_20  and  C_21
REMARK    6  A    between atoms: N_20  and  C_22
REMARK                            x       y       z     vdW  Elec       q    Type
REMARK                         _______ _______ _______ _____ _____    ______ ____
ROOT
ATOM      1  C   UNL     1       1.468  12.516  20.861  0.00  0.00    +0.000 C 
ATOM      2  N   UNL     1       0.801  11.838  19.763  0.00  0.00    +0.000 N 
ATOM      3  C   UNL     1      -0.188  12.404  18.939  0.00  0.00    +0.000 C 
ATOM      4  S   UNL     1      -0.398  14.048  18.679  0.00  0.00    +0.000 S 
ATOM      5  N   UNL     1      -0.864  11.351  18.312  0.00  0.00    +0.000 N 
ATOM      6  C   UNL     1      -0.247  10.136  18.580  0.00  0.00    +0.000 C 
ATOM      7  O   UNL     1      -0.603   9.011  18.271  0.00  0.00    +0.000 OA
ATOM      8  C   UNL     1       0.881  10.477  19.519  0.00  0.00    +0.000 C 
ATOM      9  C   UNL     1       1.793   9.636  20.027  0.00  0.00    +0.000 C 
ENDROOT
BRANCH   5  10
ATOM     10  C   UNL     1      -2.175  11.407  17.782  0.00  0.00    +0.000 A 
ATOM     11  C   UNL     1      -2.451  11.117  16.445  0.00  0.00    +0.000 A 
ATOM     12  C   UNL     1      -3.771  11.121  15.992  0.00  0.00    +0.000 A 
ATOM     13  C   UNL     1      -4.784  11.393  16.899  0.00  0.00    +0.000 A 
ATOM     14  N   UNL     1      -4.567  11.658  18.195  0.00  0.00    +0.000 NA
ATOM     15  C   UNL     1      -3.277  11.656  18.603  0.00  0.00    +0.000 A 
ENDBRANCH   5  10
BRANCH   9  16
ATOM     16  C   UNL     1       1.930   8.223  19.669  0.00  0.00    +0.000 A 
ATOM     17  C   UNL     1       1.585   7.239  20.593  0.00  0.00    +0.000 A 
ATOM     18  C   UNL     1       1.728   5.879  20.272  0.00  0.00    +0.000 A 
ATOM     19  C   UNL     1       2.196   5.442  19.020  0.00  0.00    +0.000 A 
ATOM     20  C   UNL     1       2.534   6.463  18.113  0.00  0.00    +0.000 A 
ATOM     21  C   UNL     1       2.408   7.828  18.424  0.00  0.00    +0.000 A 
BRANCH  19  22
ATOM     22  N   UNL     1       2.371   4.093  18.739  0.00  0.00    +0.000 N 
ATOM     23  C   UNL     1       3.698   3.475  18.769  0.00  0.00    +0.000 C 
ATOM     24  C   UNL     1       1.275   3.130  18.831  0.00  0.00    +0.000 C 
ENDBRANCH  19  22
ENDBRANCH   9  16
TORSDOF 3
ENDMDL
MODEL 8
REMARK VINA RESULT:      -6.7      8.148     10.367
REMARK  Name = 
REMARK  6 active torsions:
REMARK  status: ('A' for Active; 'I' for Inactive)
REMARK    1  A    between atoms: C_1  and  N_2
REMARK    2  A    between atoms: N_5  and  C_6
REMARK    3  A    between atoms: C_15  and  C_16
REMARK    4  A    between atoms: C_19  and  N_20
REMARK    5  A    between atoms: N_20  and  C_21
REMARK    6  A    between atoms: N_20  and  C_22
REMARK                            x       y       z     vdW  Elec       q    Type
REMARK                         _______ _______ _______ _____ _____    ______ ____
ROOT
ATOM      1  C   UNL     1       9.166  18.477  18.207  0.00  0.00    +0.000 C 
ATOM      2  N   UNL     1       9.117  17.146  18.786  0.00  0.00    +0.000 N 
ATOM      3  C   UNL     1      10.236  16.376  19.152  0.00  0.00    +0.000 C 
ATOM      4  S   UNL     1      11.752  16.995  19.514  0.00  0.00    +0.000 S 
ATOM      5  N   UNL     1       9.812  15.046  19.259  0.00  0.00    +0.000 N 
ATOM      6  C   UNL     1       8.433  14.953  19.131  0.00  0.00    +0.000 C 
ATOM      7  O   UNL     1       7.732  13.955  19.090  0.00  0.00    +0.000 OA
ATOM      8  C   UNL     1       7.977  16.361  18.851  0.00  0.00    +0.000 C 
ATOM      9  C   UNL     1       6.715  16.787  18.693  0.00  0.00    +0.000 C 
ENDROOT
BRANCH   5  10
ATOM     10  C   UNL     1      10.639  13.902  19.151  0.00  0.00    +0.000 A 
ATOM     11  C   UNL     1      11.021  13.151  20.264  0.00  0.00    +0.000 A 
ATOM     12  C   UNL     1      11.780  11.993  20.092  0.00  0.00    +0.000 A 
ATOM     13  C   UNL     1      12.117  11.604  18.804  0.00  0.00    +0.000 A 
ATOM     14  N   UNL     1      11.756  12.284  17.706  0.00  0.00    +0.000 NA
ATOM     15  C   UNL     1      11.028  13.407  17.905  0.00  0.00    +0.000 A 
ENDBRANCH   5  10
BRANCH   9  16
ATOM     16  C   UNL     1       5.518  15.965  18.876  0.00  0.00    +0.000 A 
ATOM     17  C   UNL     1       4.962  15.826  20.145  0.00  0.00    +0.000 A 
ATOM     18  C   UNL     1       3.825  15.025  20.342  0.00  0.00    +0.000 A 
ATOM     19  C   UNL     1       3.184  14.351  19.287  0.00  0.00    +0.000 A 
ATOM     20  C   UNL     1       3.772  14.515  18.020  0.00  0.00    +0.000 A 
ATOM     21  C   UNL     1       4.917  15.303  17.810  0.00  0.00    +0.000 A 
BRANCH  19  22
ATOM     22  N   UNL     1       2.086  13.529  19.510  0.00  0.00    +0.000 N 
ATOM     23  C   UNL     1       1.691  13.138  20.865  0.00  0.00    +0.000 C 
ATOM     24  C   UNL     1       1.023  13.363  18.520  0.00  0.00    +0.000 C 
ENDBRANCH  19  22
ENDBRANCH   9  16
TORSDOF 3
ENDMDL
MODEL 9
REMARK VINA RESULT:      -6.7      4.101      9.209
REMARK  Name = 
REMARK  6 active torsions:
REMARK  status: ('A' for Active; 'I' for Inactive)
REMARK    1  A    between atoms: C_1  and  N_2
REMARK    2  A    between atoms: N_5  and  C_6
REMARK    3  A    between atoms: C_15  and  C_16
REMARK    4  A    between atoms: C_19  and  N_20
REMARK    5  A    between atoms: N_20  and  C_21
REMARK    6  A    between atoms: N_20  and  C_22
REMARK                            x       y       z     vdW  Elec       q    Type
REMARK                         _______ _______ _______ _____ _____    ______ ____
ROOT
ATOM      1  C   UNL     1      -2.912  12.754  20.052  0.00  0.00    +0.000 C 
ATOM      2  N   UNL     1      -1.488  12.933  20.275  0.00  0.00    +0.000 N 
ATOM      3  C   UNL     1      -0.869  14.140  20.649  0.00  0.00    +0.000 C 
ATOM      4  S   UNL     1      -1.635  15.413  21.428  0.00  0.00    +0.000 S 
ATOM      5  N   UNL     1       0.494  14.021  20.352  0.00  0.00    +0.000 N 
ATOM      6  C   UNL     1       0.802  12.729  19.948  0.00  0.00    +0.000 C 
ATOM      7  O   UNL     1       1.863  12.287  19.538  0.00  0.00    +0.000 OA
ATOM      8  C   UNL     1      -0.519  12.005  19.933  0.00  0.00    +0.000 C 
ATOM      9  C   UNL     1      -0.730  10.711  19.648  0.00  0.00    +0.000 C 
ENDROOT
BRANCH   5  10
ATOM     10  C   UNL     1       1.390  15.094  20.129  0.00  0.00    +0.000 A 
ATOM     11  C   UNL     1       2.328  15.491  21.084  0.00  0.00    +0.000 A 
ATOM     12  C   UNL     1       3.232  16.510  20.785  0.00  0.00    +0.000 A 
ATOM     13  C   UNL     1       3.189  17.089  19.526  0.00  0.00    +0.000 A 
ATOM     14  N   UNL     1       2.319  16.727  18.573  0.00  0.00    +0.000 NA
ATOM     15  C   UNL     1       1.448  15.743  18.894  0.00  0.00    +0.000 A 
ENDBRANCH   5  10
BRANCH   9  16
ATOM     16  C   UNL     1       0.319   9.721  19.400  0.00  0.00    +0.000 A 
ATOM     17  C   UNL     1       0.824   9.556  18.112  0.00  0.00    +0.000 A 
ATOM     18  C   UNL     1       1.816   8.597  17.853  0.00  0.00    +0.000 A 
ATOM     19  C   UNL     1       2.360   7.780  18.861  0.00  0.00    +0.000 A 
ATOM     20  C   UNL     1       1.827   7.975  20.148  0.00  0.00    +0.000 A 
ATOM     21  C   UNL     1       0.825   8.922  20.420  0.00  0.00    +0.000 A 
BRANCH  19  22
ATOM     22  N   UNL     1       3.311   6.807  18.575  0.00  0.00    +0.000 N 
ATOM     23  C   UNL     1       3.239   5.474  19.176  0.00  0.00    +0.000 C 
ATOM     24  C   UNL     1       4.150   6.866  17.380  0.00  0.00    +0.000 C 
ENDBRANCH  19  22
ENDBRANCH   9  16
TORSDOF 3
ENDMDL
