MODEL 1
REMARK VINA RESULT:      -7.3      0.000      0.000
REMARK  Name = 
REMARK  12 active torsions:
REMARK  status: ('A' for Active; 'I' for Inactive)
REMARK    1  A    between atoms: C_1  and  C_2
REMARK    2  A    between atoms: C_2  and  C_3
REMARK    3  A    between atoms: C_3  and  C_4
REMARK    4  A    between atoms: C_4  and  N_5
REMARK    5  A    between atoms: C_6  and  N_7
REMARK    6  A    between atoms: C_8  and  N_9
REMARK    7  A    between atoms: N_9  and  C_10
REMARK    8  A    between atoms: C_10  and  C_11
REMARK    9  A    between atoms: C_11  and  O_12
REMARK   10  A    between atoms: O_12  and  C_13
REMARK   11  A    between atoms: C_14  and  C_16
REMARK   12  A    between atoms: C_18  and  C_19
REMARK                            x       y       z     vdW  Elec       q    Type
REMARK                         _______ _______ _______ _____ _____    ______ ____
ROOT
ATOM      1  N   UNL     1       0.330  10.271  19.910  0.00  0.00    +0.000 N 
ATOM      2  C   UNL     1       0.833  11.292  20.796  0.00  0.00    +0.000 C 
ATOM      3  O   UNL     1       1.885  11.174  21.418  0.00  0.00    +0.000 OA
ENDROOT
BRANCH   2   4
ATOM      4  C   UNL     1       0.074  12.620  20.937  0.00  0.00    +0.000 A 
ATOM      5  C   UNL     1       0.572  13.718  20.236  0.00  0.00    +0.000 A 
ATOM      6  C   UNL     1      -0.234  14.816  19.978  0.00  0.00    +0.000 A 
ATOM      7  N   UNL     1      -1.480  14.881  20.492  0.00  0.00    +0.000 NA
ATOM      8  C   UNL     1      -1.895  13.932  21.336  0.00  0.00    +0.000 A 
ATOM      9  C   UNL     1      -3.165  14.097  21.862  0.00  0.00    +0.000 A 
ATOM     10  C   UNL     1      -3.688  13.213  22.798  0.00  0.00    +0.000 A 
ATOM     11  C   UNL     1      -2.882  12.193  23.284  0.00  0.00    +0.000 A 
ATOM     12  C   UNL     1      -1.623  11.964  22.713  0.00  0.00    +0.000 A 
ATOM     13  C   UNL     1      -1.129  12.793  21.673  0.00  0.00    +0.000 A 
BRANCH   6  14
ATOM     14  C   UNL     1       0.151  15.913  19.067  0.00  0.00    +0.000 A 
ATOM     15  C   UNL     1       1.501  16.148  18.732  0.00  0.00    +0.000 A 
ATOM     16  C   UNL     1       1.879  17.192  17.884  0.00  0.00    +0.000 A 
ATOM     17  C   UNL     1       0.911  18.041  17.351  0.00  0.00    +0.000 A 
ATOM     18  C   UNL     1      -0.428  17.839  17.667  0.00  0.00    +0.000 A 
ATOM     19  C   UNL     1      -0.801  16.792  18.508  0.00  0.00    +0.000 A 
ENDBRANCH   6  14
ENDBRANCH   2   4
BRANCH   1  22
ATOM     20  N   UNL     1       2.056   6.955  19.862  0.00  0.00    +0.000 N 
ATOM     21  C   UNL     1       1.289   8.048  20.304  0.00  0.00    +0.000 A 
ATOM     22  C   UNL     1       1.172   9.178  19.564  0.00  0.00    +0.000 A 
ATOM     23  C   UNL     1       1.938   9.243  18.276  0.00  0.00    +0.000 A 
ATOM     24  O   UNL     1       1.848  10.193  17.500  0.00  0.00    +0.000 OA
ATOM     25  N   UNL     1       2.738   8.173  17.981  0.00  0.00    +0.000 N 
ATOM     26  C   UNL     1       2.773   6.991  18.666  0.00  0.00    +0.000 A 
ATOM     27  O   UNL     1       3.416   6.037  18.204  0.00  0.00    +0.000 OA
ATOM     28  H   UNL     1       3.236   8.195  17.111  0.00  0.00    +0.000 HD
BRANCH  21  29
ATOM     29  N   UNL     1       0.638   7.963  21.542  0.00  0.00    +0.000 N 
ATOM     30  H   UNL     1      -0.358   7.789  21.415  0.00  0.00    +0.000 HD
ATOM     31  H   UNL     1       0.776   8.801  22.082  0.00  0.00    +0.000 HD
ENDBRANCH  21  29
BRANCH  20  32
ATOM     32  C   UNL     1       2.161   5.713  20.647  0.00  0.00    +0.000 C 
BRANCH  32  33
ATOM     33  C   UNL     1       1.035   4.704  20.354  0.00  0.00    +0.000 C 
BRANCH  33  35
ATOM     34  C   UNL     1       1.732   2.680  21.722  0.00  0.00    +0.000 C 
ATOM     35  C   UNL     1       1.561   3.261  20.325  0.00  0.00    +0.000 C 
ENDBRANCH  33  35
ENDBRANCH  32  33
ENDBRANCH  20  32
ENDBRANCH   1  22
BRANCH   1  36
ATOM     36  C   UNL     1      -0.963  10.446  19.211  0.00  0.00    +0.000 C 
BRANCH  36  37
ATOM     37  C   UNL     1      -1.254  11.423  18.066  0.00  0.00    +0.000 C 
BRANCH  37  38
ATOM     38  O   UNL     1      -2.256  11.028  17.139  0.00  0.00    +0.000 OA
ATOM     39  C   UNL     1      -2.951   9.837  17.493  0.00  0.00    +0.000 C 
ENDBRANCH  37  38
ENDBRANCH  36  37
ENDBRANCH   1  36
TORSDOF 10
ENDMDL
MODEL 2
REMARK VINA RESULT:      -7.2      0.575      1.088
REMARK  Name = 
REMARK  12 active torsions:
REMARK  status: ('A' for Active; 'I' for Inactive)
REMARK    1  A    between atoms: C_1  and  C_2
REMARK    2  A    between atoms: C_2  and  C_3
REMARK    3  A    between atoms: C_3  and  C_4
REMARK    4  A    between atoms: C_4  and  N_5
REMARK    5  A    between atoms: C_6  and  N_7
REMARK    6  A    between atoms: C_8  and  N_9
REMARK    7  A    between atoms: N_9  and  C_10
REMARK    8  A    between atoms: C_10  and  C_11
REMARK    9  A    between atoms: C_11  and  O_12
REMARK   10  A    between atoms: O_12  and  C_13
REMARK   11  A    between atoms: C_14  and  C_16
REMARK   12  A    between atoms: C_18  and  C_19
REMARK                            x       y       z     vdW  Elec       q    Type
REMARK                         _______ _______ _______ _____ _____    ______ ____
ROOT
ATOM      1  N   UNL     1       0.386  10.172  19.928  0.00  0.00    +0.000 N 
ATOM      2  C   UNL     1       0.902  11.197  20.804  0.00  0.00    +0.000 C 
ATOM      3  O   UNL     1       1.962  11.081  21.412  0.00  0.00    +0.000 OA
ENDROOT
BRANCH   2   4
ATOM      4  C   UNL     1       0.146  12.526  20.947  0.00  0.00    +0.000 A 
ATOM      5  C   UNL     1       0.654  13.628  20.259  0.00  0.00    +0.000 A 
ATOM      6  C   UNL     1      -0.145  14.731  20.002  0.00  0.00    +0.000 A 
ATOM      7  N   UNL     1      -1.395  14.797  20.505  0.00  0.00    +0.000 NA
ATOM      8  C   UNL     1      -1.822  13.843  21.337  0.00  0.00    +0.000 A 
ATOM      9  C   UNL     1      -3.096  14.009  21.853  0.00  0.00    +0.000 A 
ATOM     10  C   UNL     1      -3.631  13.119  22.777  0.00  0.00    +0.000 A 
ATOM     11  C   UNL     1      -2.834  12.093  23.262  0.00  0.00    +0.000 A 
ATOM     12  C   UNL     1      -1.571  11.864  22.701  0.00  0.00    +0.000 A 
ATOM     13  C   UNL     1      -1.063  12.698  21.673  0.00  0.00    +0.000 A 
BRANCH   6  14
ATOM     14  C   UNL     1       0.252  15.833  19.103  0.00  0.00    +0.000 A 
ATOM     15  C   UNL     1      -0.707  16.693  18.528  0.00  0.00    +0.000 A 
ATOM     16  C   UNL     1      -0.345  17.728  17.663  0.00  0.00    +0.000 A 
ATOM     17  C   UNL     1       0.995  17.928  17.340  0.00  0.00    +0.000 A 
ATOM     18  C   UNL     1       1.964  17.093  17.885  0.00  0.00    +0.000 A 
ATOM     19  C   UNL     1       1.599  16.066  18.752  0.00  0.00    +0.000 A 
ENDBRANCH   6  14
ENDBRANCH   2   4
BRANCH   1  22
ATOM     20  N   UNL     1       2.106   6.853  19.874  0.00  0.00    +0.000 N 
ATOM     21  C   UNL     1       1.345   7.948  20.321  0.00  0.00    +0.000 A 
ATOM     22  C   UNL     1       1.223   9.076  19.578  0.00  0.00    +0.000 A 
ATOM     23  C   UNL     1       1.975   9.135  18.282  0.00  0.00    +0.000 A 
ATOM     24  O   UNL     1       1.878  10.082  17.503  0.00  0.00    +0.000 OA
ATOM     25  N   UNL     1       2.769   8.063  17.982  0.00  0.00    +0.000 N 
ATOM     26  C   UNL     1       2.809   6.883  18.670  0.00  0.00    +0.000 A 
ATOM     27  O   UNL     1       3.446   5.927  18.205  0.00  0.00    +0.000 OA
ATOM     28  H   UNL     1       3.257   8.081  17.106  0.00  0.00    +0.000 HD
BRANCH  21  29
ATOM     29  N   UNL     1       0.707   7.870  21.566  0.00  0.00    +0.000 N 
ATOM     30  H   UNL     1       1.109   8.539  22.220  0.00  0.00    +0.000 HD
ATOM     31  H   UNL     1       0.765   6.939  21.944  0.00  0.00    +0.000 HD
ENDBRANCH  21  29
BRANCH  20  32
ATOM     32  C   UNL     1       2.217   5.613  20.662  0.00  0.00    +0.000 C 
BRANCH  32  33
ATOM     33  C   UNL     1       1.063   4.623  20.417  0.00  0.00    +0.000 C 
BRANCH  33  35
ATOM     34  C   UNL     1       1.302   3.071  18.420  0.00  0.00    +0.000 C 
ATOM     35  C   UNL     1       1.578   3.270  19.905  0.00  0.00    +0.000 C 
ENDBRANCH  33  35
ENDBRANCH  32  33
ENDBRANCH  20  32
ENDBRANCH   1  22
BRANCH   1  36
ATOM     36  C   UNL     1      -0.915  10.345  19.245  0.00  0.00    +0.000 C 
BRANCH  36  37
ATOM     37  C   UNL     1      -1.186  11.210  18.009  0.00  0.00    +0.000 C 
BRANCH  37  38
ATOM     38  O   UNL     1      -2.225  12.173  18.129  0.00  0.00    +0.000 OA
ATOM     39  C   UNL     1      -3.395  11.700  18.788  0.00  0.00    +0.000 C 
ENDBRANCH  37  38
ENDBRANCH  36  37
ENDBRANCH   1  36
TORSDOF 10
ENDMDL
MODEL 3
REMARK VINA RESULT:      -6.8      1.104      4.145
REMARK  Name = 
REMARK  12 active torsions:
REMARK  status: ('A' for Active; 'I' for Inactive)
REMARK    1  A    between atoms: C_1  and  C_2
REMARK    2  A    between atoms: C_2  and  C_3
REMARK    3  A    between atoms: C_3  and  C_4
REMARK    4  A    between atoms: C_4  and  N_5
REMARK    5  A    between atoms: C_6  and  N_7
REMARK    6  A    between atoms: C_8  and  N_9
REMARK    7  A    between atoms: N_9  and  C_10
REMARK    8  A    between atoms: C_10  and  C_11
REMARK    9  A    between atoms: C_11  and  O_12
REMARK   10  A    between atoms: O_12  and  C_13
REMARK   11  A    between atoms: C_14  and  C_16
REMARK   12  A    between atoms: C_18  and  C_19
REMARK                            x       y       z     vdW  Elec       q    Type
REMARK                         _______ _______ _______ _____ _____    ______ ____
ROOT
ATOM      1  N   UNL     1       0.167  10.087  19.603  0.00  0.00    +0.000 N 
ATOM      2  C   UNL     1       0.487  11.219  20.439  0.00  0.00    +0.000 C 
ATOM      3  O   UNL     1       1.556  11.326  21.033  0.00  0.00    +0.000 OA
ENDROOT
BRANCH   2   4
ATOM      4  C   UNL     1      -0.506  12.384  20.555  0.00  0.00    +0.000 A 
ATOM      5  C   UNL     1      -1.707  12.137  21.220  0.00  0.00    +0.000 A 
ATOM      6  C   UNL     1      -2.468  13.183  21.717  0.00  0.00    +0.000 A 
ATOM      7  N   UNL     1      -2.110  14.460  21.473  0.00  0.00    +0.000 NA
ATOM      8  C   UNL     1      -1.077  14.712  20.663  0.00  0.00    +0.000 A 
ATOM      9  C   UNL     1      -0.805  16.048  20.420  0.00  0.00    +0.000 A 
ATOM     10  C   UNL     1       0.202  16.440  19.547  0.00  0.00    +0.000 A 
ATOM     11  C   UNL     1       0.890  15.469  18.834  0.00  0.00    +0.000 A 
ATOM     12  C   UNL     1       0.681  14.113  19.118  0.00  0.00    +0.000 A 
ATOM     13  C   UNL     1      -0.264  13.706  20.094  0.00  0.00    +0.000 A 
BRANCH   6  14
ATOM     14  C   UNL     1      -3.629  12.993  22.610  0.00  0.00    +0.000 A 
ATOM     15  C   UNL     1      -3.471  12.514  23.927  0.00  0.00    +0.000 A 
ATOM     16  C   UNL     1      -4.562  12.314  24.776  0.00  0.00    +0.000 A 
ATOM     17  C   UNL     1      -5.853  12.581  24.324  0.00  0.00    +0.000 A 
ATOM     18  C   UNL     1      -6.043  13.049  23.028  0.00  0.00    +0.000 A 
ATOM     19  C   UNL     1      -4.951  13.253  22.188  0.00  0.00    +0.000 A 
ENDBRANCH   6  14
ENDBRANCH   2   4
BRANCH   1  22
ATOM     20  N   UNL     1       2.383   7.077  19.520  0.00  0.00    +0.000 N 
ATOM     21  C   UNL     1       1.423   8.009  19.953  0.00  0.00    +0.000 A 
ATOM     22  C   UNL     1       1.193   9.159  19.273  0.00  0.00    +0.000 A 
ATOM     23  C   UNL     1       2.041   9.428  18.065  0.00  0.00    +0.000 A 
ATOM     24  O   UNL     1       1.867  10.407  17.340  0.00  0.00    +0.000 OA
ATOM     25  N   UNL     1       3.017   8.513  17.782  0.00  0.00    +0.000 N 
ATOM     26  C   UNL     1       3.180   7.304  18.397  0.00  0.00    +0.000 A 
ATOM     27  O   UNL     1       3.998   6.492  17.941  0.00  0.00    +0.000 OA
ATOM     28  H   UNL     1       3.574   8.671  16.962  0.00  0.00    +0.000 HD
BRANCH  21  29
ATOM     29  N   UNL     1       0.696   7.740  21.120  0.00  0.00    +0.000 N 
ATOM     30  H   UNL     1       1.319   7.648  21.921  0.00  0.00    +0.000 HD
ATOM     31  H   UNL     1       0.140   6.908  21.018  0.00  0.00    +0.000 HD
ENDBRANCH  21  29
BRANCH  20  32
ATOM     32  C   UNL     1       2.616   5.811  20.238  0.00  0.00    +0.000 C 
BRANCH  32  33
ATOM     33  C   UNL     1       1.871   4.611  19.624  0.00  0.00    +0.000 C 
BRANCH  33  35
ATOM     34  C   UNL     1       1.669   2.745  21.336  0.00  0.00    +0.000 C 
ATOM     35  C   UNL     1       0.971   3.916  20.656  0.00  0.00    +0.000 C 
ENDBRANCH  33  35
ENDBRANCH  32  33
ENDBRANCH  20  32
ENDBRANCH   1  22
BRANCH   1  36
ATOM     36  C   UNL     1      -1.150   9.986  18.936  0.00  0.00    +0.000 C 
BRANCH  36  37
ATOM     37  C   UNL     1      -1.531  10.588  17.578  0.00  0.00    +0.000 C 
BRANCH  37  38
ATOM     38  O   UNL     1      -2.581   9.940  16.874  0.00  0.00    +0.000 OA
ATOM     39  C   UNL     1      -2.743  10.373  15.527  0.00  0.00    +0.000 C 
ENDBRANCH  37  38
ENDBRANCH  36  37
ENDBRANCH   1  36
TORSDOF 10
ENDMDL
MODEL 4
REMARK VINA RESULT:      -6.7      1.877      4.104
REMARK  Name = 
REMARK  12 active torsions:
REMARK  status: ('A' for Active; 'I' for Inactive)
REMARK    1  A    between atoms: C_1  and  C_2
REMARK    2  A    between atoms: C_2  and  C_3
REMARK    3  A    between atoms: C_3  and  C_4
REMARK    4  A    between atoms: C_4  and  N_5
REMARK    5  A    between atoms: C_6  and  N_7
REMARK    6  A    between atoms: C_8  and  N_9
REMARK    7  A    between atoms: N_9  and  C_10
REMARK    8  A    between atoms: C_10  and  C_11
REMARK    9  A    between atoms: C_11  and  O_12
REMARK   10  A    between atoms: O_12  and  C_13
REMARK   11  A    between atoms: C_14  and  C_16
REMARK   12  A    between atoms: C_18  and  C_19
REMARK                            x       y       z     vdW  Elec       q    Type
REMARK                         _______ _______ _______ _____ _____    ______ ____
ROOT
ATOM      1  N   UNL     1       0.630   9.901  19.713  0.00  0.00    +0.000 N 
ATOM      2  C   UNL     1       0.790  10.554  20.990  0.00  0.00    +0.000 C 
ATOM      3  O   UNL     1       1.488  10.092  21.889  0.00  0.00    +0.000 OA
ENDROOT
BRANCH   2   4
ATOM      4  C   UNL     1       0.126  11.916  21.238  0.00  0.00    +0.000 A 
ATOM      5  C   UNL     1      -1.224  11.914  21.587  0.00  0.00    +0.000 A 
ATOM      6  C   UNL     1      -1.796  13.015  22.205  0.00  0.00    +0.000 A 
ATOM      7  N   UNL     1      -1.079  14.143  22.384  0.00  0.00    +0.000 NA
ATOM      8  C   UNL     1       0.151  14.231  21.870  0.00  0.00    +0.000 A 
ATOM      9  C   UNL     1       0.802  15.439  22.050  0.00  0.00    +0.000 A 
ATOM     10  C   UNL     1       2.060  15.678  21.509  0.00  0.00    +0.000 A 
ATOM     11  C   UNL     1       2.636  14.714  20.693  0.00  0.00    +0.000 A 
ATOM     12  C   UNL     1       2.028  13.459  20.558  0.00  0.00    +0.000 A 
ATOM     13  C   UNL     1       0.799  13.166  21.203  0.00  0.00    +0.000 A 
BRANCH   6  14
ATOM     14  C   UNL     1      -3.152  13.006  22.792  0.00  0.00    +0.000 A 
ATOM     15  C   UNL     1      -4.235  13.638  22.146  0.00  0.00    +0.000 A 
ATOM     16  C   UNL     1      -5.518  13.651  22.698  0.00  0.00    +0.000 A 
ATOM     17  C   UNL     1      -5.752  13.036  23.926  0.00  0.00    +0.000 A 
ATOM     18  C   UNL     1      -4.704  12.410  24.591  0.00  0.00    +0.000 A 
ATOM     19  C   UNL     1      -3.428  12.394  24.033  0.00  0.00    +0.000 A 
ENDBRANCH   6  14
ENDBRANCH   2   4
BRANCH   1  22
ATOM     20  N   UNL     1       2.253   6.534  19.643  0.00  0.00    +0.000 N 
ATOM     21  C   UNL     1       1.480   7.628  20.071  0.00  0.00    +0.000 A 
ATOM     22  C   UNL     1       1.468   8.799  19.388  0.00  0.00    +0.000 A 
ATOM     23  C   UNL     1       2.355   8.905  18.183  0.00  0.00    +0.000 A 
ATOM     24  O   UNL     1       2.367   9.897  17.455  0.00  0.00    +0.000 OA
ATOM     25  N   UNL     1       3.147   7.825  17.905  0.00  0.00    +0.000 N 
ATOM     26  C   UNL     1       3.081   6.608  18.523  0.00  0.00    +0.000 A 
ATOM     27  O   UNL     1       3.737   5.658  18.072  0.00  0.00    +0.000 OA
ATOM     28  H   UNL     1       3.726   7.875  17.088  0.00  0.00    +0.000 HD
BRANCH  21  29
ATOM     29  N   UNL     1       0.711   7.502  21.236  0.00  0.00    +0.000 N 
ATOM     30  H   UNL     1       1.297   7.242  22.029  0.00  0.00    +0.000 HD
ATOM     31  H   UNL     1      -0.024   6.826  21.113  0.00  0.00    +0.000 HD
ENDBRANCH  21  29
BRANCH  20  32
ATOM     32  C   UNL     1       2.245   5.250  20.364  0.00  0.00    +0.000 C 
BRANCH  32  33
ATOM     33  C   UNL     1       1.160   4.274  19.871  0.00  0.00    +0.000 C 
BRANCH  33  35
ATOM     34  C   UNL     1       2.275   2.933  21.718  0.00  0.00    +0.000 C 
ATOM     35  C   UNL     1       1.233   2.928  20.608  0.00  0.00    +0.000 C 
ENDBRANCH  33  35
ENDBRANCH  32  33
ENDBRANCH  20  32
ENDBRANCH   1  22
BRANCH   1  36
ATOM     36  C   UNL     1      -0.251  10.480  18.673  0.00  0.00    +0.000 C 
BRANCH  36  37
ATOM     37  C   UNL     1      -1.650   9.984  18.288  0.00  0.00    +0.000 C 
BRANCH  37  38
ATOM     38  O   UNL     1      -1.909   9.845  16.897  0.00  0.00    +0.000 OA
ATOM     39  C   UNL     1      -3.273  10.029  16.530  0.00  0.00    +0.000 C 
ENDBRANCH  37  38
ENDBRANCH  36  37
ENDBRANCH   1  36
TORSDOF 10
ENDMDL
MODEL 5
REMARK VINA RESULT:      -6.7      1.874      2.707
REMARK  Name = 
REMARK  12 active torsions:
REMARK  status: ('A' for Active; 'I' for Inactive)
REMARK    1  A    between atoms: C_1  and  C_2
REMARK    2  A    between atoms: C_2  and  C_3
REMARK    3  A    between atoms: C_3  and  C_4
REMARK    4  A    between atoms: C_4  and  N_5
REMARK    5  A    between atoms: C_6  and  N_7
REMARK    6  A    between atoms: C_8  and  N_9
REMARK    7  A    between atoms: N_9  and  C_10
REMARK    8  A    between atoms: C_10  and  C_11
REMARK    9  A    between atoms: C_11  and  O_12
REMARK   10  A    between atoms: O_12  and  C_13
REMARK   11  A    between atoms: C_14  and  C_16
REMARK   12  A    between atoms: C_18  and  C_19
REMARK                            x       y       z     vdW  Elec       q    Type
REMARK                         _______ _______ _______ _____ _____    ______ ____
ROOT
ATOM      1  N   UNL     1       0.098  11.269  20.612  0.00  0.00    +0.000 N 
ATOM      2  C   UNL     1       0.936  12.379  20.994  0.00  0.00    +0.000 C 
ATOM      3  O   UNL     1       2.125  12.249  21.275  0.00  0.00    +0.000 OA
ENDROOT
BRANCH   2   4
ATOM      4  C   UNL     1       0.361  13.803  20.996  0.00  0.00    +0.000 A 
ATOM      5  C   UNL     1       0.836  14.685  20.026  0.00  0.00    +0.000 A 
ATOM      6  C   UNL     1       0.118  15.823  19.694  0.00  0.00    +0.000 A 
ATOM      7  N   UNL     1      -0.999  16.147  20.378  0.00  0.00    +0.000 NA
ATOM      8  C   UNL     1      -1.352  15.423  21.444  0.00  0.00    +0.000 A 
ATOM      9  C   UNL     1      -2.480  15.850  22.124  0.00  0.00    +0.000 A 
ATOM     10  C   UNL     1      -2.914  15.220  23.285  0.00  0.00    +0.000 A 
ATOM     11  C   UNL     1      -2.146  14.197  23.822  0.00  0.00    +0.000 A 
ATOM     12  C   UNL     1      -1.044  13.702  23.113  0.00  0.00    +0.000 A 
ATOM     13  C   UNL     1      -0.662  14.264  21.867  0.00  0.00    +0.000 A 
BRANCH   6  14
ATOM     14  C   UNL     1       0.444  16.684  18.538  0.00  0.00    +0.000 A 
ATOM     15  C   UNL     1      -0.556  17.410  17.858  0.00  0.00    +0.000 A 
ATOM     16  C   UNL     1      -0.263  18.213  16.754  0.00  0.00    +0.000 A 
ATOM     17  C   UNL     1       1.048  18.308  16.291  0.00  0.00    +0.000 A 
ATOM     18  C   UNL     1       2.056  17.600  16.936  0.00  0.00    +0.000 A 
ATOM     19  C   UNL     1       1.759  16.804  18.041  0.00  0.00    +0.000 A 
ENDBRANCH   6  14
ENDBRANCH   2   4
BRANCH   1  22
ATOM     20  N   UNL     1       1.869   8.439  18.930  0.00  0.00    +0.000 N 
ATOM     21  C   UNL     1       1.191   9.656  19.122  0.00  0.00    +0.000 A 
ATOM     22  C   UNL     1       0.699  10.010  20.335  0.00  0.00    +0.000 A 
ATOM     23  C   UNL     1       0.858   9.029  21.458  0.00  0.00    +0.000 A 
ATOM     24  O   UNL     1       0.509   9.281  22.611  0.00  0.00    +0.000 OA
ATOM     25  N   UNL     1       1.439   7.830  21.150  0.00  0.00    +0.000 N 
ATOM     26  C   UNL     1       2.033   7.513  19.961  0.00  0.00    +0.000 A 
ATOM     27  O   UNL     1       2.670   6.455  19.860  0.00  0.00    +0.000 OA
ATOM     28  H   UNL     1       1.572   7.176  21.899  0.00  0.00    +0.000 HD
BRANCH  21  29
ATOM     29  N   UNL     1       1.016  10.514  18.028  0.00  0.00    +0.000 N 
ATOM     30  H   UNL     1       1.588  11.351  18.131  0.00  0.00    +0.000 HD
ATOM     31  H   UNL     1       0.049  10.768  17.918  0.00  0.00    +0.000 HD
ENDBRANCH  21  29
BRANCH  20  32
ATOM     32  C   UNL     1       2.433   8.062  17.622  0.00  0.00    +0.000 C 
BRANCH  32  33
ATOM     33  C   UNL     1       3.967   7.927  17.629  0.00  0.00    +0.000 C 
BRANCH  33  35
ATOM     34  C   UNL     1       4.194   5.442  17.158  0.00  0.00    +0.000 C 
ATOM     35  C   UNL     1       4.445   6.852  16.642  0.00  0.00    +0.000 C 
ENDBRANCH  33  35
ENDBRANCH  32  33
ENDBRANCH  20  32
ENDBRANCH   1  22
BRANCH   1  36
ATOM     36  C   UNL     1      -1.339  11.472  20.318  0.00  0.00    +0.000 C 
BRANCH  36  37
ATOM     37  C   UNL     1      -1.927  12.132  19.066  0.00  0.00    +0.000 C 
BRANCH  37  38
ATOM     38  O   UNL     1      -1.762  11.427  17.844  0.00  0.00    +0.000 OA
ATOM     39  C   UNL     1      -2.974  11.177  17.138  0.00  0.00    +0.000 C 
ENDBRANCH  37  38
ENDBRANCH  36  37
ENDBRANCH   1  36
TORSDOF 10
ENDMDL
MODEL 6
REMARK VINA RESULT:      -6.6      4.592      8.964
REMARK  Name = 
REMARK  12 active torsions:
REMARK  status: ('A' for Active; 'I' for Inactive)
REMARK    1  A    between atoms: C_1  and  C_2
REMARK    2  A    between atoms: C_2  and  C_3
REMARK    3  A    between atoms: C_3  and  C_4
REMARK    4  A    between atoms: C_4  and  N_5
REMARK    5  A    between atoms: C_6  and  N_7
REMARK    6  A    between atoms: C_8  and  N_9
REMARK    7  A    between atoms: N_9  and  C_10
REMARK    8  A    between atoms: C_10  and  C_11
REMARK    9  A    between atoms: C_11  and  O_12
REMARK   10  A    between atoms: O_12  and  C_13
REMARK   11  A    between atoms: C_14  and  C_16
REMARK   12  A    between atoms: C_18  and  C_19
REMARK                            x       y       z     vdW  Elec       q    Type
REMARK                         _______ _______ _______ _____ _____    ______ ____
ROOT
ATOM      1  N   UNL     1       5.432   5.241  17.279  0.00  0.00    +0.000 N 
ATOM      2  C   UNL     1       4.181   5.956  17.354  0.00  0.00    +0.000 C 
ATOM      3  O   UNL     1       3.710   6.574  16.403  0.00  0.00    +0.000 OA
ENDROOT
BRANCH   2   4
ATOM      4  C   UNL     1       3.351   5.905  18.645  0.00  0.00    +0.000 A 
ATOM      5  C   UNL     1       2.971   7.123  19.209  0.00  0.00    +0.000 A 
ATOM      6  C   UNL     1       1.920   7.187  20.111  0.00  0.00    +0.000 A 
ATOM      7  N   UNL     1       1.318   6.057  20.534  0.00  0.00    +0.000 NA
ATOM      8  C   UNL     1       1.806   4.870  20.162  0.00  0.00    +0.000 A 
ATOM      9  C   UNL     1       1.166   3.758  20.681  0.00  0.00    +0.000 A 
ATOM     10  C   UNL     1       1.616   2.469  20.420  0.00  0.00    +0.000 A 
ATOM     11  C   UNL     1       2.788   2.299  19.697  0.00  0.00    +0.000 A 
ATOM     12  C   UNL     1       3.409   3.405  19.102  0.00  0.00    +0.000 A 
ATOM     13  C   UNL     1       2.889   4.714  19.267  0.00  0.00    +0.000 A 
BRANCH   6  14
ATOM     14  C   UNL     1       1.327   8.455  20.581  0.00  0.00    +0.000 A 
ATOM     15  C   UNL     1       1.059   9.515  19.690  0.00  0.00    +0.000 A 
ATOM     16  C   UNL     1       0.514  10.725  20.124  0.00  0.00    +0.000 A 
ATOM     17  C   UNL     1       0.226  10.913  21.475  0.00  0.00    +0.000 A 
ATOM     18  C   UNL     1       0.485   9.890  22.380  0.00  0.00    +0.000 A 
ATOM     19  C   UNL     1       1.023   8.683  21.940  0.00  0.00    +0.000 A 
ENDBRANCH   6  14
ENDBRANCH   2   4
BRANCH   1  22
ATOM     20  N   UNL     1       6.160   4.151  13.778  0.00  0.00    +0.000 N 
ATOM     21  C   UNL     1       5.571   4.220  15.053  0.00  0.00    +0.000 A 
ATOM     22  C   UNL     1       6.047   5.054  16.011  0.00  0.00    +0.000 A 
ATOM     23  C   UNL     1       7.265   5.864  15.678  0.00  0.00    +0.000 A 
ATOM     24  O   UNL     1       7.735   6.698  16.450  0.00  0.00    +0.000 OA
ATOM     25  N   UNL     1       7.827   5.653  14.450  0.00  0.00    +0.000 N 
ATOM     26  C   UNL     1       7.289   4.899  13.444  0.00  0.00    +0.000 A 
ATOM     27  O   UNL     1       7.812   4.918  12.321  0.00  0.00    +0.000 OA
ATOM     28  H   UNL     1       8.628   6.207  14.207  0.00  0.00    +0.000 HD
BRANCH  21  29
ATOM     29  N   UNL     1       4.470   3.401  15.337  0.00  0.00    +0.000 N 
ATOM     30  H   UNL     1       4.662   2.803  16.140  0.00  0.00    +0.000 HD
ATOM     31  H   UNL     1       4.221   2.839  14.540  0.00  0.00    +0.000 HD
ENDBRANCH  21  29
BRANCH  20  32
ATOM     32  C   UNL     1       5.627   3.271  12.724  0.00  0.00    +0.000 C 
BRANCH  32  33
ATOM     33  C   UNL     1       4.548   3.939  11.852  0.00  0.00    +0.000 C 
BRANCH  33  35
ATOM     34  C   UNL     1       3.051   3.586   9.831  0.00  0.00    +0.000 C 
ATOM     35  C   UNL     1       3.835   2.919  10.953  0.00  0.00    +0.000 C 
ENDBRANCH  33  35
ENDBRANCH  32  33
ENDBRANCH  20  32
ENDBRANCH   1  22
BRANCH   1  36
ATOM     36  C   UNL     1       5.976   4.542  18.465  0.00  0.00    +0.000 C 
BRANCH  36  37
ATOM     37  C   UNL     1       6.642   5.197  19.681  0.00  0.00    +0.000 C 
BRANCH  37  38
ATOM     38  O   UNL     1       8.037   5.451  19.576  0.00  0.00    +0.000 OA
ATOM     39  C   UNL     1       8.366   6.775  19.166  0.00  0.00    +0.000 C 
ENDBRANCH  37  38
ENDBRANCH  36  37
ENDBRANCH   1  36
TORSDOF 10
ENDMDL
MODEL 7
REMARK VINA RESULT:      -6.6      1.857      4.094
REMARK  Name = 
REMARK  12 active torsions:
REMARK  status: ('A' for Active; 'I' for Inactive)
REMARK    1  A    between atoms: C_1  and  C_2
REMARK    2  A    between atoms: C_2  and  C_3
REMARK    3  A    between atoms: C_3  and  C_4
REMARK    4  A    between atoms: C_4  and  N_5
REMARK    5  A    between atoms: C_6  and  N_7
REMARK    6  A    between atoms: C_8  and  N_9
REMARK    7  A    between atoms: N_9  and  C_10
REMARK    8  A    between atoms: C_10  and  C_11
REMARK    9  A    between atoms: C_11  and  O_12
REMARK   10  A    between atoms: O_12  and  C_13
REMARK   11  A    between atoms: C_14  and  C_16
REMARK   12  A    between atoms: C_18  and  C_19
REMARK                            x       y       z     vdW  Elec       q    Type
REMARK                         _______ _______ _______ _____ _____    ______ ____
ROOT
ATOM      1  N   UNL     1       0.591   9.887  19.754  0.00  0.00    +0.000 N 
ATOM      2  C   UNL     1       0.774  10.578  21.008  0.00  0.00    +0.000 C 
ATOM      3  O   UNL     1       1.496  10.149  21.903  0.00  0.00    +0.000 OA
ENDROOT
BRANCH   2   4
ATOM      4  C   UNL     1       0.102  11.940  21.232  0.00  0.00    +0.000 A 
ATOM      5  C   UNL     1      -1.247  11.936  21.585  0.00  0.00    +0.000 A 
ATOM      6  C   UNL     1      -1.824  13.046  22.183  0.00  0.00    +0.000 A 
ATOM      7  N   UNL     1      -1.114  14.181  22.339  0.00  0.00    +0.000 NA
ATOM      8  C   UNL     1       0.114  14.267  21.820  0.00  0.00    +0.000 A 
ATOM      9  C   UNL     1       0.759  15.482  21.976  0.00  0.00    +0.000 A 
ATOM     10  C   UNL     1       2.014  15.718  21.427  0.00  0.00    +0.000 A 
ATOM     11  C   UNL     1       2.593  14.743  20.628  0.00  0.00    +0.000 A 
ATOM     12  C   UNL     1       1.993  13.482  20.518  0.00  0.00    +0.000 A 
ATOM     13  C   UNL     1       0.768  13.194  21.172  0.00  0.00    +0.000 A 
BRANCH   6  14
ATOM     14  C   UNL     1      -3.178  13.040  22.774  0.00  0.00    +0.000 A 
ATOM     15  C   UNL     1      -3.433  12.429  24.020  0.00  0.00    +0.000 A 
ATOM     16  C   UNL     1      -4.711  12.402  24.582  0.00  0.00    +0.000 A 
ATOM     17  C   UNL     1      -5.781  12.983  23.903  0.00  0.00    +0.000 A 
ATOM     18  C   UNL     1      -5.564  13.588  22.670  0.00  0.00    +0.000 A 
ATOM     19  C   UNL     1      -4.286  13.617  22.118  0.00  0.00    +0.000 A 
ENDBRANCH   6  14
ENDBRANCH   2   4
BRANCH   1  22
ATOM     20  N   UNL     1       2.251   6.538  19.749  0.00  0.00    +0.000 N 
ATOM     21  C   UNL     1       1.478   7.637  20.162  0.00  0.00    +0.000 A 
ATOM     22  C   UNL     1       1.432   8.784  19.441  0.00  0.00    +0.000 A 
ATOM     23  C   UNL     1       2.283   8.859  18.208  0.00  0.00    +0.000 A 
ATOM     24  O   UNL     1       2.263   9.826  17.448  0.00  0.00    +0.000 OA
ATOM     25  N   UNL     1       3.079   7.779  17.943  0.00  0.00    +0.000 N 
ATOM     26  C   UNL     1       3.046   6.583  18.603  0.00  0.00    +0.000 A 
ATOM     27  O   UNL     1       3.700   5.626  18.164  0.00  0.00    +0.000 OA
ATOM     28  H   UNL     1       3.634   7.808  17.108  0.00  0.00    +0.000 HD
BRANCH  21  29
ATOM     29  N   UNL     1       0.744   7.541  21.353  0.00  0.00    +0.000 N 
ATOM     30  H   UNL     1       0.925   6.652  21.817  0.00  0.00    +0.000 HD
ATOM     31  H   UNL     1      -0.242   7.648  21.181  0.00  0.00    +0.000 HD
ENDBRANCH  21  29
BRANCH  20  32
ATOM     32  C   UNL     1       2.279   5.278  20.512  0.00  0.00    +0.000 C 
BRANCH  32  33
ATOM     33  C   UNL     1       1.017   4.416  20.323  0.00  0.00    +0.000 C 
BRANCH  33  35
ATOM     34  C   UNL     1       0.943   2.416  18.760  0.00  0.00    +0.000 C 
ATOM     35  C   UNL     1       1.368   2.934  20.127  0.00  0.00    +0.000 C 
ENDBRANCH  33  35
ENDBRANCH  32  33
ENDBRANCH  20  32
ENDBRANCH   1  22
BRANCH   1  36
ATOM     36  C   UNL     1      -0.319  10.427  18.719  0.00  0.00    +0.000 C 
BRANCH  36  37
ATOM     37  C   UNL     1      -1.774  10.007  18.477  0.00  0.00    +0.000 C 
BRANCH  37  38
ATOM     38  O   UNL     1      -2.731  11.055  18.415  0.00  0.00    +0.000 OA
ATOM     39  C   UNL     1      -3.946  10.706  17.759  0.00  0.00    +0.000 C 
ENDBRANCH  37  38
ENDBRANCH  36  37
ENDBRANCH   1  36
TORSDOF 10
ENDMDL
MODEL 8
REMARK VINA RESULT:      -6.5      1.435      4.008
REMARK  Name = 
REMARK  12 active torsions:
REMARK  status: ('A' for Active; 'I' for Inactive)
REMARK    1  A    between atoms: C_1  and  C_2
REMARK    2  A    between atoms: C_2  and  C_3
REMARK    3  A    between atoms: C_3  and  C_4
REMARK    4  A    between atoms: C_4  and  N_5
REMARK    5  A    between atoms: C_6  and  N_7
REMARK    6  A    between atoms: C_8  and  N_9
REMARK    7  A    between atoms: N_9  and  C_10
REMARK    8  A    between atoms: C_10  and  C_11
REMARK    9  A    between atoms: C_11  and  O_12
REMARK   10  A    between atoms: O_12  and  C_13
REMARK   11  A    between atoms: C_14  and  C_16
REMARK   12  A    between atoms: C_18  and  C_19
REMARK                            x       y       z     vdW  Elec       q    Type
REMARK                         _______ _______ _______ _____ _____    ______ ____
ROOT
ATOM      1  N   UNL     1       0.844   9.975  19.630  0.00  0.00    +0.000 N 
ATOM      2  C   UNL     1       1.231  10.803  20.746  0.00  0.00    +0.000 C 
ATOM      3  O   UNL     1       2.011  10.424  21.616  0.00  0.00    +0.000 OA
ENDROOT
BRANCH   2   4
ATOM      4  C   UNL     1       0.712  12.245  20.841  0.00  0.00    +0.000 A 
ATOM      5  C   UNL     1      -0.305  12.499  21.761  0.00  0.00    +0.000 A 
ATOM      6  C   UNL     1      -0.555  13.790  22.199  0.00  0.00    +0.000 A 
ATOM      7  N   UNL     1       0.114  14.832  21.664  0.00  0.00    +0.000 NA
ATOM      8  C   UNL     1       0.942  14.625  20.636  0.00  0.00    +0.000 A 
ATOM      9  C   UNL     1       1.551  15.751  20.108  0.00  0.00    +0.000 A 
ATOM     10  C   UNL     1       2.385  15.676  18.999  0.00  0.00    +0.000 A 
ATOM     11  C   UNL     1       2.538  14.458  18.352  0.00  0.00    +0.000 A 
ATOM     12  C   UNL     1       1.992  13.296  18.912  0.00  0.00    +0.000 A 
ATOM     13  C   UNL     1       1.235  13.346  20.111  0.00  0.00    +0.000 A 
BRANCH   6  14
ATOM     14  C   UNL     1      -1.463  14.108  23.321  0.00  0.00    +0.000 A 
ATOM     15  C   UNL     1      -2.720  13.481  23.447  0.00  0.00    +0.000 A 
ATOM     16  C   UNL     1      -3.594  13.785  24.494  0.00  0.00    +0.000 A 
ATOM     17  C   UNL     1      -3.235  14.737  25.445  0.00  0.00    +0.000 A 
ATOM     18  C   UNL     1      -2.004  15.377  25.345  0.00  0.00    +0.000 A 
ATOM     19  C   UNL     1      -1.134  15.066  24.303  0.00  0.00    +0.000 A 
ENDBRANCH   6  14
ENDBRANCH   2   4
BRANCH   1  22
ATOM     20  N   UNL     1       2.123   6.471  19.886  0.00  0.00    +0.000 N 
ATOM     21  C   UNL     1       1.496   7.685  20.220  0.00  0.00    +0.000 A 
ATOM     22  C   UNL     1       1.543   8.759  19.394  0.00  0.00    +0.000 A 
ATOM     23  C   UNL     1       2.337   8.623  18.129  0.00  0.00    +0.000 A 
ATOM     24  O   UNL     1       2.387   9.513  17.281  0.00  0.00    +0.000 OA
ATOM     25  N   UNL     1       2.996   7.440  17.941  0.00  0.00    +0.000 N 
ATOM     26  C   UNL     1       2.863   6.320  18.713  0.00  0.00    +0.000 A 
ATOM     27  O   UNL     1       3.386   5.259  18.345  0.00  0.00    +0.000 OA
ATOM     28  H   UNL     1       3.511   7.329  17.086  0.00  0.00    +0.000 HD
BRANCH  21  29
ATOM     29  N   UNL     1       0.814   7.782  21.440  0.00  0.00    +0.000 N 
ATOM     30  H   UNL     1       1.263   7.209  22.153  0.00  0.00    +0.000 HD
ATOM     31  H   UNL     1      -0.151   7.515  21.339  0.00  0.00    +0.000 HD
ENDBRANCH  21  29
BRANCH  20  32
ATOM     32  C   UNL     1       2.048   5.292  20.765  0.00  0.00    +0.000 C 
BRANCH  32  33
ATOM     33  C   UNL     1       0.871   4.355  20.439  0.00  0.00    +0.000 C 
BRANCH  33  35
ATOM     34  C   UNL     1       0.962   2.421  18.795  0.00  0.00    +0.000 C 
ATOM     35  C   UNL     1       1.346   2.917  20.182  0.00  0.00    +0.000 C 
ENDBRANCH  33  35
ENDBRANCH  32  33
ENDBRANCH  20  32
ENDBRANCH   1  22
BRANCH   1  36
ATOM     36  C   UNL     1      -0.129  10.464  18.627  0.00  0.00    +0.000 C 
BRANCH  36  37
ATOM     37  C   UNL     1      -1.651  10.543  18.798  0.00  0.00    +0.000 C 
BRANCH  37  38
ATOM     38  O   UNL     1      -2.401  10.853  17.632  0.00  0.00    +0.000 OA
ATOM     39  C   UNL     1      -3.236   9.796  17.169  0.00  0.00    +0.000 C 
ENDBRANCH  37  38
ENDBRANCH  36  37
ENDBRANCH   1  36
TORSDOF 10
ENDMDL
MODEL 9
REMARK VINA RESULT:      -6.4      2.114      4.182
REMARK  Name = 
REMARK  12 active torsions:
REMARK  status: ('A' for Active; 'I' for Inactive)
REMARK    1  A    between atoms: C_1  and  C_2
REMARK    2  A    between atoms: C_2  and  C_3
REMARK    3  A    between atoms: C_3  and  C_4
REMARK    4  A    between atoms: C_4  and  N_5
REMARK    5  A    between atoms: C_6  and  N_7
REMARK    6  A    between atoms: C_8  and  N_9
REMARK    7  A    between atoms: N_9  and  C_10
REMARK    8  A    between atoms: C_10  and  C_11
REMARK    9  A    between atoms: C_11  and  O_12
REMARK   10  A    between atoms: O_12  and  C_13
REMARK   11  A    between atoms: C_14  and  C_16
REMARK   12  A    between atoms: C_18  and  C_19
REMARK                            x       y       z     vdW  Elec       q    Type
REMARK                         _______ _______ _______ _____ _____    ______ ____
ROOT
ATOM      1  N   UNL     1       0.050  11.516  19.526  0.00  0.00    +0.000 N 
ATOM      2  C   UNL     1       0.784  12.640  20.056  0.00  0.00    +0.000 C 
ATOM      3  O   UNL     1       1.659  12.519  20.909  0.00  0.00    +0.000 OA
ENDROOT
BRANCH   2   4
ATOM      4  C   UNL     1       0.526  14.048  19.500  0.00  0.00    +0.000 A 
ATOM      5  C   UNL     1      -0.707  14.632  19.789  0.00  0.00    +0.000 A 
ATOM      6  C   UNL     1      -0.879  16.004  19.686  0.00  0.00    +0.000 A 
ATOM      7  N   UNL     1       0.113  16.780  19.205  0.00  0.00    +0.000 NA
ATOM      8  C   UNL     1       1.225  16.211  18.731  0.00  0.00    +0.000 A 
ATOM      9  C   UNL     1       2.175  17.071  18.207  0.00  0.00    +0.000 A 
ATOM     10  C   UNL     1       3.346  16.598  17.626  0.00  0.00    +0.000 A 
ATOM     11  C   UNL     1       3.524  15.229  17.489  0.00  0.00    +0.000 A 
ATOM     12  C   UNL     1       2.612  14.343  18.077  0.00  0.00    +0.000 A 
ATOM     13  C   UNL     1       1.472  14.820  18.774  0.00  0.00    +0.000 A 
BRANCH   6  14
ATOM     14  C   UNL     1      -2.080  16.713  20.176  0.00  0.00    +0.000 A 
ATOM     15  C   UNL     1      -2.520  17.911  19.575  0.00  0.00    +0.000 A 
ATOM     16  C   UNL     1      -3.644  18.599  20.039  0.00  0.00    +0.000 A 
ATOM     17  C   UNL     1      -4.358  18.108  21.131  0.00  0.00    +0.000 A 
ATOM     18  C   UNL     1      -3.945  16.933  21.748  0.00  0.00    +0.000 A 
ATOM     19  C   UNL     1      -2.828  16.247  21.277  0.00  0.00    +0.000 A 
ENDBRANCH   6  14
ENDBRANCH   2   4
BRANCH   1  22
ATOM     20  N   UNL     1       1.829   8.228  19.460  0.00  0.00    +0.000 N 
ATOM     21  C   UNL     1       1.349   9.487  19.059  0.00  0.00    +0.000 A 
ATOM     22  C   UNL     1       0.488  10.197  19.830  0.00  0.00    +0.000 A 
ATOM     23  C   UNL     1       0.022   9.565  21.107  0.00  0.00    +0.000 A 
ATOM     24  O   UNL     1      -0.703  10.150  21.910  0.00  0.00    +0.000 OA
ATOM     25  N   UNL     1       0.464   8.296  21.362  0.00  0.00    +0.000 N 
ATOM     26  C   UNL     1       1.414   7.622  20.646  0.00  0.00    +0.000 A 
ATOM     27  O   UNL     1       1.849   6.543  21.073  0.00  0.00    +0.000 OA
ATOM     28  H   UNL     1       0.178   7.872  22.226  0.00  0.00    +0.000 HD
BRANCH  21  29
ATOM     29  N   UNL     1       1.767  10.013  17.829  0.00  0.00    +0.000 N 
ATOM     30  H   UNL     1       2.701  10.411  17.905  0.00  0.00    +0.000 HD
ATOM     31  H   UNL     1       1.121  10.707  17.493  0.00  0.00    +0.000 HD
ENDBRANCH  21  29
BRANCH  20  32
ATOM     32  C   UNL     1       2.788   7.467  18.642  0.00  0.00    +0.000 C 
BRANCH  32  33
ATOM     33  C   UNL     1       2.124   6.410  17.740  0.00  0.00    +0.000 C 
BRANCH  33  35
ATOM     34  C   UNL     1       1.703   3.906  17.817  0.00  0.00    +0.000 C 
ATOM     35  C   UNL     1       2.735   5.017  17.956  0.00  0.00    +0.000 C 
ENDBRANCH  33  35
ENDBRANCH  32  33
ENDBRANCH  20  32
ENDBRANCH   1  22
BRANCH   1  36
ATOM     36  C   UNL     1      -1.021  11.716  18.524  0.00  0.00    +0.000 C 
BRANCH  36  37
ATOM     37  C   UNL     1      -2.068  10.683  18.092  0.00  0.00    +0.000 C 
BRANCH  37  38
ATOM     38  O   UNL     1      -1.747   9.897  16.953  0.00  0.00    +0.000 OA
ATOM     39  C   UNL     1      -2.715   9.946  15.910  0.00  0.00    +0.000 C 
ENDBRANCH  37  38
ENDBRANCH  36  37
ENDBRANCH   1  36
TORSDOF 10
ENDMDL
