MODEL 1
REMARK VINA RESULT:      -6.9      0.000      0.000
REMARK  Name = 
REMARK  7 active torsions:
REMARK  status: ('A' for Active; 'I' for Inactive)
REMARK    1  A    between atoms: C_1  and  O_2
REMARK    2  A    between atoms: O_2  and  C_3
REMARK    3  A    between atoms: C_3  and  C_5
REMARK    4  A    between atoms: C_8  and  C_9
REMARK    5  A    between atoms: C_10  and  N_11
REMARK    6  A    between atoms: C_12  and  C_14
REMARK    7  A    between atoms: C_18  and  C_19
REMARK                            x       y       z     vdW  Elec       q    Type
REMARK                         _______ _______ _______ _____ _____    ______ ____
ROOT
ATOM      1  N   UNL     1       2.927   6.365  19.834  0.00  0.00    +0.000 N 
ATOM      2  C   UNL     1       2.393   7.223  18.894  0.00  0.00    +0.000 C 
ATOM      3  O   UNL     1       2.433   7.105  17.677  0.00  0.00    +0.000 OA
ATOM      4  H   UNL     1       2.750   6.567  20.816  0.00  0.00    +0.000 HD
ENDROOT
BRANCH   1  10
ATOM      5  C   UNL     1       3.244   3.982  20.170  0.00  0.00    +0.000 A 
ATOM      6  S   UNL     1       4.287   2.678  19.792  0.00  0.00    +0.000 S 
ATOM      7  C   UNL     1       5.317   3.674  18.899  0.00  0.00    +0.000 A 
ATOM      8  C   UNL     1       4.909   4.995  18.860  0.00  0.00    +0.000 A 
ATOM      9  C   UNL     1       5.722   5.997  18.104  0.00  0.00    +0.000 C 
ATOM     10  C   UNL     1       3.678   5.190  19.610  0.00  0.00    +0.000 A 
BRANCH   5  11
ATOM     11  C   UNL     1       2.066   3.758  20.999  0.00  0.00    +0.000 C 
ATOM     12  O   UNL     1       2.107   3.416  22.179  0.00  0.00    +0.000 OA
BRANCH  11  14
ATOM     13  C   UNL     1       0.611   3.001  19.290  0.00  0.00    +0.000 C 
ATOM     14  O   UNL     1       0.908   3.962  20.302  0.00  0.00    +0.000 OA
ENDBRANCH  11  14
ENDBRANCH   5  11
ENDBRANCH   1  10
BRANCH   2  15
ATOM     15  C   UNL     1       1.686   8.441  19.389  0.00  0.00    +0.000 A 
ATOM     16  C   UNL     1       1.168   9.428  18.546  0.00  0.00    +0.000 A 
ATOM     17  C   UNL     1       0.402  10.468  19.085  0.00  0.00    +0.000 A 
ATOM     18  C   UNL     1       0.146  10.524  20.459  0.00  0.00    +0.000 A 
ATOM     19  C   UNL     1       0.669   9.549  21.310  0.00  0.00    +0.000 A 
ATOM     20  C   UNL     1       1.440   8.515  20.773  0.00  0.00    +0.000 A 
BRANCH  19  21
ATOM     21  C   UNL     1       0.396   9.586  22.717  0.00  0.00    +0.000 C 
ATOM     22  N   UNL     1       0.176   9.613  23.856  0.00  0.00    +0.000 NA
ENDBRANCH  19  21
ENDBRANCH   2  15
TORSDOF 5
ENDMDL
MODEL 2
REMARK VINA RESULT:      -6.6      1.946      3.736
REMARK  Name = 
REMARK  7 active torsions:
REMARK  status: ('A' for Active; 'I' for Inactive)
REMARK    1  A    between atoms: C_1  and  O_2
REMARK    2  A    between atoms: O_2  and  C_3
REMARK    3  A    between atoms: C_3  and  C_5
REMARK    4  A    between atoms: C_8  and  C_9
REMARK    5  A    between atoms: C_10  and  N_11
REMARK    6  A    between atoms: C_12  and  C_14
REMARK    7  A    between atoms: C_18  and  C_19
REMARK                            x       y       z     vdW  Elec       q    Type
REMARK                         _______ _______ _______ _____ _____    ______ ____
ROOT
ATOM      1  N   UNL     1       2.727   6.632  18.040  0.00  0.00    +0.000 N 
ATOM      2  C   UNL     1       2.331   7.023  19.303  0.00  0.00    +0.000 C 
ATOM      3  O   UNL     1       2.430   6.382  20.340  0.00  0.00    +0.000 OA
ATOM      4  H   UNL     1       2.640   7.310  17.285  0.00  0.00    +0.000 HD
ENDROOT
BRANCH   1  10
ATOM      5  C   UNL     1       4.473   5.385  16.906  0.00  0.00    +0.000 A 
ATOM      6  S   UNL     1       4.987   3.797  16.523  0.00  0.00    +0.000 S 
ATOM      7  C   UNL     1       3.666   3.108  17.316  0.00  0.00    +0.000 A 
ATOM      8  C   UNL     1       2.816   4.040  17.884  0.00  0.00    +0.000 A 
ATOM      9  C   UNL     1       1.601   3.578  18.622  0.00  0.00    +0.000 C 
ATOM     10  C   UNL     1       3.286   5.396  17.648  0.00  0.00    +0.000 A 
BRANCH   5  11
ATOM     11  C   UNL     1       5.251   6.533  16.454  0.00  0.00    +0.000 C 
ATOM     12  O   UNL     1       5.320   6.901  15.283  0.00  0.00    +0.000 OA
BRANCH  11  14
ATOM     13  C   UNL     1       7.275   6.788  17.656  0.00  0.00    +0.000 C 
ATOM     14  O   UNL     1       5.903   7.143  17.488  0.00  0.00    +0.000 OA
ENDBRANCH  11  14
ENDBRANCH   5  11
ENDBRANCH   1  10
BRANCH   2  15
ATOM     15  C   UNL     1       1.707   8.371  19.449  0.00  0.00    +0.000 A 
ATOM     16  C   UNL     1       1.471   9.233  18.374  0.00  0.00    +0.000 A 
ATOM     17  C   UNL     1       0.759  10.420  18.581  0.00  0.00    +0.000 A 
ATOM     18  C   UNL     1       0.278  10.748  19.852  0.00  0.00    +0.000 A 
ATOM     19  C   UNL     1       0.518   9.899  20.933  0.00  0.00    +0.000 A 
ATOM     20  C   UNL     1       1.235   8.718  20.729  0.00  0.00    +0.000 A 
BRANCH  19  21
ATOM     21  C   UNL     1       0.011  10.216  22.237  0.00  0.00    +0.000 C 
ATOM     22  N   UNL     1      -0.401  10.474  23.290  0.00  0.00    +0.000 NA
ENDBRANCH  19  21
ENDBRANCH   2  15
TORSDOF 5
ENDMDL
MODEL 3
REMARK VINA RESULT:      -6.6      1.267      1.592
REMARK  Name = 
REMARK  7 active torsions:
REMARK  status: ('A' for Active; 'I' for Inactive)
REMARK    1  A    between atoms: C_1  and  O_2
REMARK    2  A    between atoms: O_2  and  C_3
REMARK    3  A    between atoms: C_3  and  C_5
REMARK    4  A    between atoms: C_8  and  C_9
REMARK    5  A    between atoms: C_10  and  N_11
REMARK    6  A    between atoms: C_12  and  C_14
REMARK    7  A    between atoms: C_18  and  C_19
REMARK                            x       y       z     vdW  Elec       q    Type
REMARK                         _______ _______ _______ _____ _____    ______ ____
ROOT
ATOM      1  N   UNL     1       2.543   6.779  18.720  0.00  0.00    +0.000 N 
ATOM      2  C   UNL     1       2.266   7.976  18.092  0.00  0.00    +0.000 C 
ATOM      3  O   UNL     1       2.658   8.343  16.993  0.00  0.00    +0.000 OA
ATOM      4  H   UNL     1       2.083   6.592  19.609  0.00  0.00    +0.000 HD
ENDROOT
BRANCH   1  10
ATOM      5  C   UNL     1       2.898   4.415  18.300  0.00  0.00    +0.000 A 
ATOM      6  S   UNL     1       4.051   3.292  17.716  0.00  0.00    +0.000 S 
ATOM      7  C   UNL     1       5.183   4.508  17.418  0.00  0.00    +0.000 A 
ATOM      8  C   UNL     1       4.731   5.774  17.742  0.00  0.00    +0.000 A 
ATOM      9  C   UNL     1       5.624   6.954  17.531  0.00  0.00    +0.000 C 
ATOM     10  C   UNL     1       3.374   5.731  18.266  0.00  0.00    +0.000 A 
BRANCH   5  11
ATOM     11  C   UNL     1       1.597   3.950  18.767  0.00  0.00    +0.000 C 
ATOM     12  O   UNL     1       0.853   3.219  18.117  0.00  0.00    +0.000 OA
BRANCH  11  14
ATOM     13  C   UNL     1       1.576   3.559  21.102  0.00  0.00    +0.000 C 
ATOM     14  O   UNL     1       1.301   4.434  20.010  0.00  0.00    +0.000 OA
ENDBRANCH  11  14
ENDBRANCH   5  11
ENDBRANCH   1  10
BRANCH   2  15
ATOM     15  C   UNL     1       1.397   8.953  18.812  0.00  0.00    +0.000 A 
ATOM     16  C   UNL     1       0.509   9.819  18.166  0.00  0.00    +0.000 A 
ATOM     17  C   UNL     1      -0.365  10.607  18.923  0.00  0.00    +0.000 A 
ATOM     18  C   UNL     1      -0.362  10.531  20.320  0.00  0.00    +0.000 A 
ATOM     19  C   UNL     1       0.529   9.678  20.973  0.00  0.00    +0.000 A 
ATOM     20  C   UNL     1       1.407   8.897  20.218  0.00  0.00    +0.000 A 
BRANCH  19  21
ATOM     21  C   UNL     1       0.526   9.578  22.404  0.00  0.00    +0.000 C 
ATOM     22  N   UNL     1       0.524   9.500  23.562  0.00  0.00    +0.000 NA
ENDBRANCH  19  21
ENDBRANCH   2  15
TORSDOF 5
ENDMDL
MODEL 4
REMARK VINA RESULT:      -6.6      1.635      3.144
REMARK  Name = 
REMARK  7 active torsions:
REMARK  status: ('A' for Active; 'I' for Inactive)
REMARK    1  A    between atoms: C_1  and  O_2
REMARK    2  A    between atoms: O_2  and  C_3
REMARK    3  A    between atoms: C_3  and  C_5
REMARK    4  A    between atoms: C_8  and  C_9
REMARK    5  A    between atoms: C_10  and  N_11
REMARK    6  A    between atoms: C_12  and  C_14
REMARK    7  A    between atoms: C_18  and  C_19
REMARK                            x       y       z     vdW  Elec       q    Type
REMARK                         _______ _______ _______ _____ _____    ______ ____
ROOT
ATOM      1  N   UNL     1       2.682   6.041  19.974  0.00  0.00    +0.000 N 
ATOM      2  C   UNL     1       2.204   6.819  18.939  0.00  0.00    +0.000 C 
ATOM      3  O   UNL     1       2.043   6.482  17.774  0.00  0.00    +0.000 OA
ATOM      4  H   UNL     1       2.692   6.448  20.907  0.00  0.00    +0.000 HD
ENDROOT
BRANCH   1  10
ATOM      5  C   UNL     1       4.437   4.443  19.472  0.00  0.00    +0.000 A 
ATOM      6  S   UNL     1       4.799   2.769  19.471  0.00  0.00    +0.000 S 
ATOM      7  C   UNL     1       3.264   2.369  20.047  0.00  0.00    +0.000 A 
ATOM      8  C   UNL     1       2.450   3.468  20.255  0.00  0.00    +0.000 A 
ATOM      9  C   UNL     1       1.059   3.271  20.766  0.00  0.00    +0.000 C 
ATOM     10  C   UNL     1       3.137   4.705  19.919  0.00  0.00    +0.000 A 
BRANCH   5  11
ATOM     11  C   UNL     1       5.439   5.406  19.030  0.00  0.00    +0.000 C 
ATOM     12  O   UNL     1       5.302   6.145  18.057  0.00  0.00    +0.000 OA
BRANCH  11  14
ATOM     13  C   UNL     1       7.781   5.720  19.180  0.00  0.00    +0.000 C 
ATOM     14  O   UNL     1       6.552   5.381  19.821  0.00  0.00    +0.000 OA
ENDBRANCH  11  14
ENDBRANCH   5  11
ENDBRANCH   1  10
BRANCH   2  15
ATOM     15  C   UNL     1       1.839   8.233  19.245  0.00  0.00    +0.000 A 
ATOM     16  C   UNL     1       1.844   9.255  18.291  0.00  0.00    +0.000 A 
ATOM     17  C   UNL     1       1.358  10.523  18.631  0.00  0.00    +0.000 A 
ATOM     18  C   UNL     1       0.863  10.774  19.914  0.00  0.00    +0.000 A 
ATOM     19  C   UNL     1       0.865   9.763  20.876  0.00  0.00    +0.000 A 
ATOM     20  C   UNL     1       1.356   8.500  20.540  0.00  0.00    +0.000 A 
BRANCH  19  21
ATOM     21  C   UNL     1       0.340  10.005  22.190  0.00  0.00    +0.000 C 
ATOM     22  N   UNL     1      -0.084  10.196  23.252  0.00  0.00    +0.000 NA
ENDBRANCH  19  21
ENDBRANCH   2  15
TORSDOF 5
ENDMDL
MODEL 5
REMARK VINA RESULT:      -6.5      3.920      7.280
REMARK  Name = 
REMARK  7 active torsions:
REMARK  status: ('A' for Active; 'I' for Inactive)
REMARK    1  A    between atoms: C_1  and  O_2
REMARK    2  A    between atoms: O_2  and  C_3
REMARK    3  A    between atoms: C_3  and  C_5
REMARK    4  A    between atoms: C_8  and  C_9
REMARK    5  A    between atoms: C_10  and  N_11
REMARK    6  A    between atoms: C_12  and  C_14
REMARK    7  A    between atoms: C_18  and  C_19
REMARK                            x       y       z     vdW  Elec       q    Type
REMARK                         _______ _______ _______ _____ _____    ______ ____
ROOT
ATOM      1  N   UNL     1       0.423   9.348  19.118  0.00  0.00    +0.000 N 
ATOM      2  C   UNL     1       1.552   9.254  18.328  0.00  0.00    +0.000 C 
ATOM      3  O   UNL     1       1.935  10.057  17.488  0.00  0.00    +0.000 OA
ATOM      4  H   UNL     1       0.277   8.629  19.823  0.00  0.00    +0.000 HD
ENDROOT
BRANCH   1  10
ATOM      5  C   UNL     1      -0.603  11.293  20.143  0.00  0.00    +0.000 A 
ATOM      6  S   UNL     1      -1.873  12.426  19.952  0.00  0.00    +0.000 S 
ATOM      7  C   UNL     1      -2.388  11.705  18.515  0.00  0.00    +0.000 A 
ATOM      8  C   UNL     1      -1.630  10.609  18.145  0.00  0.00    +0.000 A 
ATOM      9  C   UNL     1      -1.967   9.867  16.892  0.00  0.00    +0.000 C 
ATOM     10  C   UNL     1      -0.565  10.357  19.104  0.00  0.00    +0.000 A 
BRANCH   5  11
ATOM     11  C   UNL     1       0.279  11.375  21.301  0.00  0.00    +0.000 C 
ATOM     12  O   UNL     1       0.866  12.398  21.649  0.00  0.00    +0.000 OA
BRANCH  11  14
ATOM     13  C   UNL     1      -0.474   9.995  23.071  0.00  0.00    +0.000 C 
ATOM     14  O   UNL     1       0.384  10.176  21.946  0.00  0.00    +0.000 OA
ENDBRANCH  11  14
ENDBRANCH   5  11
ENDBRANCH   1  10
BRANCH   2  15
ATOM     15  C   UNL     1       2.417   8.050  18.494  0.00  0.00    +0.000 A 
ATOM     16  C   UNL     1       2.275   7.136  19.542  0.00  0.00    +0.000 A 
ATOM     17  C   UNL     1       3.039   5.962  19.547  0.00  0.00    +0.000 A 
ATOM     18  C   UNL     1       3.937   5.696  18.510  0.00  0.00    +0.000 A 
ATOM     19  C   UNL     1       4.094   6.607  17.465  0.00  0.00    +0.000 A 
ATOM     20  C   UNL     1       3.338   7.782  17.464  0.00  0.00    +0.000 A 
BRANCH  19  21
ATOM     21  C   UNL     1       4.999   6.333  16.386  0.00  0.00    +0.000 C 
ATOM     22  N   UNL     1       5.729   6.115  15.512  0.00  0.00    +0.000 NA
ENDBRANCH  19  21
ENDBRANCH   2  15
TORSDOF 5
ENDMDL
MODEL 6
REMARK VINA RESULT:      -6.5      4.213      7.730
REMARK  Name = 
REMARK  7 active torsions:
REMARK  status: ('A' for Active; 'I' for Inactive)
REMARK    1  A    between atoms: C_1  and  O_2
REMARK    2  A    between atoms: O_2  and  C_3
REMARK    3  A    between atoms: C_3  and  C_5
REMARK    4  A    between atoms: C_8  and  C_9
REMARK    5  A    between atoms: C_10  and  N_11
REMARK    6  A    between atoms: C_12  and  C_14
REMARK    7  A    between atoms: C_18  and  C_19
REMARK                            x       y       z     vdW  Elec       q    Type
REMARK                         _______ _______ _______ _____ _____    ______ ____
ROOT
ATOM      1  N   UNL     1       4.251   4.266  16.677  0.00  0.00    +0.000 N 
ATOM      2  C   UNL     1       5.605   4.315  16.419  0.00  0.00    +0.000 C 
ATOM      3  O   UNL     1       6.515   4.281  17.236  0.00  0.00    +0.000 OA
ATOM      4  H   UNL     1       3.617   4.234  15.880  0.00  0.00    +0.000 HD
ENDROOT
BRANCH   1  10
ATOM      5  C   UNL     1       3.212   5.410  18.548  0.00  0.00    +0.000 A 
ATOM      6  S   UNL     1       2.456   5.143  20.061  0.00  0.00    +0.000 S 
ATOM      7  C   UNL     1       2.639   3.470  19.932  0.00  0.00    +0.000 A 
ATOM      8  C   UNL     1       3.263   3.072  18.763  0.00  0.00    +0.000 A 
ATOM      9  C   UNL     1       3.494   1.618  18.507  0.00  0.00    +0.000 C 
ATOM     10  C   UNL     1       3.606   4.216  17.933  0.00  0.00    +0.000 A 
BRANCH   5  11
ATOM     11  C   UNL     1       3.386   6.769  18.050  0.00  0.00    +0.000 C 
ATOM     12  O   UNL     1       4.212   7.090  17.198  0.00  0.00    +0.000 OA
BRANCH  11  14
ATOM     13  C   UNL     1       2.019   8.689  17.823  0.00  0.00    +0.000 C 
ATOM     14  O   UNL     1       2.528   7.645  18.652  0.00  0.00    +0.000 OA
ENDBRANCH  11  14
ENDBRANCH   5  11
ENDBRANCH   1  10
BRANCH   2  15
ATOM     15  C   UNL     1       6.038   4.425  14.995  0.00  0.00    +0.000 A 
ATOM     16  C   UNL     1       7.290   4.909  14.604  0.00  0.00    +0.000 A 
ATOM     17  C   UNL     1       7.665   4.851  13.256  0.00  0.00    +0.000 A 
ATOM     18  C   UNL     1       6.800   4.310  12.300  0.00  0.00    +0.000 A 
ATOM     19  C   UNL     1       5.543   3.836  12.680  0.00  0.00    +0.000 A 
ATOM     20  C   UNL     1       5.166   3.899  14.023  0.00  0.00    +0.000 A 
BRANCH  19  21
ATOM     21  C   UNL     1       4.657   3.260  11.710  0.00  0.00    +0.000 C 
ATOM     22  N   UNL     1       3.938   2.798  10.925  0.00  0.00    +0.000 NA
ENDBRANCH  19  21
ENDBRANCH   2  15
TORSDOF 5
ENDMDL
MODEL 7
REMARK VINA RESULT:      -6.5      3.983      7.436
REMARK  Name = 
REMARK  7 active torsions:
REMARK  status: ('A' for Active; 'I' for Inactive)
REMARK    1  A    between atoms: C_1  and  O_2
REMARK    2  A    between atoms: O_2  and  C_3
REMARK    3  A    between atoms: C_3  and  C_5
REMARK    4  A    between atoms: C_8  and  C_9
REMARK    5  A    between atoms: C_10  and  N_11
REMARK    6  A    between atoms: C_12  and  C_14
REMARK    7  A    between atoms: C_18  and  C_19
REMARK                            x       y       z     vdW  Elec       q    Type
REMARK                         _______ _______ _______ _____ _____    ______ ____
ROOT
ATOM      1  N   UNL     1       0.496   9.375  19.167  0.00  0.00    +0.000 N 
ATOM      2  C   UNL     1       1.603   9.252  18.352  0.00  0.00    +0.000 C 
ATOM      3  O   UNL     1       1.983  10.040  17.496  0.00  0.00    +0.000 OA
ATOM      4  H   UNL     1       0.353   8.663  19.881  0.00  0.00    +0.000 HD
ENDROOT
BRANCH   1  10
ATOM      5  C   UNL     1      -0.442  11.370  20.181  0.00  0.00    +0.000 A 
ATOM      6  S   UNL     1      -1.696  12.524  20.015  0.00  0.00    +0.000 S 
ATOM      7  C   UNL     1      -2.293  11.773  18.626  0.00  0.00    +0.000 A 
ATOM      8  C   UNL     1      -1.574  10.652  18.253  0.00  0.00    +0.000 A 
ATOM      9  C   UNL     1      -1.984   9.882  17.040  0.00  0.00    +0.000 C 
ATOM     10  C   UNL     1      -0.472  10.403  19.169  0.00  0.00    +0.000 A 
BRANCH   5  11
ATOM     11  C   UNL     1       0.495  11.466  21.294  0.00  0.00    +0.000 C 
ATOM     12  O   UNL     1       0.801  10.523  22.021  0.00  0.00    +0.000 OA
BRANCH  11  14
ATOM     13  C   UNL     1       2.026  13.106  20.536  0.00  0.00    +0.000 C 
ATOM     14  O   UNL     1       0.984  12.733  21.438  0.00  0.00    +0.000 OA
ENDBRANCH  11  14
ENDBRANCH   5  11
ENDBRANCH   1  10
BRANCH   2  15
ATOM     15  C   UNL     1       2.447   8.031  18.506  0.00  0.00    +0.000 A 
ATOM     16  C   UNL     1       2.282   7.104  19.540  0.00  0.00    +0.000 A 
ATOM     17  C   UNL     1       3.027   5.918  19.533  0.00  0.00    +0.000 A 
ATOM     18  C   UNL     1       3.929   5.652  18.498  0.00  0.00    +0.000 A 
ATOM     19  C   UNL     1       4.108   6.576  17.468  0.00  0.00    +0.000 A 
ATOM     20  C   UNL     1       3.371   7.763  17.478  0.00  0.00    +0.000 A 
BRANCH  19  21
ATOM     21  C   UNL     1       5.016   6.303  16.392  0.00  0.00    +0.000 C 
ATOM     22  N   UNL     1       5.748   6.080  15.520  0.00  0.00    +0.000 NA
ENDBRANCH  19  21
ENDBRANCH   2  15
TORSDOF 5
ENDMDL
MODEL 8
REMARK VINA RESULT:      -6.5      1.473      2.015
REMARK  Name = 
REMARK  7 active torsions:
REMARK  status: ('A' for Active; 'I' for Inactive)
REMARK    1  A    between atoms: C_1  and  O_2
REMARK    2  A    between atoms: O_2  and  C_3
REMARK    3  A    between atoms: C_3  and  C_5
REMARK    4  A    between atoms: C_8  and  C_9
REMARK    5  A    between atoms: C_10  and  N_11
REMARK    6  A    between atoms: C_12  and  C_14
REMARK    7  A    between atoms: C_18  and  C_19
REMARK                            x       y       z     vdW  Elec       q    Type
REMARK                         _______ _______ _______ _____ _____    ______ ____
ROOT
ATOM      1  N   UNL     1       2.806   6.307  20.147  0.00  0.00    +0.000 N 
ATOM      2  C   UNL     1       2.197   7.276  19.377  0.00  0.00    +0.000 C 
ATOM      3  O   UNL     1       2.167   7.340  18.156  0.00  0.00    +0.000 OA
ATOM      4  H   UNL     1       2.683   6.357  21.157  0.00  0.00    +0.000 HD
ENDROOT
BRANCH   1  10
ATOM      5  C   UNL     1       3.258   3.923  20.185  0.00  0.00    +0.000 A 
ATOM      6  S   UNL     1       4.297   2.721  19.547  0.00  0.00    +0.000 S 
ATOM      7  C   UNL     1       5.166   3.855  18.649  0.00  0.00    +0.000 A 
ATOM      8  C   UNL     1       4.704   5.150  18.801  0.00  0.00    +0.000 A 
ATOM      9  C   UNL     1       5.375   6.265  18.065  0.00  0.00    +0.000 C 
ATOM     10  C   UNL     1       3.569   5.202  19.710  0.00  0.00    +0.000 A 
BRANCH   5  11
ATOM     11  C   UNL     1       2.202   3.553  21.121  0.00  0.00    +0.000 C 
ATOM     12  O   UNL     1       2.405   3.082  22.238  0.00  0.00    +0.000 OA
BRANCH  11  14
ATOM     13  C   UNL     1       0.609   3.006  19.457  0.00  0.00    +0.000 C 
ATOM     14  O   UNL     1       0.960   3.783  20.601  0.00  0.00    +0.000 OA
ENDBRANCH  11  14
ENDBRANCH   5  11
ENDBRANCH   1  10
BRANCH   2  15
ATOM     15  C   UNL     1       1.492   8.385  20.086  0.00  0.00    +0.000 A 
ATOM     16  C   UNL     1       1.275   8.403  21.467  0.00  0.00    +0.000 A 
ATOM     17  C   UNL     1       0.727   9.543  22.067  0.00  0.00    +0.000 A 
ATOM     18  C   UNL     1       0.401  10.664  21.298  0.00  0.00    +0.000 A 
ATOM     19  C   UNL     1       0.603  10.651  19.917  0.00  0.00    +0.000 A 
ATOM     20  C   UNL     1       1.143   9.511  19.316  0.00  0.00    +0.000 A 
BRANCH  19  21
ATOM     21  C   UNL     1       0.291  11.803  19.122  0.00  0.00    +0.000 C 
ATOM     22  N   UNL     1       0.035  12.733  18.478  0.00  0.00    +0.000 NA
ENDBRANCH  19  21
ENDBRANCH   2  15
TORSDOF 5
ENDMDL
MODEL 9
REMARK VINA RESULT:      -6.5      3.748      6.784
REMARK  Name = 
REMARK  7 active torsions:
REMARK  status: ('A' for Active; 'I' for Inactive)
REMARK    1  A    between atoms: C_1  and  O_2
REMARK    2  A    between atoms: O_2  and  C_3
REMARK    3  A    between atoms: C_3  and  C_5
REMARK    4  A    between atoms: C_8  and  C_9
REMARK    5  A    between atoms: C_10  and  N_11
REMARK    6  A    between atoms: C_12  and  C_14
REMARK    7  A    between atoms: C_18  and  C_19
REMARK                            x       y       z     vdW  Elec       q    Type
REMARK                         _______ _______ _______ _____ _____    ______ ____
ROOT
ATOM      1  N   UNL     1       0.576   9.261  18.994  0.00  0.00    +0.000 N 
ATOM      2  C   UNL     1       1.729   9.158  18.243  0.00  0.00    +0.000 C 
ATOM      3  O   UNL     1       2.213  10.011  17.510  0.00  0.00    +0.000 OA
ATOM      4  H   UNL     1       0.341   8.485  19.610  0.00  0.00    +0.000 HD
ENDROOT
BRANCH   1  10
ATOM      5  C   UNL     1      -0.181  11.306  20.058  0.00  0.00    +0.000 A 
ATOM      6  S   UNL     1      -1.375  12.531  19.966  0.00  0.00    +0.000 S 
ATOM      7  C   UNL     1      -2.099  11.816  18.620  0.00  0.00    +0.000 A 
ATOM      8  C   UNL     1      -1.471  10.655  18.207  0.00  0.00    +0.000 A 
ATOM      9  C   UNL     1      -1.999   9.910  17.024  0.00  0.00    +0.000 C 
ATOM     10  C   UNL     1      -0.329  10.344  19.053  0.00  0.00    +0.000 A 
BRANCH   5  11
ATOM     11  C   UNL     1       0.828  11.348  21.110  0.00  0.00    +0.000 C 
ATOM     12  O   UNL     1       1.631  12.267  21.259  0.00  0.00    +0.000 OA
BRANCH  11  14
ATOM     13  C   UNL     1      -0.315  10.171  22.817  0.00  0.00    +0.000 C 
ATOM     14  O   UNL     1       0.779  10.238  21.904  0.00  0.00    +0.000 OA
ENDBRANCH  11  14
ENDBRANCH   5  11
ENDBRANCH   1  10
BRANCH   2  15
ATOM     15  C   UNL     1       2.489   7.875  18.308  0.00  0.00    +0.000 A 
ATOM     16  C   UNL     1       3.599   7.594  17.508  0.00  0.00    +0.000 A 
ATOM     17  C   UNL     1       4.335   6.423  17.728  0.00  0.00    +0.000 A 
ATOM     18  C   UNL     1       3.970   5.536  18.746  0.00  0.00    +0.000 A 
ATOM     19  C   UNL     1       2.856   5.803  19.543  0.00  0.00    +0.000 A 
ATOM     20  C   UNL     1       2.117   6.968  19.318  0.00  0.00    +0.000 A 
BRANCH  19  21
ATOM     21  C   UNL     1       2.485   4.910  20.602  0.00  0.00    +0.000 C 
ATOM     22  N   UNL     1       2.184   4.186  21.457  0.00  0.00    +0.000 NA
ENDBRANCH  19  21
ENDBRANCH   2  15
TORSDOF 5
ENDMDL
