MODEL 1
REMARK VINA RESULT:      -7.8      0.000      0.000
REMARK  Name = 
REMARK  5 active torsions:
REMARK  status: ('A' for Active; 'I' for Inactive)
REMARK    1  A    between atoms: C_2  and  C_3
REMARK    2  A    between atoms: C_3  and  N_4
REMARK    3  A    between atoms: C_6  and  C_7
REMARK    4  A    between atoms: C_7  and  C_9
REMARK    5  A    between atoms: C_10  and  C_11
REMARK                            x       y       z     vdW  Elec       q    Type
REMARK                         _______ _______ _______ _____ _____    ______ ____
ROOT
ATOM      1  N   UNL     1       6.557   4.792  17.760  0.00  0.00    +0.000 N 
ATOM      2  C   UNL     1       5.328   4.657  18.359  0.00  0.00    +0.000 A 
ATOM      3  C   UNL     1       4.374   4.399  17.386  0.00  0.00    +0.000 A 
ATOM      4  C   UNL     1       5.085   4.380  16.136  0.00  0.00    +0.000 A 
ATOM      5  C   UNL     1       4.688   4.171  14.796  0.00  0.00    +0.000 A 
ATOM      6  C   UNL     1       5.629   4.241  13.766  0.00  0.00    +0.000 A 
ATOM      7  C   UNL     1       6.960   4.524  14.049  0.00  0.00    +0.000 A 
ATOM      8  C   UNL     1       7.387   4.731  15.364  0.00  0.00    +0.000 A 
ATOM      9  C   UNL     1       6.435   4.648  16.394  0.00  0.00    +0.000 A 
ENDROOT
BRANCH   3  10
ATOM     10  C   UNL     1       2.928   4.217  17.553  0.00  0.00    +0.000 C 
ATOM     11  O   UNL     1       2.323   3.209  17.196  0.00  0.00    +0.000 OA
BRANCH  10  12
ATOM     12  C   UNL     1       2.211   5.359  18.178  0.00  0.00    +0.000 C 
ATOM     13  C   UNL     1       2.714   6.601  18.109  0.00  0.00    +0.000 C 
BRANCH  13  14
ATOM     14  C   UNL     1       2.060   7.768  18.721  0.00  0.00    +0.000 A 
ATOM     15  C   UNL     1       1.689   8.892  17.966  0.00  0.00    +0.000 A 
ATOM     16  C   UNL     1       1.094   9.998  18.577  0.00  0.00    +0.000 A 
ATOM     17  C   UNL     1       0.842   9.978  19.945  0.00  0.00    +0.000 A 
ATOM     18 CL   UNL     1       0.133  11.350  20.702  0.00  0.00    +0.000 Cl
ATOM     19  C   UNL     1       1.162   8.854  20.702  0.00  0.00    +0.000 A 
ATOM     20  C   UNL     1       1.763   7.749  20.090  0.00  0.00    +0.000 A 
ENDBRANCH  13  14
ENDBRANCH  10  12
ENDBRANCH   3  10
BRANCH   1  21
ATOM     21  C   UNL     1       7.786   5.106  18.487  0.00  0.00    +0.000 C 
BRANCH  21  23
ATOM     22  C   UNL     1       7.740   7.528  17.796  0.00  0.00    +0.000 C 
ATOM     23  C   UNL     1       7.945   6.581  18.725  0.00  0.00    +0.000 C 
ENDBRANCH  21  23
ENDBRANCH   1  21
TORSDOF 5
ENDMDL
MODEL 2
REMARK VINA RESULT:      -7.7      0.773      1.254
REMARK  Name = 
REMARK  5 active torsions:
REMARK  status: ('A' for Active; 'I' for Inactive)
REMARK    1  A    between atoms: C_2  and  C_3
REMARK    2  A    between atoms: C_3  and  N_4
REMARK    3  A    between atoms: C_6  and  C_7
REMARK    4  A    between atoms: C_7  and  C_9
REMARK    5  A    between atoms: C_10  and  C_11
REMARK                            x       y       z     vdW  Elec       q    Type
REMARK                         _______ _______ _______ _____ _____    ______ ____
ROOT
ATOM      1  N   UNL     1       6.843   5.192  18.206  0.00  0.00    +0.000 N 
ATOM      2  C   UNL     1       5.734   4.988  18.992  0.00  0.00    +0.000 A 
ATOM      3  C   UNL     1       4.696   4.518  18.200  0.00  0.00    +0.000 A 
ATOM      4  C   UNL     1       5.228   4.439  16.865  0.00  0.00    +0.000 A 
ATOM      5  C   UNL     1       4.681   4.040  15.625  0.00  0.00    +0.000 A 
ATOM      6  C   UNL     1       5.456   4.099  14.465  0.00  0.00    +0.000 A 
ATOM      7  C   UNL     1       6.767   4.559  14.519  0.00  0.00    +0.000 A 
ATOM      8  C   UNL     1       7.340   4.958  15.730  0.00  0.00    +0.000 A 
ATOM      9  C   UNL     1       6.555   4.884  16.894  0.00  0.00    +0.000 A 
ENDROOT
BRANCH   3  10
ATOM     10  C   UNL     1       3.322   4.194  18.596  0.00  0.00    +0.000 C 
ATOM     11  O   UNL     1       2.909   3.048  18.746  0.00  0.00    +0.000 OA
BRANCH  10  12
ATOM     12  C   UNL     1       2.425   5.364  18.794  0.00  0.00    +0.000 C 
ATOM     13  C   UNL     1       2.924   6.609  18.828  0.00  0.00    +0.000 C 
BRANCH  13  14
ATOM     14  C   UNL     1       2.091   7.803  19.036  0.00  0.00    +0.000 A 
ATOM     15  C   UNL     1       1.593   8.150  20.302  0.00  0.00    +0.000 A 
ATOM     16  C   UNL     1       0.781   9.274  20.466  0.00  0.00    +0.000 A 
ATOM     17  C   UNL     1       0.481  10.075  19.369  0.00  0.00    +0.000 A 
ATOM     18 CL   UNL     1      -0.540  11.445  19.567  0.00  0.00    +0.000 Cl
ATOM     19  C   UNL     1       1.003   9.771  18.114  0.00  0.00    +0.000 A 
ATOM     20  C   UNL     1       1.811   8.642  17.949  0.00  0.00    +0.000 A 
ENDBRANCH  13  14
ENDBRANCH  10  12
ENDBRANCH   3  10
BRANCH   1  21
ATOM     21  C   UNL     1       8.110   5.720  18.710  0.00  0.00    +0.000 C 
BRANCH  21  23
ATOM     22  C   UNL     1       7.856   8.003  17.674  0.00  0.00    +0.000 C 
ATOM     23  C   UNL     1       8.130   7.222  18.731  0.00  0.00    +0.000 C 
ENDBRANCH  21  23
ENDBRANCH   1  21
TORSDOF 5
ENDMDL
MODEL 3
REMARK VINA RESULT:      -7.6      0.847      3.024
REMARK  Name = 
REMARK  5 active torsions:
REMARK  status: ('A' for Active; 'I' for Inactive)
REMARK    1  A    between atoms: C_2  and  C_3
REMARK    2  A    between atoms: C_3  and  N_4
REMARK    3  A    between atoms: C_6  and  C_7
REMARK    4  A    between atoms: C_7  and  C_9
REMARK    5  A    between atoms: C_10  and  C_11
REMARK                            x       y       z     vdW  Elec       q    Type
REMARK                         _______ _______ _______ _____ _____    ______ ____
ROOT
ATOM      1  N   UNL     1       5.954   4.501  15.674  0.00  0.00    +0.000 N 
ATOM      2  C   UNL     1       4.605   4.234  15.700  0.00  0.00    +0.000 A 
ATOM      3  C   UNL     1       4.138   4.387  16.997  0.00  0.00    +0.000 A 
ATOM      4  C   UNL     1       5.281   4.767  17.783  0.00  0.00    +0.000 A 
ATOM      5  C   UNL     1       5.462   5.065  19.153  0.00  0.00    +0.000 A 
ATOM      6  C   UNL     1       6.731   5.385  19.640  0.00  0.00    +0.000 A 
ATOM      7  C   UNL     1       7.826   5.405  18.785  0.00  0.00    +0.000 A 
ATOM      8  C   UNL     1       7.682   5.119  17.424  0.00  0.00    +0.000 A 
ATOM      9  C   UNL     1       6.399   4.810  16.941  0.00  0.00    +0.000 A 
ENDROOT
BRANCH   3  10
ATOM     10  C   UNL     1       2.779   4.176  17.506  0.00  0.00    +0.000 C 
ATOM     11  O   UNL     1       2.148   3.133  17.352  0.00  0.00    +0.000 OA
BRANCH  10  12
ATOM     12  C   UNL     1       2.181   5.333  18.223  0.00  0.00    +0.000 C 
ATOM     13  C   UNL     1       2.511   6.589  17.886  0.00  0.00    +0.000 C 
BRANCH  13  14
ATOM     14  C   UNL     1       1.966   7.773  18.567  0.00  0.00    +0.000 A 
ATOM     15  C   UNL     1       1.609   8.936  17.866  0.00  0.00    +0.000 A 
ATOM     16  C   UNL     1       1.120  10.056  18.541  0.00  0.00    +0.000 A 
ATOM     17  C   UNL     1       0.960  10.013  19.922  0.00  0.00    +0.000 A 
ATOM     18 CL   UNL     1       0.382  11.401  20.757  0.00  0.00    +0.000 Cl
ATOM     19  C   UNL     1       1.266   8.854  20.630  0.00  0.00    +0.000 A 
ATOM     20  C   UNL     1       1.762   7.734  19.953  0.00  0.00    +0.000 A 
ENDBRANCH  13  14
ENDBRANCH  10  12
ENDBRANCH   3  10
BRANCH   1  21
ATOM     21  C   UNL     1       6.779   4.400  14.471  0.00  0.00    +0.000 C 
BRANCH  21  23
ATOM     22  C   UNL     1       6.583   3.491  12.129  0.00  0.00    +0.000 C 
ATOM     23  C   UNL     1       6.056   3.721  13.342  0.00  0.00    +0.000 C 
ENDBRANCH  21  23
ENDBRANCH   1  21
TORSDOF 5
ENDMDL
MODEL 4
REMARK VINA RESULT:      -7.4      1.049      3.236
REMARK  Name = 
REMARK  5 active torsions:
REMARK  status: ('A' for Active; 'I' for Inactive)
REMARK    1  A    between atoms: C_2  and  C_3
REMARK    2  A    between atoms: C_3  and  N_4
REMARK    3  A    between atoms: C_6  and  C_7
REMARK    4  A    between atoms: C_7  and  C_9
REMARK    5  A    between atoms: C_10  and  C_11
REMARK                            x       y       z     vdW  Elec       q    Type
REMARK                         _______ _______ _______ _____ _____    ______ ____
ROOT
ATOM      1  N   UNL     1       5.746   4.116  15.917  0.00  0.00    +0.000 N 
ATOM      2  C   UNL     1       4.390   4.000  16.113  0.00  0.00    +0.000 A 
ATOM      3  C   UNL     1       4.081   4.403  17.404  0.00  0.00    +0.000 A 
ATOM      4  C   UNL     1       5.332   4.781  18.006  0.00  0.00    +0.000 A 
ATOM      5  C   UNL     1       5.686   5.270  19.283  0.00  0.00    +0.000 A 
ATOM      6  C   UNL     1       7.024   5.527  19.590  0.00  0.00    +0.000 A 
ATOM      7  C   UNL     1       8.018   5.298  18.646  0.00  0.00    +0.000 A 
ATOM      8  C   UNL     1       7.702   4.818  17.371  0.00  0.00    +0.000 A 
ATOM      9  C   UNL     1       6.351   4.573  17.068  0.00  0.00    +0.000 A 
ENDROOT
BRANCH   3  10
ATOM     10  C   UNL     1       2.772   4.419  18.065  0.00  0.00    +0.000 C 
ATOM     11  O   UNL     1       2.209   3.411  18.483  0.00  0.00    +0.000 OA
BRANCH  10  12
ATOM     12  C   UNL     1       2.137   5.757  18.187  0.00  0.00    +0.000 C 
ATOM     13  C   UNL     1       2.467   6.580  19.195  0.00  0.00    +0.000 C 
BRANCH  13  14
ATOM     14  C   UNL     1       1.863   7.908  19.378  0.00  0.00    +0.000 A 
ATOM     15  C   UNL     1       1.373   8.336  20.622  0.00  0.00    +0.000 A 
ATOM     16  C   UNL     1       0.779   9.592  20.762  0.00  0.00    +0.000 A 
ATOM     17  C   UNL     1       0.693  10.441  19.662  0.00  0.00    +0.000 A 
ATOM     18 CL   UNL     1      -0.062  11.977  19.829  0.00  0.00    +0.000 Cl
ATOM     19  C   UNL     1       1.213  10.051  18.431  0.00  0.00    +0.000 A 
ATOM     20  C   UNL     1       1.803   8.790  18.291  0.00  0.00    +0.000 A 
ENDBRANCH  13  14
ENDBRANCH  10  12
ENDBRANCH   3  10
BRANCH   1  21
ATOM     21  C   UNL     1       6.423   3.742  14.677  0.00  0.00    +0.000 C 
BRANCH  21  23
ATOM     22  C   UNL     1       5.475   3.290  12.386  0.00  0.00    +0.000 C 
ATOM     23  C   UNL     1       5.610   4.084  13.461  0.00  0.00    +0.000 C 
ENDBRANCH  21  23
ENDBRANCH   1  21
TORSDOF 5
ENDMDL
MODEL 5
REMARK VINA RESULT:      -7.4      3.309      5.075
REMARK  Name = 
REMARK  5 active torsions:
REMARK  status: ('A' for Active; 'I' for Inactive)
REMARK    1  A    between atoms: C_2  and  C_3
REMARK    2  A    between atoms: C_3  and  N_4
REMARK    3  A    between atoms: C_6  and  C_7
REMARK    4  A    between atoms: C_7  and  C_9
REMARK    5  A    between atoms: C_10  and  C_11
REMARK                            x       y       z     vdW  Elec       q    Type
REMARK                         _______ _______ _______ _____ _____    ______ ____
ROOT
ATOM      1  N   UNL     1       2.584   5.772  19.779  0.00  0.00    +0.000 N 
ATOM      2  C   UNL     1       1.986   6.998  19.615  0.00  0.00    +0.000 A 
ATOM      3  C   UNL     1       2.501   7.607  18.480  0.00  0.00    +0.000 A 
ATOM      4  C   UNL     1       3.462   6.682  17.941  0.00  0.00    +0.000 A 
ATOM      5  C   UNL     1       4.312   6.712  16.813  0.00  0.00    +0.000 A 
ATOM      6  C   UNL     1       5.177   5.646  16.558  0.00  0.00    +0.000 A 
ATOM      7  C   UNL     1       5.215   4.551  17.413  0.00  0.00    +0.000 A 
ATOM      8  C   UNL     1       4.384   4.487  18.536  0.00  0.00    +0.000 A 
ATOM      9  C   UNL     1       3.509   5.560  18.779  0.00  0.00    +0.000 A 
ENDROOT
BRANCH   3  10
ATOM     10  C   UNL     1       2.186   8.931  17.934  0.00  0.00    +0.000 C 
ATOM     11  O   UNL     1       3.033   9.789  17.697  0.00  0.00    +0.000 OA
BRANCH  10  12
ATOM     12  C   UNL     1       0.743   9.193  17.693  0.00  0.00    +0.000 C 
ATOM     13  C   UNL     1       0.119  10.205  18.315  0.00  0.00    +0.000 C 
BRANCH  13  14
ATOM     14  C   UNL     1      -1.309  10.504  18.130  0.00  0.00    +0.000 A 
ATOM     15  C   UNL     1      -2.085   9.851  17.160  0.00  0.00    +0.000 A 
ATOM     16  C   UNL     1      -3.432  10.174  16.987  0.00  0.00    +0.000 A 
ATOM     17  C   UNL     1      -4.021  11.137  17.801  0.00  0.00    +0.000 A 
ATOM     18 CL   UNL     1      -5.674  11.553  17.571  0.00  0.00    +0.000 Cl
ATOM     19  C   UNL     1      -3.278  11.764  18.798  0.00  0.00    +0.000 A 
ATOM     20  C   UNL     1      -1.927  11.443  18.967  0.00  0.00    +0.000 A 
ENDBRANCH  13  14
ENDBRANCH  10  12
ENDBRANCH   3  10
BRANCH   1  21
ATOM     21  C   UNL     1       2.303   4.873  20.897  0.00  0.00    +0.000 C 
BRANCH  21  23
ATOM     22  C   UNL     1       1.229   2.772  20.015  0.00  0.00    +0.000 C 
ATOM     23  C   UNL     1       1.138   3.967  20.619  0.00  0.00    +0.000 C 
ENDBRANCH  21  23
ENDBRANCH   1  21
TORSDOF 5
ENDMDL
MODEL 6
REMARK VINA RESULT:      -7.3      3.632      6.352
REMARK  Name = 
REMARK  5 active torsions:
REMARK  status: ('A' for Active; 'I' for Inactive)
REMARK    1  A    between atoms: C_2  and  C_3
REMARK    2  A    between atoms: C_3  and  N_4
REMARK    3  A    between atoms: C_6  and  C_7
REMARK    4  A    between atoms: C_7  and  C_9
REMARK    5  A    between atoms: C_10  and  C_11
REMARK                            x       y       z     vdW  Elec       q    Type
REMARK                         _______ _______ _______ _____ _____    ______ ____
ROOT
ATOM      1  N   UNL     1       4.773   4.409  18.781  0.00  0.00    +0.000 N 
ATOM      2  C   UNL     1       6.032   4.791  18.384  0.00  0.00    +0.000 A 
ATOM      3  C   UNL     1       5.970   6.068  17.846  0.00  0.00    +0.000 A 
ATOM      4  C   UNL     1       4.589   6.463  17.932  0.00  0.00    +0.000 A 
ATOM      5  C   UNL     1       3.888   7.632  17.559  0.00  0.00    +0.000 A 
ATOM      6  C   UNL     1       2.507   7.712  17.749  0.00  0.00    +0.000 A 
ATOM      7  C   UNL     1       1.810   6.643  18.298  0.00  0.00    +0.000 A 
ATOM      8  C   UNL     1       2.473   5.473  18.681  0.00  0.00    +0.000 A 
ATOM      9  C   UNL     1       3.864   5.406  18.496  0.00  0.00    +0.000 A 
ENDROOT
BRANCH   3  10
ATOM     10  C   UNL     1       7.055   6.866  17.266  0.00  0.00    +0.000 C 
ATOM     11  O   UNL     1       7.658   6.554  16.243  0.00  0.00    +0.000 OA
BRANCH  10  12
ATOM     12  C   UNL     1       7.408   8.100  18.016  0.00  0.00    +0.000 C 
ATOM     13  C   UNL     1       8.376   8.916  17.571  0.00  0.00    +0.000 C 
BRANCH  13  14
ATOM     14  C   UNL     1       8.780  10.142  18.276  0.00  0.00    +0.000 A 
ATOM     15  C   UNL     1       8.604  11.415  17.714  0.00  0.00    +0.000 A 
ATOM     16  C   UNL     1       9.023  12.561  18.394  0.00  0.00    +0.000 A 
ATOM     17  C   UNL     1       9.599  12.442  19.655  0.00  0.00    +0.000 A 
ATOM     18 CL   UNL     1      10.139  13.851  20.481  0.00  0.00    +0.000 Cl
ATOM     19  C   UNL     1       9.741  11.191  20.248  0.00  0.00    +0.000 A 
ATOM     20  C   UNL     1       9.327  10.044  19.563  0.00  0.00    +0.000 A 
ENDBRANCH  13  14
ENDBRANCH  10  12
ENDBRANCH   3  10
BRANCH   1  21
ATOM     21  C   UNL     1       4.465   3.102  19.360  0.00  0.00    +0.000 C 
BRANCH  21  23
ATOM     22  C   UNL     1       2.457   1.902  18.425  0.00  0.00    +0.000 C 
ATOM     23  C   UNL     1       3.765   2.199  18.384  0.00  0.00    +0.000 C 
ENDBRANCH  21  23
ENDBRANCH   1  21
TORSDOF 5
ENDMDL
MODEL 7
REMARK VINA RESULT:      -7.3      3.639      6.416
REMARK  Name = 
REMARK  5 active torsions:
REMARK  status: ('A' for Active; 'I' for Inactive)
REMARK    1  A    between atoms: C_2  and  C_3
REMARK    2  A    between atoms: C_3  and  N_4
REMARK    3  A    between atoms: C_6  and  C_7
REMARK    4  A    between atoms: C_7  and  C_9
REMARK    5  A    between atoms: C_10  and  C_11
REMARK                            x       y       z     vdW  Elec       q    Type
REMARK                         _______ _______ _______ _____ _____    ______ ____
ROOT
ATOM      1  N   UNL     1       3.401   6.899  17.714  0.00  0.00    +0.000 N 
ATOM      2  C   UNL     1       4.563   7.411  17.188  0.00  0.00    +0.000 A 
ATOM      3  C   UNL     1       5.607   6.540  17.464  0.00  0.00    +0.000 A 
ATOM      4  C   UNL     1       5.024   5.448  18.196  0.00  0.00    +0.000 A 
ATOM      5  C   UNL     1       5.551   4.261  18.753  0.00  0.00    +0.000 A 
ATOM      6  C   UNL     1       4.718   3.382  19.449  0.00  0.00    +0.000 A 
ATOM      7  C   UNL     1       3.368   3.670  19.606  0.00  0.00    +0.000 A 
ATOM      8  C   UNL     1       2.813   4.833  19.064  0.00  0.00    +0.000 A 
ATOM      9  C   UNL     1       3.657   5.706  18.355  0.00  0.00    +0.000 A 
ENDROOT
BRANCH   3  10
ATOM     10  C   UNL     1       7.028   6.687  17.129  0.00  0.00    +0.000 C 
ATOM     11  O   UNL     1       7.599   6.015  16.275  0.00  0.00    +0.000 OA
BRANCH  10  12
ATOM     12  C   UNL     1       7.765   7.709  17.918  0.00  0.00    +0.000 C 
ATOM     13  C   UNL     1       7.831   8.981  17.494  0.00  0.00    +0.000 C 
BRANCH  13  14
ATOM     14  C   UNL     1       8.557  10.033  18.221  0.00  0.00    +0.000 A 
ATOM     15  C   UNL     1       8.695  11.332  17.707  0.00  0.00    +0.000 A 
ATOM     16  C   UNL     1       9.413  12.304  18.405  0.00  0.00    +0.000 A 
ATOM     17  C   UNL     1       9.979  11.991  19.638  0.00  0.00    +0.000 A 
ATOM     18 CL   UNL     1      10.886  13.182  20.486  0.00  0.00    +0.000 Cl
ATOM     19  C   UNL     1       9.815  10.722  20.184  0.00  0.00    +0.000 A 
ATOM     20  C   UNL     1       9.100   9.746  19.481  0.00  0.00    +0.000 A 
ENDBRANCH  13  14
ENDBRANCH  10  12
ENDBRANCH   3  10
BRANCH   1  21
ATOM     21  C   UNL     1       2.108   7.577  17.640  0.00  0.00    +0.000 C 
BRANCH  21  23
ATOM     22  C   UNL     1       1.817  10.051  18.020  0.00  0.00    +0.000 C 
ATOM     23  C   UNL     1       2.068   8.818  18.487  0.00  0.00    +0.000 C 
ENDBRANCH  21  23
ENDBRANCH   1  21
TORSDOF 5
ENDMDL
MODEL 8
REMARK VINA RESULT:      -7.3      4.712      9.345
REMARK  Name = 
REMARK  5 active torsions:
REMARK  status: ('A' for Active; 'I' for Inactive)
REMARK    1  A    between atoms: C_2  and  C_3
REMARK    2  A    between atoms: C_3  and  N_4
REMARK    3  A    between atoms: C_6  and  C_7
REMARK    4  A    between atoms: C_7  and  C_9
REMARK    5  A    between atoms: C_10  and  C_11
REMARK                            x       y       z     vdW  Elec       q    Type
REMARK                         _______ _______ _______ _____ _____    ______ ____
ROOT
ATOM      1  N   UNL     1      -1.022  11.292  19.444  0.00  0.00    +0.000 N 
ATOM      2  C   UNL     1      -0.021  10.376  19.665  0.00  0.00    +0.000 A 
ATOM      3  C   UNL     1       0.086  10.142  21.028  0.00  0.00    +0.000 A 
ATOM      4  C   UNL     1      -0.913  10.970  21.648  0.00  0.00    +0.000 A 
ATOM      5  C   UNL     1      -1.304  11.181  22.990  0.00  0.00    +0.000 A 
ATOM      6  C   UNL     1      -2.318  12.092  23.290  0.00  0.00    +0.000 A 
ATOM      7  C   UNL     1      -2.945  12.805  22.276  0.00  0.00    +0.000 A 
ATOM      8  C   UNL     1      -2.587  12.617  20.938  0.00  0.00    +0.000 A 
ATOM      9  C   UNL     1      -1.572  11.690  20.644  0.00  0.00    +0.000 A 
ENDROOT
BRANCH   3  10
ATOM     10  C   UNL     1       1.033   9.270  21.730  0.00  0.00    +0.000 C 
ATOM     11  O   UNL     1       1.722   9.636  22.678  0.00  0.00    +0.000 OA
BRANCH  10  12
ATOM     12  C   UNL     1       1.130   7.883  21.205  0.00  0.00    +0.000 C 
ATOM     13  C   UNL     1       1.971   7.590  20.200  0.00  0.00    +0.000 C 
BRANCH  13  14
ATOM     14  C   UNL     1       2.100   6.242  19.628  0.00  0.00    +0.000 A 
ATOM     15  C   UNL     1       2.551   6.032  18.315  0.00  0.00    +0.000 A 
ATOM     16  C   UNL     1       2.638   4.742  17.787  0.00  0.00    +0.000 A 
ATOM     17  C   UNL     1       2.298   3.649  18.578  0.00  0.00    +0.000 A 
ATOM     18 CL   UNL     1       2.380   2.062  17.919  0.00  0.00    +0.000 Cl
ATOM     19  C   UNL     1       1.891   3.834  19.896  0.00  0.00    +0.000 A 
ATOM     20  C   UNL     1       1.799   5.127  20.422  0.00  0.00    +0.000 A 
ENDBRANCH  13  14
ENDBRANCH  10  12
ENDBRANCH   3  10
BRANCH   1  21
ATOM     21  C   UNL     1      -1.384  11.798  18.121  0.00  0.00    +0.000 C 
BRANCH  21  23
ATOM     22  C   UNL     1      -2.867   9.856  17.506  0.00  0.00    +0.000 C 
ATOM     23  C   UNL     1      -2.650  11.177  17.602  0.00  0.00    +0.000 C 
ENDBRANCH  21  23
ENDBRANCH   1  21
TORSDOF 5
ENDMDL
MODEL 9
REMARK VINA RESULT:      -7.3      4.707      9.397
REMARK  Name = 
REMARK  5 active torsions:
REMARK  status: ('A' for Active; 'I' for Inactive)
REMARK    1  A    between atoms: C_2  and  C_3
REMARK    2  A    between atoms: C_3  and  N_4
REMARK    3  A    between atoms: C_6  and  C_7
REMARK    4  A    between atoms: C_7  and  C_9
REMARK    5  A    between atoms: C_10  and  C_11
REMARK                            x       y       z     vdW  Elec       q    Type
REMARK                         _______ _______ _______ _____ _____    ______ ____
ROOT
ATOM      1  N   UNL     1      -1.024  11.268  19.448  0.00  0.00    +0.000 N 
ATOM      2  C   UNL     1      -0.034  10.339  19.668  0.00  0.00    +0.000 A 
ATOM      3  C   UNL     1       0.086  10.119  21.032  0.00  0.00    +0.000 A 
ATOM      4  C   UNL     1      -0.893  10.969  21.655  0.00  0.00    +0.000 A 
ATOM      5  C   UNL     1      -1.264  11.202  22.998  0.00  0.00    +0.000 A 
ATOM      6  C   UNL     1      -2.260  12.132  23.300  0.00  0.00    +0.000 A 
ATOM      7  C   UNL     1      -2.889  12.842  22.285  0.00  0.00    +0.000 A 
ATOM      8  C   UNL     1      -2.550  12.634  20.945  0.00  0.00    +0.000 A 
ATOM      9  C   UNL     1      -1.553  11.688  20.650  0.00  0.00    +0.000 A 
ENDROOT
BRANCH   3  10
ATOM     10  C   UNL     1       1.028   9.240  21.733  0.00  0.00    +0.000 C 
ATOM     11  O   UNL     1       1.730   9.606  22.672  0.00  0.00    +0.000 OA
BRANCH  10  12
ATOM     12  C   UNL     1       1.104   7.848  21.217  0.00  0.00    +0.000 C 
ATOM     13  C   UNL     1       1.971   7.526  20.245  0.00  0.00    +0.000 C 
BRANCH  13  14
ATOM     14  C   UNL     1       2.081   6.171  19.684  0.00  0.00    +0.000 A 
ATOM     15  C   UNL     1       1.690   5.033  20.406  0.00  0.00    +0.000 A 
ATOM     16  C   UNL     1       1.831   3.756  19.859  0.00  0.00    +0.000 A 
ATOM     17  C   UNL     1       2.342   3.609  18.574  0.00  0.00    +0.000 A 
ATOM     18 CL   UNL     1       2.540   2.035  17.910  0.00  0.00    +0.000 Cl
ATOM     19  C   UNL     1       2.694   4.729  17.825  0.00  0.00    +0.000 A 
ATOM     20  C   UNL     1       2.557   6.008  18.376  0.00  0.00    +0.000 A 
ENDBRANCH  13  14
ENDBRANCH  10  12
ENDBRANCH   3  10
BRANCH   1  21
ATOM     21  C   UNL     1      -1.393  11.764  18.124  0.00  0.00    +0.000 C 
BRANCH  21  23
ATOM     22  C   UNL     1      -2.846   9.859  17.344  0.00  0.00    +0.000 C 
ATOM     23  C   UNL     1      -2.676  11.159  17.628  0.00  0.00    +0.000 C 
ENDBRANCH  21  23
ENDBRANCH   1  21
TORSDOF 5
ENDMDL
