MODEL 1
REMARK VINA RESULT:      -8.2      0.000      0.000
REMARK  Name = 
REMARK  8 active torsions:
REMARK  status: ('A' for Active; 'I' for Inactive)
REMARK    1  A    between atoms: C_1  and  C_2
REMARK    2  A    between atoms: C_2  and  C_3
REMARK    3  A    between atoms: C_3  and  C_4
REMARK    4  A    between atoms: C_3  and  C_5
REMARK    5  A    between atoms: C_3  and  N_13
REMARK    6  A    between atoms: N_7  and  C_8
REMARK    7  A    between atoms: N_13  and  C_22
REMARK    8  A    between atoms: C_14  and  C_16
REMARK                            x       y       z     vdW  Elec       q    Type
REMARK                         _______ _______ _______ _____ _____    ______ ____
ROOT
ATOM      1  N   UNL     1       4.962   5.337  18.272  0.00  0.00    +0.000 N 
ATOM      2  C   UNL     1       4.578   3.973  18.155  0.00  0.00    +0.000 C 
ATOM      3  O   UNL     1       5.311   3.113  17.660  0.00  0.00    +0.000 OA
ENDROOT
BRANCH   2   4
ATOM      4  C   UNL     1       3.218   3.489  18.633  0.00  0.00    +0.000 A 
ATOM      5  C   UNL     1       2.115   3.616  17.798  0.00  0.00    +0.000 A 
ATOM      6  C   UNL     1       0.854   3.286  18.300  0.00  0.00    +0.000 A 
ATOM      7  C   UNL     1       0.728   2.829  19.602  0.00  0.00    +0.000 A 
ATOM      8  C   UNL     1       1.884   2.659  20.338  0.00  0.00    +0.000 A 
ATOM      9  N   UNL     1       3.115   2.942  19.870  0.00  0.00    +0.000 NA
ENDBRANCH   2   4
BRANCH   1  10
ATOM     10  C   UNL     1       3.947   6.317  18.517  0.00  0.00    +0.000 A 
ATOM     11  C   UNL     1       3.316   6.345  19.769  0.00  0.00    +0.000 A 
ATOM     12  C   UNL     1       2.236   7.192  20.002  0.00  0.00    +0.000 A 
ATOM     13  C   UNL     1       1.772   8.017  18.984  0.00  0.00    +0.000 A 
ATOM     14  C   UNL     1       2.391   7.989  17.735  0.00  0.00    +0.000 A 
ATOM     15  C   UNL     1       3.474   7.139  17.495  0.00  0.00    +0.000 A 
ENDBRANCH   1  10
BRANCH   1  16
ATOM     16  C   UNL     1       6.293   5.855  17.733  0.00  0.00    +0.000 C 
ATOM     17  C   UNL     1       6.133   7.236  17.044  0.00  0.00    +0.000 C 
BRANCH  16  18
ATOM     18  C   UNL     1       6.854   4.921  16.586  0.00  0.00    +0.000 C 
ATOM     19  O   UNL     1       7.922   4.314  16.668  0.00  0.00    +0.000 OA
ATOM     20  N   UNL     1       6.124   4.909  15.416  0.00  0.00    +0.000 N 
ATOM     21  H   UNL     1       5.259   5.432  15.399  0.00  0.00    +0.000 HD
BRANCH  20  22
ATOM     22  C   UNL     1       6.494   4.099  14.271  0.00  0.00    +0.000 C 
ATOM     23  C   UNL     1       5.314   3.641  13.413  0.00  0.00    +0.000 C 
ATOM     24  C   UNL     1       5.926   3.335  12.053  0.00  0.00    +0.000 C 
ATOM     25  C   UNL     1       7.162   4.220  11.935  0.00  0.00    +0.000 C 
ATOM     26  C   UNL     1       7.351   4.892  13.290  0.00  0.00    +0.000 C 
ENDBRANCH  20  22
ENDBRANCH  16  18
BRANCH  16  28
ATOM     27  C   UNL     1       8.329   7.162  18.825  0.00  0.00    +0.000 C 
ATOM     28  C   UNL     1       7.439   5.931  18.795  0.00  0.00    +0.000 C 
ENDBRANCH  16  28
ENDBRANCH   1  16
TORSDOF 6
ENDMDL
MODEL 2
REMARK VINA RESULT:      -7.9      0.980      1.300
REMARK  Name = 
REMARK  8 active torsions:
REMARK  status: ('A' for Active; 'I' for Inactive)
REMARK    1  A    between atoms: C_1  and  C_2
REMARK    2  A    between atoms: C_2  and  C_3
REMARK    3  A    between atoms: C_3  and  C_4
REMARK    4  A    between atoms: C_3  and  C_5
REMARK    5  A    between atoms: C_3  and  N_13
REMARK    6  A    between atoms: N_7  and  C_8
REMARK    7  A    between atoms: N_13  and  C_22
REMARK    8  A    between atoms: C_14  and  C_16
REMARK                            x       y       z     vdW  Elec       q    Type
REMARK                         _______ _______ _______ _____ _____    ______ ____
ROOT
ATOM      1  N   UNL     1       4.716   5.401  17.980  0.00  0.00    +0.000 N 
ATOM      2  C   UNL     1       4.314   4.047  17.814  0.00  0.00    +0.000 C 
ATOM      3  O   UNL     1       4.952   3.240  17.133  0.00  0.00    +0.000 OA
ENDROOT
BRANCH   2   4
ATOM      4  C   UNL     1       3.053   3.508  18.472  0.00  0.00    +0.000 A 
ATOM      5  C   UNL     1       1.832   3.647  17.823  0.00  0.00    +0.000 A 
ATOM      6  C   UNL     1       0.670   3.263  18.497  0.00  0.00    +0.000 A 
ATOM      7  C   UNL     1       0.754   2.744  19.778  0.00  0.00    +0.000 A 
ATOM      8  C   UNL     1       2.013   2.569  20.319  0.00  0.00    +0.000 A 
ATOM      9  N   UNL     1       3.152   2.903  19.682  0.00  0.00    +0.000 NA
ENDBRANCH   2   4
BRANCH   1  10
ATOM     10  C   UNL     1       3.758   6.344  18.473  0.00  0.00    +0.000 A 
ATOM     11  C   UNL     1       3.314   6.234  19.799  0.00  0.00    +0.000 A 
ATOM     12  C   UNL     1       2.290   7.047  20.276  0.00  0.00    +0.000 A 
ATOM     13  C   UNL     1       1.693   7.976  19.430  0.00  0.00    +0.000 A 
ATOM     14  C   UNL     1       2.126   8.086  18.109  0.00  0.00    +0.000 A 
ATOM     15  C   UNL     1       3.153   7.272  17.626  0.00  0.00    +0.000 A 
ENDBRANCH   1  10
BRANCH   1  16
ATOM     16  C   UNL     1       5.938   5.978  17.271  0.00  0.00    +0.000 C 
ATOM     17  C   UNL     1       6.138   7.479  17.607  0.00  0.00    +0.000 C 
BRANCH  16  18
ATOM     18  C   UNL     1       5.754   5.963  15.699  0.00  0.00    +0.000 C 
ATOM     19  O   UNL     1       5.170   6.850  15.077  0.00  0.00    +0.000 OA
ATOM     20  N   UNL     1       6.193   4.823  15.059  0.00  0.00    +0.000 N 
ATOM     21  H   UNL     1       6.658   4.121  15.619  0.00  0.00    +0.000 HD
BRANCH  20  22
ATOM     22  C   UNL     1       6.108   4.651  13.621  0.00  0.00    +0.000 C 
ATOM     23  C   UNL     1       7.449   4.386  12.936  0.00  0.00    +0.000 C 
ATOM     24  C   UNL     1       7.081   3.703  11.626  0.00  0.00    +0.000 C 
ATOM     25  C   UNL     1       5.754   2.995  11.875  0.00  0.00    +0.000 C 
ATOM     26  C   UNL     1       5.283   3.420  13.261  0.00  0.00    +0.000 C 
ENDBRANCH  20  22
ENDBRANCH  16  18
BRANCH  16  28
ATOM     27  C   UNL     1       7.959   5.363  18.878  0.00  0.00    +0.000 C 
ATOM     28  C   UNL     1       7.270   5.202  17.534  0.00  0.00    +0.000 C 
ENDBRANCH  16  28
ENDBRANCH   1  16
TORSDOF 6
ENDMDL
MODEL 3
REMARK VINA RESULT:      -7.8      0.566      1.325
REMARK  Name = 
REMARK  8 active torsions:
REMARK  status: ('A' for Active; 'I' for Inactive)
REMARK    1  A    between atoms: C_1  and  C_2
REMARK    2  A    between atoms: C_2  and  C_3
REMARK    3  A    between atoms: C_3  and  C_4
REMARK    4  A    between atoms: C_3  and  C_5
REMARK    5  A    between atoms: C_3  and  N_13
REMARK    6  A    between atoms: N_7  and  C_8
REMARK    7  A    between atoms: N_13  and  C_22
REMARK    8  A    between atoms: C_14  and  C_16
REMARK                            x       y       z     vdW  Elec       q    Type
REMARK                         _______ _______ _______ _____ _____    ______ ____
ROOT
ATOM      1  N   UNL     1       4.890   5.347  18.385  0.00  0.00    +0.000 N 
ATOM      2  C   UNL     1       4.566   3.962  18.417  0.00  0.00    +0.000 C 
ATOM      3  O   UNL     1       5.358   3.083  18.067  0.00  0.00    +0.000 OA
ENDROOT
BRANCH   2   4
ATOM      4  C   UNL     1       3.203   3.477  18.884  0.00  0.00    +0.000 A 
ATOM      5  C   UNL     1       3.020   3.136  20.219  0.00  0.00    +0.000 A 
ATOM      6  C   UNL     1       1.802   2.572  20.605  0.00  0.00    +0.000 A 
ATOM      7  C   UNL     1       0.803   2.377  19.664  0.00  0.00    +0.000 A 
ATOM      8  C   UNL     1       1.040   2.815  18.376  0.00  0.00    +0.000 A 
ATOM      9  N   UNL     1       2.194   3.388  17.982  0.00  0.00    +0.000 NA
ENDBRANCH   2   4
BRANCH   1  10
ATOM     10  C   UNL     1       3.825   6.301  18.459  0.00  0.00    +0.000 A 
ATOM     11  C   UNL     1       3.569   7.122  17.352  0.00  0.00    +0.000 A 
ATOM     12  C   UNL     1       2.632   8.150  17.429  0.00  0.00    +0.000 A 
ATOM     13  C   UNL     1       1.946   8.371  18.618  0.00  0.00    +0.000 A 
ATOM     14  C   UNL     1       2.200   7.561  19.725  0.00  0.00    +0.000 A 
ATOM     15  C   UNL     1       3.140   6.531  19.652  0.00  0.00    +0.000 A 
ENDBRANCH   1  10
BRANCH   1  16
ATOM     16  C   UNL     1       6.226   5.857  17.853  0.00  0.00    +0.000 C 
ATOM     17  C   UNL     1       6.079   7.241  17.169  0.00  0.00    +0.000 C 
BRANCH  16  18
ATOM     18  C   UNL     1       6.784   4.922  16.703  0.00  0.00    +0.000 C 
ATOM     19  O   UNL     1       7.854   4.319  16.780  0.00  0.00    +0.000 OA
ATOM     20  N   UNL     1       6.046   4.906  15.538  0.00  0.00    +0.000 N 
ATOM     21  H   UNL     1       5.180   5.426  15.526  0.00  0.00    +0.000 HD
BRANCH  20  22
ATOM     22  C   UNL     1       6.412   4.096  14.392  0.00  0.00    +0.000 C 
ATOM     23  C   UNL     1       5.236   3.690  13.504  0.00  0.00    +0.000 C 
ATOM     24  C   UNL     1       5.867   3.376  12.153  0.00  0.00    +0.000 C 
ATOM     25  C   UNL     1       7.136   4.217  12.073  0.00  0.00    +0.000 C 
ATOM     26  C   UNL     1       7.319   4.867  13.439  0.00  0.00    +0.000 C 
ENDBRANCH  20  22
ENDBRANCH  16  18
BRANCH  16  28
ATOM     27  C   UNL     1       8.314   7.109  18.909  0.00  0.00    +0.000 C 
ATOM     28  C   UNL     1       7.370   5.919  18.918  0.00  0.00    +0.000 C 
ENDBRANCH  16  28
ENDBRANCH   1  16
TORSDOF 6
ENDMDL
MODEL 4
REMARK VINA RESULT:      -7.6      1.147      1.858
REMARK  Name = 
REMARK  8 active torsions:
REMARK  status: ('A' for Active; 'I' for Inactive)
REMARK    1  A    between atoms: C_1  and  C_2
REMARK    2  A    between atoms: C_2  and  C_3
REMARK    3  A    between atoms: C_3  and  C_4
REMARK    4  A    between atoms: C_3  and  C_5
REMARK    5  A    between atoms: C_3  and  N_13
REMARK    6  A    between atoms: N_7  and  C_8
REMARK    7  A    between atoms: N_13  and  C_22
REMARK    8  A    between atoms: C_14  and  C_16
REMARK                            x       y       z     vdW  Elec       q    Type
REMARK                         _______ _______ _______ _____ _____    ______ ____
ROOT
ATOM      1  N   UNL     1       4.480   5.544  18.039  0.00  0.00    +0.000 N 
ATOM      2  C   UNL     1       4.136   4.168  17.943  0.00  0.00    +0.000 C 
ATOM      3  O   UNL     1       4.842   3.343  17.358  0.00  0.00    +0.000 OA
ENDROOT
BRANCH   2   4
ATOM      4  C   UNL     1       2.857   3.625  18.560  0.00  0.00    +0.000 A 
ATOM      5  C   UNL     1       2.872   3.173  19.875  0.00  0.00    +0.000 A 
ATOM      6  C   UNL     1       1.724   2.561  20.384  0.00  0.00    +0.000 A 
ATOM      7  C   UNL     1       0.600   2.428  19.585  0.00  0.00    +0.000 A 
ATOM      8  C   UNL     1       0.646   2.972  18.316  0.00  0.00    +0.000 A 
ATOM      9  N   UNL     1       1.729   3.594  17.809  0.00  0.00    +0.000 NA
ENDBRANCH   2   4
BRANCH   1  10
ATOM     10  C   UNL     1       3.462   6.480  18.409  0.00  0.00    +0.000 A 
ATOM     11  C   UNL     1       3.043   7.437  17.473  0.00  0.00    +0.000 A 
ATOM     12  C   UNL     1       2.153   8.445  17.835  0.00  0.00    +0.000 A 
ATOM     13  C   UNL     1       1.677   8.511  19.140  0.00  0.00    +0.000 A 
ATOM     14  C   UNL     1       2.094   7.566  20.077  0.00  0.00    +0.000 A 
ATOM     15  C   UNL     1       2.988   6.554  19.719  0.00  0.00    +0.000 A 
ENDBRANCH   1  10
BRANCH   1  16
ATOM     16  C   UNL     1       5.723   6.121  17.366  0.00  0.00    +0.000 C 
ATOM     17  C   UNL     1       5.899   7.629  17.685  0.00  0.00    +0.000 C 
BRANCH  16  18
ATOM     18  C   UNL     1       5.596   6.078  15.789  0.00  0.00    +0.000 C 
ATOM     19  O   UNL     1       5.018   6.944  15.132  0.00  0.00    +0.000 OA
ATOM     20  N   UNL     1       6.081   4.939  15.182  0.00  0.00    +0.000 N 
ATOM     21  H   UNL     1       6.539   4.255  15.770  0.00  0.00    +0.000 HD
BRANCH  20  22
ATOM     22  C   UNL     1       6.052   4.744  13.745  0.00  0.00    +0.000 C 
ATOM     23  C   UNL     1       7.421   4.490  13.114  0.00  0.00    +0.000 C 
ATOM     24  C   UNL     1       7.112   3.782  11.802  0.00  0.00    +0.000 C 
ATOM     25  C   UNL     1       5.788   3.056  12.013  0.00  0.00    +0.000 C 
ATOM     26  C   UNL     1       5.260   3.494  13.374  0.00  0.00    +0.000 C 
ENDBRANCH  20  22
ENDBRANCH  16  18
BRANCH  16  28
ATOM     27  C   UNL     1       7.756   5.645  19.003  0.00  0.00    +0.000 C 
ATOM     28  C   UNL     1       7.050   5.360  17.689  0.00  0.00    +0.000 C 
ENDBRANCH  16  28
ENDBRANCH   1  16
TORSDOF 6
ENDMDL
MODEL 5
REMARK VINA RESULT:      -7.2      1.891      3.860
REMARK  Name = 
REMARK  8 active torsions:
REMARK  status: ('A' for Active; 'I' for Inactive)
REMARK    1  A    between atoms: C_1  and  C_2
REMARK    2  A    between atoms: C_2  and  C_3
REMARK    3  A    between atoms: C_3  and  C_4
REMARK    4  A    between atoms: C_3  and  C_5
REMARK    5  A    between atoms: C_3  and  N_13
REMARK    6  A    between atoms: N_7  and  C_8
REMARK    7  A    between atoms: N_13  and  C_22
REMARK    8  A    between atoms: C_14  and  C_16
REMARK                            x       y       z     vdW  Elec       q    Type
REMARK                         _______ _______ _______ _____ _____    ______ ____
ROOT
ATOM      1  N   UNL     1       3.544   5.948  18.006  0.00  0.00    +0.000 N 
ATOM      2  C   UNL     1       3.535   7.369  18.078  0.00  0.00    +0.000 C 
ATOM      3  O   UNL     1       4.510   8.059  17.770  0.00  0.00    +0.000 OA
ENDROOT
BRANCH   2   4
ATOM      4  C   UNL     1       2.307   8.131  18.550  0.00  0.00    +0.000 A 
ATOM      5  C   UNL     1       1.527   8.811  17.622  0.00  0.00    +0.000 A 
ATOM      6  C   UNL     1       0.479   9.610  18.087  0.00  0.00    +0.000 A 
ATOM      7  C   UNL     1       0.229   9.698  19.446  0.00  0.00    +0.000 A 
ATOM      8  C   UNL     1       1.004   8.929  20.293  0.00  0.00    +0.000 A 
ATOM      9  N   UNL     1       2.002   8.128  19.871  0.00  0.00    +0.000 NA
ENDBRANCH   2   4
BRANCH   1  10
ATOM     10  C   UNL     1       2.528   5.220  18.705  0.00  0.00    +0.000 A 
ATOM     11  C   UNL     1       2.572   5.164  20.106  0.00  0.00    +0.000 A 
ATOM     12  C   UNL     1       1.682   4.361  20.814  0.00  0.00    +0.000 A 
ATOM     13  C   UNL     1       0.742   3.600  20.128  0.00  0.00    +0.000 A 
ATOM     14  C   UNL     1       0.697   3.647  18.735  0.00  0.00    +0.000 A 
ATOM     15  C   UNL     1       1.588   4.450  18.020  0.00  0.00    +0.000 A 
ENDBRANCH   1  10
BRANCH   1  16
ATOM     16  C   UNL     1       4.789   5.163  17.603  0.00  0.00    +0.000 C 
ATOM     17  C   UNL     1       6.031   5.600  18.423  0.00  0.00    +0.000 C 
BRANCH  16  18
ATOM     18  C   UNL     1       5.199   5.461  16.104  0.00  0.00    +0.000 C 
ATOM     19  O   UNL     1       5.438   6.591  15.679  0.00  0.00    +0.000 OA
ATOM     20  N   UNL     1       5.165   4.379  15.250  0.00  0.00    +0.000 N 
ATOM     21  H   UNL     1       4.954   3.474  15.649  0.00  0.00    +0.000 HD
BRANCH  20  22
ATOM     22  C   UNL     1       5.521   4.477  13.847  0.00  0.00    +0.000 C 
ATOM     23  C   UNL     1       7.021   4.379  13.567  0.00  0.00    +0.000 C 
ATOM     24  C   UNL     1       7.111   3.944  12.111  0.00  0.00    +0.000 C 
ATOM     25  C   UNL     1       5.830   3.168  11.820  0.00  0.00    +0.000 C 
ATOM     26  C   UNL     1       4.940   3.315  13.049  0.00  0.00    +0.000 C 
ENDBRANCH  20  22
ENDBRANCH  16  18
BRANCH  16  28
ATOM     27  C   UNL     1       4.874   2.914  19.011  0.00  0.00    +0.000 C 
ATOM     28  C   UNL     1       4.632   3.609  17.681  0.00  0.00    +0.000 C 
ENDBRANCH  16  28
ENDBRANCH   1  16
TORSDOF 6
ENDMDL
MODEL 6
REMARK VINA RESULT:      -7.0      1.019      1.180
REMARK  Name = 
REMARK  8 active torsions:
REMARK  status: ('A' for Active; 'I' for Inactive)
REMARK    1  A    between atoms: C_1  and  C_2
REMARK    2  A    between atoms: C_2  and  C_3
REMARK    3  A    between atoms: C_3  and  C_4
REMARK    4  A    between atoms: C_3  and  C_5
REMARK    5  A    between atoms: C_3  and  N_13
REMARK    6  A    between atoms: N_7  and  C_8
REMARK    7  A    between atoms: N_13  and  C_22
REMARK    8  A    between atoms: C_14  and  C_16
REMARK                            x       y       z     vdW  Elec       q    Type
REMARK                         _______ _______ _______ _____ _____    ______ ____
ROOT
ATOM      1  N   UNL     1       5.023   5.531  18.425  0.00  0.00    +0.000 N 
ATOM      2  C   UNL     1       4.935   4.247  19.031  0.00  0.00    +0.000 C 
ATOM      3  O   UNL     1       5.888   3.465  19.077  0.00  0.00    +0.000 OA
ENDROOT
BRANCH   2   4
ATOM      4  C   UNL     1       3.642   3.755  19.660  0.00  0.00    +0.000 A 
ATOM      5  C   UNL     1       3.035   2.606  19.164  0.00  0.00    +0.000 A 
ATOM      6  C   UNL     1       1.785   2.240  19.668  0.00  0.00    +0.000 A 
ATOM      7  C   UNL     1       1.184   3.011  20.650  0.00  0.00    +0.000 A 
ATOM      8  C   UNL     1       1.890   4.092  21.140  0.00  0.00    +0.000 A 
ATOM      9  N   UNL     1       3.109   4.452  20.694  0.00  0.00    +0.000 NA
ENDBRANCH   2   4
BRANCH   1  10
ATOM     10  C   UNL     1       3.810   6.218  18.097  0.00  0.00    +0.000 A 
ATOM     11  C   UNL     1       3.711   7.591  18.366  0.00  0.00    +0.000 A 
ATOM     12  C   UNL     1       2.507   8.266  18.184  0.00  0.00    +0.000 A 
ATOM     13  C   UNL     1       1.387   7.574  17.737  0.00  0.00    +0.000 A 
ATOM     14  C   UNL     1       1.478   6.208  17.473  0.00  0.00    +0.000 A 
ATOM     15  C   UNL     1       2.683   5.526  17.656  0.00  0.00    +0.000 A 
ENDBRANCH   1  10
BRANCH   1  16
ATOM     16  C   UNL     1       6.290   6.015  17.726  0.00  0.00    +0.000 C 
ATOM     17  C   UNL     1       6.039   7.317  16.921  0.00  0.00    +0.000 C 
BRANCH  16  18
ATOM     18  C   UNL     1       6.776   4.980  16.631  0.00  0.00    +0.000 C 
ATOM     19  O   UNL     1       7.792   4.296  16.750  0.00  0.00    +0.000 OA
ATOM     20  N   UNL     1       6.048   4.965  15.460  0.00  0.00    +0.000 N 
ATOM     21  H   UNL     1       5.228   5.554  15.412  0.00  0.00    +0.000 HD
BRANCH  20  22
ATOM     22  C   UNL     1       6.353   4.069  14.360  0.00  0.00    +0.000 C 
ATOM     23  C   UNL     1       5.148   3.697  13.496  0.00  0.00    +0.000 C 
ATOM     24  C   UNL     1       5.751   3.267  12.165  0.00  0.00    +0.000 C 
ATOM     25  C   UNL     1       7.075   4.013  12.038  0.00  0.00    +0.000 C 
ATOM     26  C   UNL     1       7.307   4.723  13.366  0.00  0.00    +0.000 C 
ENDBRANCH  20  22
ENDBRANCH  16  18
BRANCH  16  28
ATOM     27  C   UNL     1       8.298   7.517  18.597  0.00  0.00    +0.000 C 
ATOM     28  C   UNL     1       7.519   6.215  18.672  0.00  0.00    +0.000 C 
ENDBRANCH  16  28
ENDBRANCH   1  16
TORSDOF 6
ENDMDL
MODEL 7
REMARK VINA RESULT:      -6.9      0.586      1.350
REMARK  Name = 
REMARK  8 active torsions:
REMARK  status: ('A' for Active; 'I' for Inactive)
REMARK    1  A    between atoms: C_1  and  C_2
REMARK    2  A    between atoms: C_2  and  C_3
REMARK    3  A    between atoms: C_3  and  C_4
REMARK    4  A    between atoms: C_3  and  C_5
REMARK    5  A    between atoms: C_3  and  N_13
REMARK    6  A    between atoms: N_7  and  C_8
REMARK    7  A    between atoms: N_13  and  C_22
REMARK    8  A    between atoms: C_14  and  C_16
REMARK                            x       y       z     vdW  Elec       q    Type
REMARK                         _______ _______ _______ _____ _____    ______ ____
ROOT
ATOM      1  N   UNL     1       4.981   5.279  18.094  0.00  0.00    +0.000 N 
ATOM      2  C   UNL     1       4.650   3.897  18.034  0.00  0.00    +0.000 C 
ATOM      3  O   UNL     1       5.415   3.047  17.571  0.00  0.00    +0.000 OA
ENDROOT
BRANCH   2   4
ATOM      4  C   UNL     1       3.313   3.380  18.540  0.00  0.00    +0.000 A 
ATOM      5  C   UNL     1       2.203   3.425  17.705  0.00  0.00    +0.000 A 
ATOM      6  C   UNL     1       0.958   3.066  18.227  0.00  0.00    +0.000 A 
ATOM      7  C   UNL     1       0.854   2.663  19.549  0.00  0.00    +0.000 A 
ATOM      8  C   UNL     1       2.019   2.573  20.286  0.00  0.00    +0.000 A 
ATOM      9  N   UNL     1       3.236   2.885  19.801  0.00  0.00    +0.000 NA
ENDBRANCH   2   4
BRANCH   1  10
ATOM     10  C   UNL     1       3.929   6.227  18.305  0.00  0.00    +0.000 A 
ATOM     11  C   UNL     1       3.615   7.135  17.284  0.00  0.00    +0.000 A 
ATOM     12  C   UNL     1       2.692   8.155  17.497  0.00  0.00    +0.000 A 
ATOM     13  C   UNL     1       2.076   8.282  18.737  0.00  0.00    +0.000 A 
ATOM     14  C   UNL     1       2.388   7.385  19.759  0.00  0.00    +0.000 A 
ATOM     15  C   UNL     1       3.315   6.362  19.550  0.00  0.00    +0.000 A 
ENDBRANCH   1  10
BRANCH   1  16
ATOM     16  C   UNL     1       6.288   5.827  17.527  0.00  0.00    +0.000 C 
ATOM     17  C   UNL     1       6.211   7.358  17.288  0.00  0.00    +0.000 C 
BRANCH  16  18
ATOM     18  C   UNL     1       6.587   5.233  16.090  0.00  0.00    +0.000 C 
ATOM     19  O   UNL     1       7.566   4.531  15.839  0.00  0.00    +0.000 OA
ATOM     20  N   UNL     1       5.736   5.643  15.086  0.00  0.00    +0.000 N 
ATOM     21  H   UNL     1       4.953   6.227  15.347  0.00  0.00    +0.000 HD
BRANCH  20  22
ATOM     22  C   UNL     1       5.864   5.185  13.716  0.00  0.00    +0.000 C 
ATOM     23  C   UNL     1       7.306   5.052  13.226  0.00  0.00    +0.000 C 
ATOM     24  C   UNL     1       7.225   4.072  12.063  0.00  0.00    +0.000 C 
ATOM     25  C   UNL     1       6.014   3.187  12.337  0.00  0.00    +0.000 C 
ATOM     26  C   UNL     1       5.308   3.774  13.553  0.00  0.00    +0.000 C 
ENDBRANCH  20  22
ENDBRANCH  16  18
BRANCH  16  28
ATOM     27  C   UNL     1       7.478   5.620  19.890  0.00  0.00    +0.000 C 
ATOM     28  C   UNL     1       7.557   5.495  18.378  0.00  0.00    +0.000 C 
ENDBRANCH  16  28
ENDBRANCH   1  16
TORSDOF 6
ENDMDL
MODEL 8
REMARK VINA RESULT:      -6.8      1.582      3.812
REMARK  Name = 
REMARK  8 active torsions:
REMARK  status: ('A' for Active; 'I' for Inactive)
REMARK    1  A    between atoms: C_1  and  C_2
REMARK    2  A    between atoms: C_2  and  C_3
REMARK    3  A    between atoms: C_3  and  C_4
REMARK    4  A    between atoms: C_3  and  C_5
REMARK    5  A    between atoms: C_3  and  N_13
REMARK    6  A    between atoms: N_7  and  C_8
REMARK    7  A    between atoms: N_13  and  C_22
REMARK    8  A    between atoms: C_14  and  C_16
REMARK                            x       y       z     vdW  Elec       q    Type
REMARK                         _______ _______ _______ _____ _____    ______ ____
ROOT
ATOM      1  N   UNL     1       3.767   4.945  18.232  0.00  0.00    +0.000 N 
ATOM      2  C   UNL     1       3.984   6.348  18.147  0.00  0.00    +0.000 C 
ATOM      3  O   UNL     1       5.068   6.837  17.818  0.00  0.00    +0.000 OA
ENDROOT
BRANCH   2   4
ATOM      4  C   UNL     1       2.879   7.342  18.467  0.00  0.00    +0.000 A 
ATOM      5  C   UNL     1       2.387   8.165  17.460  0.00  0.00    +0.000 A 
ATOM      6  C   UNL     1       1.465   9.158  17.799  0.00  0.00    +0.000 A 
ATOM      7  C   UNL     1       1.052   9.297  19.114  0.00  0.00    +0.000 A 
ATOM      8  C   UNL     1       1.533   8.389  20.037  0.00  0.00    +0.000 A 
ATOM      9  N   UNL     1       2.400   7.404  19.734  0.00  0.00    +0.000 NA
ENDBRANCH   2   4
BRANCH   1  10
ATOM     10  C   UNL     1       2.623   4.471  18.951  0.00  0.00    +0.000 A 
ATOM     11  C   UNL     1       2.687   4.382  20.349  0.00  0.00    +0.000 A 
ATOM     12  C   UNL     1       1.648   3.804  21.073  0.00  0.00    +0.000 A 
ATOM     13  C   UNL     1       0.535   3.303  20.406  0.00  0.00    +0.000 A 
ATOM     14  C   UNL     1       0.468   3.384  19.015  0.00  0.00    +0.000 A 
ATOM     15  C   UNL     1       1.509   3.961  18.284  0.00  0.00    +0.000 A 
ENDBRANCH   1  10
BRANCH   1  16
ATOM     16  C   UNL     1       4.882   3.934  17.983  0.00  0.00    +0.000 C 
ATOM     17  C   UNL     1       5.943   3.962  19.115  0.00  0.00    +0.000 C 
BRANCH  16  18
ATOM     18  C   UNL     1       5.707   4.293  16.681  0.00  0.00    +0.000 C 
ATOM     19  O   UNL     1       6.917   4.516  16.686  0.00  0.00    +0.000 OA
ATOM     20  N   UNL     1       4.964   4.456  15.531  0.00  0.00    +0.000 N 
ATOM     21  H   UNL     1       3.972   4.268  15.584  0.00  0.00    +0.000 HD
BRANCH  20  22
ATOM     22  C   UNL     1       5.564   4.776  14.249  0.00  0.00    +0.000 C 
ATOM     23  C   UNL     1       7.046   5.147  14.321  0.00  0.00    +0.000 C 
ATOM     24  C   UNL     1       7.573   4.885  12.916  0.00  0.00    +0.000 C 
ATOM     25  C   UNL     1       6.684   3.797  12.325  0.00  0.00    +0.000 C 
ATOM     26  C   UNL     1       5.551   3.568  13.318  0.00  0.00    +0.000 C 
ENDBRANCH  20  22
ENDBRANCH  16  18
BRANCH  16  28
ATOM     27  C   UNL     1       4.278   1.543  18.965  0.00  0.00    +0.000 C 
ATOM     28  C   UNL     1       4.392   2.465  17.763  0.00  0.00    +0.000 C 
ENDBRANCH  16  28
ENDBRANCH   1  16
TORSDOF 6
ENDMDL
MODEL 9
REMARK VINA RESULT:      -6.4      8.987     12.110
REMARK  Name = 
REMARK  8 active torsions:
REMARK  status: ('A' for Active; 'I' for Inactive)
REMARK    1  A    between atoms: C_1  and  C_2
REMARK    2  A    between atoms: C_2  and  C_3
REMARK    3  A    between atoms: C_3  and  C_4
REMARK    4  A    between atoms: C_3  and  C_5
REMARK    5  A    between atoms: C_3  and  N_13
REMARK    6  A    between atoms: N_7  and  C_8
REMARK    7  A    between atoms: N_13  and  C_22
REMARK    8  A    between atoms: C_14  and  C_16
REMARK                            x       y       z     vdW  Elec       q    Type
REMARK                         _______ _______ _______ _____ _____    ______ ____
ROOT
ATOM      1  N   UNL     1       8.017  14.004  21.354  0.00  0.00    +0.000 N 
ATOM      2  C   UNL     1       8.827  12.877  21.665  0.00  0.00    +0.000 C 
ATOM      3  O   UNL     1       8.864  12.372  22.790  0.00  0.00    +0.000 OA
ENDROOT
BRANCH   2   4
ATOM      4  C   UNL     1       9.711  12.223  20.615  0.00  0.00    +0.000 A 
ATOM      5  C   UNL     1      11.075  12.488  20.610  0.00  0.00    +0.000 A 
ATOM      6  C   UNL     1      11.851  11.982  19.564  0.00  0.00    +0.000 A 
ATOM      7  C   UNL     1      11.257  11.223  18.569  0.00  0.00    +0.000 A 
ATOM      8  C   UNL     1       9.910  10.943  18.692  0.00  0.00    +0.000 A 
ATOM      9  N   UNL     1       9.143  11.393  19.705  0.00  0.00    +0.000 NA
ENDBRANCH   2   4
BRANCH   1  10
ATOM     10  C   UNL     1       8.293  14.737  20.156  0.00  0.00    +0.000 A 
ATOM     11  C   UNL     1       9.278  15.735  20.180  0.00  0.00    +0.000 A 
ATOM     12  C   UNL     1       9.485  16.558  19.076  0.00  0.00    +0.000 A 
ATOM     13  C   UNL     1       8.704  16.395  17.937  0.00  0.00    +0.000 A 
ATOM     14  C   UNL     1       7.719  15.408  17.909  0.00  0.00    +0.000 A 
ATOM     15  C   UNL     1       7.507  14.582  19.015  0.00  0.00    +0.000 A 
ENDBRANCH   1  10
BRANCH   1  16
ATOM     16  C   UNL     1       7.178  14.718  22.411  0.00  0.00    +0.000 C 
ATOM     17  C   UNL     1       8.061  15.296  23.548  0.00  0.00    +0.000 C 
BRANCH  16  18
ATOM     18  C   UNL     1       6.210  13.711  23.156  0.00  0.00    +0.000 C 
ATOM     19  O   UNL     1       5.207  13.225  22.635  0.00  0.00    +0.000 OA
ATOM     20  N   UNL     1       6.493  13.487  24.487  0.00  0.00    +0.000 N 
ATOM     21  H   UNL     1       7.325  13.917  24.867  0.00  0.00    +0.000 HD
BRANCH  20  22
ATOM     22  C   UNL     1       5.712  12.584  25.312  0.00  0.00    +0.000 C 
ATOM     23  C   UNL     1       6.434  11.292  25.693  0.00  0.00    +0.000 C 
ATOM     24  C   UNL     1       5.714  10.806  26.944  0.00  0.00    +0.000 C 
ATOM     25  C   UNL     1       5.146  12.051  27.617  0.00  0.00    +0.000 C 
ATOM     26  C   UNL     1       5.389  13.214  26.663  0.00  0.00    +0.000 C 
ENDBRANCH  20  22
ENDBRANCH  16  18
BRANCH  16  28
ATOM     27  C   UNL     1       6.519  17.283  22.242  0.00  0.00    +0.000 C 
ATOM     28  C   UNL     1       6.245  15.841  21.851  0.00  0.00    +0.000 C 
ENDBRANCH  16  28
ENDBRANCH   1  16
TORSDOF 6
ENDMDL
