MODEL 1
REMARK VINA RESULT:      -6.8      0.000      0.000
REMARK  Name = 
REMARK  13 active torsions:
REMARK  status: ('A' for Active; 'I' for Inactive)
REMARK    1  A    between atoms: C_1  and  O_2
REMARK    2  A    between atoms: O_2  and  C_3
REMARK    3  A    between atoms: C_3  and  C_5
REMARK    4  A    between atoms: C_5  and  O_6
REMARK    5  A    between atoms: C_9  and  C_10
REMARK    6  A    between atoms: C_10  and  C_11
REMARK    7  A    between atoms: C_12  and  C_13
REMARK    8  A    between atoms: C_12  and  C_14
REMARK    9  A    between atoms: C_16  and  O_17
REMARK   10  A    between atoms: C_18  and  C_19
REMARK   11  A    between atoms: C_18  and  C_20
REMARK   12  A    between atoms: C_23  and  C_24
REMARK   13  A    between atoms: C_24  and  C_25
REMARK                            x       y       z     vdW  Elec       q    Type
REMARK                         _______ _______ _______ _____ _____    ______ ____
ROOT
ATOM      1  C   UNL     1       5.151   5.997  18.313  0.00  0.00    +0.000 C 
ATOM      2  C   UNL     1       5.554   4.554  18.033  0.00  0.00    +0.000 C 
ATOM      3  O   UNL     1       6.730   4.200  18.157  0.00  0.00    +0.000 OA
ATOM      4  C   UNL     1       4.400   3.601  17.670  0.00  0.00    +0.000 C 
ATOM      5  C   UNL     1       4.165   2.432  18.619  0.00  0.00    +0.000 C 
ATOM      6  C   UNL     1       2.719   1.917  18.442  0.00  0.00    +0.000 C 
ATOM      7  C   UNL     1       1.765   2.951  19.040  0.00  0.00    +0.000 C 
ATOM      8  C   UNL     1       0.300   2.537  18.794  0.00  0.00    +0.000 C 
ATOM      9  C   UNL     1       1.990   3.042  20.562  0.00  0.00    +0.000 C 
ATOM     10  O   UNL     1       1.962   4.201  18.324  0.00  0.00    +0.000 OA
ATOM     11  C   UNL     1       3.251   4.606  18.002  0.00  0.00    +0.000 C 
ATOM     12  C   UNL     1       3.666   5.853  18.315  0.00  0.00    +0.000 C 
ENDROOT
BRANCH  12  13
ATOM     13  C   UNL     1       2.870   7.036  18.755  0.00  0.00    +0.000 C 
ATOM     14  C   UNL     1       2.446   8.097  17.779  0.00  0.00    +0.000 C 
ATOM     15  O   UNL     1       2.554   7.138  19.947  0.00  0.00    +0.000 OA
ENDBRANCH  12  13
BRANCH   1  16
ATOM     16  C   UNL     1       5.561   6.963  17.175  0.00  0.00    +0.000 C 
ATOM     17  O   UNL     1       5.166   6.863  16.011  0.00  0.00    +0.000 OA
BRANCH  16  19
ATOM     18  C   UNL     1       7.809   7.672  17.501  0.00  0.00    +0.000 C 
ATOM     19  O   UNL     1       6.405   7.944  17.619  0.00  0.00    +0.000 OA
ENDBRANCH  16  19
ENDBRANCH   1  16
BRANCH   1  20
ATOM     20  O   UNL     1       5.597   6.219  19.646  0.00  0.00    +0.000 OA
ATOM     21  H   UNL     1       6.314   5.577  19.809  0.00  0.00    +0.000 HD
ENDBRANCH   1  20
BRANCH   6  22
ATOM     22  O   UNL     1       2.339   1.732  17.078  0.00  0.00    +0.000 OA
ATOM     23  H   UNL     1       1.606   2.339  16.849  0.00  0.00    +0.000 HD
ENDBRANCH   6  22
BRANCH   4  24
ATOM     24  C   UNL     1       4.778   2.993  16.242  0.00  0.00    +0.000 C 
BRANCH  24  25
ATOM     25  C   UNL     1       5.847   3.801  15.466  0.00  0.00    +0.000 C 
ATOM     26  C   UNL     1       6.043   4.046  14.149  0.00  0.00    +0.000 C 
ATOM     27  C   UNL     1       5.169   3.598  13.009  0.00  0.00    +0.000 C 
ATOM     28  C   UNL     1       7.270   4.792  13.653  0.00  0.00    +0.000 C 
ENDBRANCH  24  25
ENDBRANCH   4  24
TORSDOF 7
ENDMDL
MODEL 2
REMARK VINA RESULT:      -6.7      1.789      5.896
REMARK  Name = 
REMARK  13 active torsions:
REMARK  status: ('A' for Active; 'I' for Inactive)
REMARK    1  A    between atoms: C_1  and  O_2
REMARK    2  A    between atoms: O_2  and  C_3
REMARK    3  A    between atoms: C_3  and  C_5
REMARK    4  A    between atoms: C_5  and  O_6
REMARK    5  A    between atoms: C_9  and  C_10
REMARK    6  A    between atoms: C_10  and  C_11
REMARK    7  A    between atoms: C_12  and  C_13
REMARK    8  A    between atoms: C_12  and  C_14
REMARK    9  A    between atoms: C_16  and  O_17
REMARK   10  A    between atoms: C_18  and  C_19
REMARK   11  A    between atoms: C_18  and  C_20
REMARK   12  A    between atoms: C_23  and  C_24
REMARK   13  A    between atoms: C_24  and  C_25
REMARK                            x       y       z     vdW  Elec       q    Type
REMARK                         _______ _______ _______ _____ _____    ______ ____
ROOT
ATOM      1  C   UNL     1       2.951   4.583  19.882  0.00  0.00    +0.000 C 
ATOM      2  C   UNL     1       3.102   6.041  19.466  0.00  0.00    +0.000 C 
ATOM      3  O   UNL     1       2.727   6.946  20.218  0.00  0.00    +0.000 OA
ATOM      4  C   UNL     1       3.803   6.278  18.116  0.00  0.00    +0.000 C 
ATOM      5  C   UNL     1       5.107   7.065  18.160  0.00  0.00    +0.000 C 
ATOM      6  C   UNL     1       5.928   6.761  16.886  0.00  0.00    +0.000 C 
ATOM      7  C   UNL     1       6.465   5.334  16.990  0.00  0.00    +0.000 C 
ATOM      8  C   UNL     1       7.202   4.940  15.694  0.00  0.00    +0.000 C 
ATOM      9  C   UNL     1       7.465   5.242  18.159  0.00  0.00    +0.000 C 
ATOM     10  O   UNL     1       5.324   4.438  17.100  0.00  0.00    +0.000 OA
ATOM     11  C   UNL     1       4.251   4.797  17.906  0.00  0.00    +0.000 C 
ATOM     12  C   UNL     1       3.779   3.929  18.827  0.00  0.00    +0.000 C 
ENDROOT
BRANCH  12  13
ATOM     13  C   UNL     1       4.055   2.471  18.989  0.00  0.00    +0.000 C 
ATOM     14  C   UNL     1       3.460   1.457  18.054  0.00  0.00    +0.000 C 
ATOM     15  O   UNL     1       4.792   2.097  19.910  0.00  0.00    +0.000 OA
ENDBRANCH  12  13
BRANCH   1  16
ATOM     16  C   UNL     1       1.493   4.076  19.762  0.00  0.00    +0.000 C 
ATOM     17  O   UNL     1       0.896   3.942  18.691  0.00  0.00    +0.000 OA
BRANCH  16  19
ATOM     18  C   UNL     1       1.347   2.539  21.573  0.00  0.00    +0.000 C 
ATOM     19  O   UNL     1       0.952   3.787  20.986  0.00  0.00    +0.000 OA
ENDBRANCH  16  19
ENDBRANCH   1  16
BRANCH   1  20
ATOM     20  O   UNL     1       3.641   4.512  21.124  0.00  0.00    +0.000 OA
ATOM     21  H   UNL     1       3.939   3.587  21.223  0.00  0.00    +0.000 HD
ENDBRANCH   1  20
BRANCH   6  22
ATOM     22  O   UNL     1       5.164   6.837  15.681  0.00  0.00    +0.000 OA
ATOM     23  H   UNL     1       5.274   6.014  15.162  0.00  0.00    +0.000 HD
ENDBRANCH   6  22
BRANCH   4  24
ATOM     24  C   UNL     1       2.767   7.114  17.234  0.00  0.00    +0.000 C 
BRANCH  24  25
ATOM     25  C   UNL     1       2.788   8.640  17.498  0.00  0.00    +0.000 C 
ATOM     26  C   UNL     1       1.831   9.530  17.853  0.00  0.00    +0.000 C 
ATOM     27  C   UNL     1       0.388   9.228  18.155  0.00  0.00    +0.000 C 
ATOM     28  C   UNL     1       2.119  11.020  17.929  0.00  0.00    +0.000 C 
ENDBRANCH  24  25
ENDBRANCH   4  24
TORSDOF 7
ENDMDL
MODEL 3
REMARK VINA RESULT:      -6.1      5.871      8.817
REMARK  Name = 
REMARK  13 active torsions:
REMARK  status: ('A' for Active; 'I' for Inactive)
REMARK    1  A    between atoms: C_1  and  O_2
REMARK    2  A    between atoms: O_2  and  C_3
REMARK    3  A    between atoms: C_3  and  C_5
REMARK    4  A    between atoms: C_5  and  O_6
REMARK    5  A    between atoms: C_9  and  C_10
REMARK    6  A    between atoms: C_10  and  C_11
REMARK    7  A    between atoms: C_12  and  C_13
REMARK    8  A    between atoms: C_12  and  C_14
REMARK    9  A    between atoms: C_16  and  O_17
REMARK   10  A    between atoms: C_18  and  C_19
REMARK   11  A    between atoms: C_18  and  C_20
REMARK   12  A    between atoms: C_23  and  C_24
REMARK   13  A    between atoms: C_24  and  C_25
REMARK                            x       y       z     vdW  Elec       q    Type
REMARK                         _______ _______ _______ _____ _____    ______ ____
ROOT
ATOM      1  C   UNL     1       0.661  13.048  20.975  0.00  0.00    +0.000 C 
ATOM      2  C   UNL     1       0.714  11.536  20.792  0.00  0.00    +0.000 C 
ATOM      3  O   UNL     1       1.114  10.810  21.707  0.00  0.00    +0.000 OA
ATOM      4  C   UNL     1       0.176  11.010  19.448  0.00  0.00    +0.000 C 
ATOM      5  C   UNL     1      -1.031  10.082  19.520  0.00  0.00    +0.000 C 
ATOM      6  C   UNL     1      -1.755  10.084  18.154  0.00  0.00    +0.000 C 
ATOM      7  C   UNL     1      -2.455  11.431  17.984  0.00  0.00    +0.000 C 
ATOM      8  C   UNL     1      -3.105  11.528  16.588  0.00  0.00    +0.000 C 
ATOM      9  C   UNL     1      -3.566  11.573  19.042  0.00  0.00    +0.000 C 
ATOM     10  O   UNL     1      -1.437  12.469  18.033  0.00  0.00    +0.000 OA
ATOM     11  C   UNL     1      -0.413  12.375  18.966  0.00  0.00    +0.000 C 
ATOM     12  C   UNL     1      -0.130  13.425  19.768  0.00  0.00    +0.000 C 
ENDROOT
BRANCH  12  13
ATOM     13  C   UNL     1      -0.582  14.844  19.669  0.00  0.00    +0.000 C 
ATOM     14  C   UNL     1       0.000  15.777  18.645  0.00  0.00    +0.000 C 
ATOM     15  O   UNL     1      -1.454  15.252  20.445  0.00  0.00    +0.000 OA
ENDBRANCH  12  13
BRANCH   1  16
ATOM     16  C   UNL     1       2.058  13.709  20.886  0.00  0.00    +0.000 C 
ATOM     17  O   UNL     1       2.787  13.649  19.894  0.00  0.00    +0.000 OA
BRANCH  16  19
ATOM     18  C   UNL     1       2.368  15.807  21.966  0.00  0.00    +0.000 C 
ATOM     19  O   UNL     1       2.381  14.374  22.038  0.00  0.00    +0.000 OA
ENDBRANCH  16  19
ENDBRANCH   1  16
BRANCH   1  20
ATOM     20  O   UNL     1      -0.148  13.220  22.133  0.00  0.00    +0.000 OA
ATOM     21  H   UNL     1      -0.682  14.023  21.980  0.00  0.00    +0.000 HD
ENDBRANCH   1  20
BRANCH   6  22
ATOM     22  O   UNL     1      -0.876   9.921  17.040  0.00  0.00    +0.000 OA
ATOM     23  H   UNL     1      -1.333   9.438  16.321  0.00  0.00    +0.000 HD
ENDBRANCH   6  22
BRANCH   4  24
ATOM     24  C   UNL     1       1.378  10.186  18.796  0.00  0.00    +0.000 C 
BRANCH  24  25
ATOM     25  C   UNL     1       1.584   8.773  19.395  0.00  0.00    +0.000 C 
ATOM     26  C   UNL     1       2.299   7.695  18.995  0.00  0.00    +0.000 C 
ATOM     27  C   UNL     1       3.192   7.604  17.788  0.00  0.00    +0.000 C 
ATOM     28  C   UNL     1       2.221   6.370  19.735  0.00  0.00    +0.000 C 
ENDBRANCH  24  25
ENDBRANCH   4  24
TORSDOF 7
ENDMDL
MODEL 4
REMARK VINA RESULT:      -6.1      1.564      5.507
REMARK  Name = 
REMARK  13 active torsions:
REMARK  status: ('A' for Active; 'I' for Inactive)
REMARK    1  A    between atoms: C_1  and  O_2
REMARK    2  A    between atoms: O_2  and  C_3
REMARK    3  A    between atoms: C_3  and  C_5
REMARK    4  A    between atoms: C_5  and  O_6
REMARK    5  A    between atoms: C_9  and  C_10
REMARK    6  A    between atoms: C_10  and  C_11
REMARK    7  A    between atoms: C_12  and  C_13
REMARK    8  A    between atoms: C_12  and  C_14
REMARK    9  A    between atoms: C_16  and  O_17
REMARK   10  A    between atoms: C_18  and  C_19
REMARK   11  A    between atoms: C_18  and  C_20
REMARK   12  A    between atoms: C_23  and  C_24
REMARK   13  A    between atoms: C_24  and  C_25
REMARK                            x       y       z     vdW  Elec       q    Type
REMARK                         _______ _______ _______ _____ _____    ______ ____
ROOT
ATOM      1  C   UNL     1       4.337   3.950  19.425  0.00  0.00    +0.000 C 
ATOM      2  C   UNL     1       5.181   5.186  19.139  0.00  0.00    +0.000 C 
ATOM      3  O   UNL     1       5.922   5.650  20.010  0.00  0.00    +0.000 OA
ATOM      4  C   UNL     1       5.090   5.735  17.703  0.00  0.00    +0.000 C 
ATOM      5  C   UNL     1       6.383   5.738  16.896  0.00  0.00    +0.000 C 
ATOM      6  C   UNL     1       6.041   5.791  15.390  0.00  0.00    +0.000 C 
ATOM      7  C   UNL     1       5.466   4.437  14.980  0.00  0.00    +0.000 C 
ATOM      8  C   UNL     1       5.007   4.470  13.507  0.00  0.00    +0.000 C 
ATOM      9  C   UNL     1       6.550   3.351  15.121  0.00  0.00    +0.000 C 
ATOM     10  O   UNL     1       4.270   4.204  15.775  0.00  0.00    +0.000 OA
ATOM     11  C   UNL     1       4.275   4.535  17.124  0.00  0.00    +0.000 C 
ATOM     12  C   UNL     1       3.877   3.628  18.043  0.00  0.00    +0.000 C 
ENDROOT
BRANCH  12  13
ATOM     13  C   UNL     1       3.157   2.334  17.851  0.00  0.00    +0.000 C 
ATOM     14  C   UNL     1       1.658   2.281  17.770  0.00  0.00    +0.000 C 
ATOM     15  O   UNL     1       3.814   1.290  17.755  0.00  0.00    +0.000 OA
ENDBRANCH  12  13
BRANCH   1  16
ATOM     16  C   UNL     1       3.103   4.261  20.306  0.00  0.00    +0.000 C 
ATOM     17  O   UNL     1       2.448   5.304  20.231  0.00  0.00    +0.000 OA
BRANCH  16  19
ATOM     18  C   UNL     1       1.432   2.968  21.401  0.00  0.00    +0.000 C 
ATOM     19  O   UNL     1       2.822   3.237  21.169  0.00  0.00    +0.000 OA
ENDBRANCH  16  19
ENDBRANCH   1  16
BRANCH   1  20
ATOM     20  O   UNL     1       5.291   2.977  19.835  0.00  0.00    +0.000 OA
ATOM     21  H   UNL     1       5.085   2.761  20.765  0.00  0.00    +0.000 HD
ENDBRANCH   1  20
BRANCH   6  22
ATOM     22  O   UNL     1       5.068   6.782  15.058  0.00  0.00    +0.000 OA
ATOM     23  H   UNL     1       4.974   6.847  14.085  0.00  0.00    +0.000 HD
ENDBRANCH   6  22
BRANCH   4  24
ATOM     24  C   UNL     1       4.613   7.251  17.852  0.00  0.00    +0.000 C 
BRANCH  24  25
ATOM     25  C   UNL     1       3.079   7.451  17.775  0.00  0.00    +0.000 C 
ATOM     26  C   UNL     1       2.288   8.549  17.794  0.00  0.00    +0.000 C 
ATOM     27  C   UNL     1       2.740   9.983  17.850  0.00  0.00    +0.000 C 
ATOM     28  C   UNL     1       0.773   8.437  17.821  0.00  0.00    +0.000 C 
ENDBRANCH  24  25
ENDBRANCH   4  24
TORSDOF 7
ENDMDL
MODEL 5
REMARK VINA RESULT:      -6.0      1.591      5.837
REMARK  Name = 
REMARK  13 active torsions:
REMARK  status: ('A' for Active; 'I' for Inactive)
REMARK    1  A    between atoms: C_1  and  O_2
REMARK    2  A    between atoms: O_2  and  C_3
REMARK    3  A    between atoms: C_3  and  C_5
REMARK    4  A    between atoms: C_5  and  O_6
REMARK    5  A    between atoms: C_9  and  C_10
REMARK    6  A    between atoms: C_10  and  C_11
REMARK    7  A    between atoms: C_12  and  C_13
REMARK    8  A    between atoms: C_12  and  C_14
REMARK    9  A    between atoms: C_16  and  O_17
REMARK   10  A    between atoms: C_18  and  C_19
REMARK   11  A    between atoms: C_18  and  C_20
REMARK   12  A    between atoms: C_23  and  C_24
REMARK   13  A    between atoms: C_24  and  C_25
REMARK                            x       y       z     vdW  Elec       q    Type
REMARK                         _______ _______ _______ _____ _____    ______ ____
ROOT
ATOM      1  C   UNL     1       3.462   4.150  19.377  0.00  0.00    +0.000 C 
ATOM      2  C   UNL     1       4.088   5.527  19.188  0.00  0.00    +0.000 C 
ATOM      3  O   UNL     1       4.418   6.202  20.168  0.00  0.00    +0.000 OA
ATOM      4  C   UNL     1       4.333   5.950  17.728  0.00  0.00    +0.000 C 
ATOM      5  C   UNL     1       5.783   6.200  17.330  0.00  0.00    +0.000 C 
ATOM      6  C   UNL     1       5.916   6.081  15.795  0.00  0.00    +0.000 C 
ATOM      7  C   UNL     1       5.777   4.608  15.414  0.00  0.00    +0.000 C 
ATOM      8  C   UNL     1       5.794   4.444  13.880  0.00  0.00    +0.000 C 
ATOM      9  C   UNL     1       6.960   3.810  15.996  0.00  0.00    +0.000 C 
ATOM     10  O   UNL     1       4.468   4.157  15.858  0.00  0.00    +0.000 OA
ATOM     11  C   UNL     1       3.992   4.562  17.098  0.00  0.00    +0.000 C 
ATOM     12  C   UNL     1       3.522   3.647  17.974  0.00  0.00    +0.000 C 
ENDROOT
BRANCH  12  13
ATOM     13  C   UNL     1       3.170   2.213  17.752  0.00  0.00    +0.000 C 
ATOM     14  C   UNL     1       4.026   1.107  18.300  0.00  0.00    +0.000 C 
ATOM     15  O   UNL     1       2.151   1.938  17.106  0.00  0.00    +0.000 OA
ENDBRANCH  12  13
BRANCH   1  16
ATOM     16  C   UNL     1       1.981   4.224  19.822  0.00  0.00    +0.000 C 
ATOM     17  O   UNL     1       1.041   4.434  19.053  0.00  0.00    +0.000 OA
BRANCH  16  19
ATOM     18  C   UNL     1       1.412   2.712  21.569  0.00  0.00    +0.000 C 
ATOM     19  O   UNL     1       1.844   4.021  21.168  0.00  0.00    +0.000 OA
ENDBRANCH  16  19
ENDBRANCH   1  16
BRANCH   1  20
ATOM     20  O   UNL     1       4.419   3.449  20.162  0.00  0.00    +0.000 OA
ATOM     21  H   UNL     1       3.914   2.948  20.831  0.00  0.00    +0.000 HD
ENDBRANCH   1  20
BRANCH   6  22
ATOM     22  O   UNL     1       4.913   6.799  15.075  0.00  0.00    +0.000 OA
ATOM     23  H   UNL     1       4.109   6.248  14.980  0.00  0.00    +0.000 HD
ENDBRANCH   6  22
BRANCH   4  24
ATOM     24  C   UNL     1       3.540   7.324  17.540  0.00  0.00    +0.000 C 
BRANCH  24  25
ATOM     25  C   UNL     1       2.538   7.644  18.677  0.00  0.00    +0.000 C 
ATOM     26  C   UNL     1       1.769   8.723  18.953  0.00  0.00    +0.000 C 
ATOM     27  C   UNL     1       1.644   9.976  18.128  0.00  0.00    +0.000 C 
ATOM     28  C   UNL     1       0.951   8.810  20.230  0.00  0.00    +0.000 C 
ENDBRANCH  24  25
ENDBRANCH   4  24
TORSDOF 7
ENDMDL
MODEL 6
REMARK VINA RESULT:      -5.9      8.070     11.709
REMARK  Name = 
REMARK  13 active torsions:
REMARK  status: ('A' for Active; 'I' for Inactive)
REMARK    1  A    between atoms: C_1  and  O_2
REMARK    2  A    between atoms: O_2  and  C_3
REMARK    3  A    between atoms: C_3  and  C_5
REMARK    4  A    between atoms: C_5  and  O_6
REMARK    5  A    between atoms: C_9  and  C_10
REMARK    6  A    between atoms: C_10  and  C_11
REMARK    7  A    between atoms: C_12  and  C_13
REMARK    8  A    between atoms: C_12  and  C_14
REMARK    9  A    between atoms: C_16  and  O_17
REMARK   10  A    between atoms: C_18  and  C_19
REMARK   11  A    between atoms: C_18  and  C_20
REMARK   12  A    between atoms: C_23  and  C_24
REMARK   13  A    between atoms: C_24  and  C_25
REMARK                            x       y       z     vdW  Elec       q    Type
REMARK                         _______ _______ _______ _____ _____    ______ ____
ROOT
ATOM      1  C   UNL     1      -1.175  12.221  18.560  0.00  0.00    +0.000 C 
ATOM      2  C   UNL     1      -1.704  13.024  19.743  0.00  0.00    +0.000 C 
ATOM      3  O   UNL     1      -1.069  13.990  20.175  0.00  0.00    +0.000 OA
ATOM      4  C   UNL     1      -3.081  12.589  20.278  0.00  0.00    +0.000 C 
ATOM      5  C   UNL     1      -4.196  13.625  20.198  0.00  0.00    +0.000 C 
ATOM      6  C   UNL     1      -5.563  12.905  20.252  0.00  0.00    +0.000 C 
ATOM      7  C   UNL     1      -5.773  12.173  18.928  0.00  0.00    +0.000 C 
ATOM      8  C   UNL     1      -7.075  11.348  18.970  0.00  0.00    +0.000 C 
ATOM      9  C   UNL     1      -5.889  13.198  17.784  0.00  0.00    +0.000 C 
ATOM     10  O   UNL     1      -4.688  11.216  18.774  0.00  0.00    +0.000 OA
ATOM     11  C   UNL     1      -3.396  11.590  19.120  0.00  0.00    +0.000 C 
ATOM     12  C   UNL     1      -2.381  11.400  18.248  0.00  0.00    +0.000 C 
ENDROOT
BRANCH  12  13
ATOM     13  C   UNL     1      -2.344  10.589  16.996  0.00  0.00    +0.000 C 
ATOM     14  C   UNL     1      -3.054  11.044  15.752  0.00  0.00    +0.000 C 
ATOM     15  O   UNL     1      -1.713   9.525  16.987  0.00  0.00    +0.000 OA
ENDBRANCH  12  13
BRANCH   1  16
ATOM     16  C   UNL     1      -0.012  11.278  18.952  0.00  0.00    +0.000 C 
ATOM     17  O   UNL     1       1.099  11.297  18.420  0.00  0.00    +0.000 OA
BRANCH  16  19
ATOM     18  C   UNL     1       0.541  10.356  21.076  0.00  0.00    +0.000 C 
ATOM     19  O   UNL     1      -0.366  10.428  19.966  0.00  0.00    +0.000 OA
ENDBRANCH  16  19
ENDBRANCH   1  16
BRANCH   1  20
ATOM     20  O   UNL     1      -1.002  13.197  17.539  0.00  0.00    +0.000 OA
ATOM     21  H   UNL     1      -0.723  14.019  17.986  0.00  0.00    +0.000 HD
ENDBRANCH   1  20
BRANCH   6  22
ATOM     22  O   UNL     1      -5.656  11.931  21.293  0.00  0.00    +0.000 OA
ATOM     23  H   UNL     1      -4.761  11.707  21.623  0.00  0.00    +0.000 HD
ENDBRANCH   6  22
BRANCH   4  24
ATOM     24  C   UNL     1      -2.853  12.248  21.821  0.00  0.00    +0.000 C 
BRANCH  24  25
ATOM     25  C   UNL     1      -2.995  13.461  22.773  0.00  0.00    +0.000 C 
ATOM     26  C   UNL     1      -3.619  13.635  23.962  0.00  0.00    +0.000 C 
ATOM     27  C   UNL     1      -4.356  12.589  24.753  0.00  0.00    +0.000 C 
ATOM     28  C   UNL     1      -3.694  14.998  24.629  0.00  0.00    +0.000 C 
ENDBRANCH  24  25
ENDBRANCH   4  24
TORSDOF 7
ENDMDL
MODEL 7
REMARK VINA RESULT:      -5.9      7.897     11.896
REMARK  Name = 
REMARK  13 active torsions:
REMARK  status: ('A' for Active; 'I' for Inactive)
REMARK    1  A    between atoms: C_1  and  O_2
REMARK    2  A    between atoms: O_2  and  C_3
REMARK    3  A    between atoms: C_3  and  C_5
REMARK    4  A    between atoms: C_5  and  O_6
REMARK    5  A    between atoms: C_9  and  C_10
REMARK    6  A    between atoms: C_10  and  C_11
REMARK    7  A    between atoms: C_12  and  C_13
REMARK    8  A    between atoms: C_12  and  C_14
REMARK    9  A    between atoms: C_16  and  O_17
REMARK   10  A    between atoms: C_18  and  C_19
REMARK   11  A    between atoms: C_18  and  C_20
REMARK   12  A    between atoms: C_23  and  C_24
REMARK   13  A    between atoms: C_24  and  C_25
REMARK                            x       y       z     vdW  Elec       q    Type
REMARK                         _______ _______ _______ _____ _____    ______ ____
ROOT
ATOM      1  C   UNL     1      -3.547  13.370  20.843  0.00  0.00    +0.000 C 
ATOM      2  C   UNL     1      -2.891  12.502  19.776  0.00  0.00    +0.000 C 
ATOM      3  O   UNL     1      -3.583  11.830  19.006  0.00  0.00    +0.000 OA
ATOM      4  C   UNL     1      -1.355  12.592  19.698  0.00  0.00    +0.000 C 
ATOM      5  C   UNL     1      -0.775  13.112  18.389  0.00  0.00    +0.000 C 
ATOM      6  C   UNL     1       0.656  13.640  18.642  0.00  0.00    +0.000 C 
ATOM      7  C   UNL     1       0.554  14.943  19.433  0.00  0.00    +0.000 C 
ATOM      8  C   UNL     1       1.959  15.457  19.807  0.00  0.00    +0.000 C 
ATOM      9  C   UNL     1      -0.138  16.017  18.572  0.00  0.00    +0.000 C 
ATOM     10  O   UNL     1      -0.121  14.648  20.688  0.00  0.00    +0.000 OA
ATOM     11  C   UNL     1      -1.214  13.791  20.688  0.00  0.00    +0.000 C 
ATOM     12  C   UNL     1      -2.366  14.166  21.287  0.00  0.00    +0.000 C 
ENDROOT
BRANCH  12  13
ATOM     13  C   UNL     1      -2.625  15.303  22.219  0.00  0.00    +0.000 C 
ATOM     14  C   UNL     1      -2.057  15.315  23.610  0.00  0.00    +0.000 C 
ATOM     15  O   UNL     1      -3.319  16.251  21.832  0.00  0.00    +0.000 OA
ENDBRANCH  12  13
BRANCH   1  16
ATOM     16  C   UNL     1      -4.076  12.545  22.041  0.00  0.00    +0.000 C 
ATOM     17  O   UNL     1      -3.354  12.051  22.910  0.00  0.00    +0.000 OA
BRANCH  16  19
ATOM     18  C   UNL     1      -6.131  12.970  23.164  0.00  0.00    +0.000 C 
ATOM     19  O   UNL     1      -5.440  12.439  22.023  0.00  0.00    +0.000 OA
ENDBRANCH  16  19
ENDBRANCH   1  16
BRANCH   1  20
ATOM     20  O   UNL     1      -4.422  14.212  20.102  0.00  0.00    +0.000 OA
ATOM     21  H   UNL     1      -4.754  13.678  19.355  0.00  0.00    +0.000 HD
ENDBRANCH   1  20
BRANCH   6  22
ATOM     22  O   UNL     1       1.470  12.746  19.403  0.00  0.00    +0.000 OA
ATOM     23  H   UNL     1       1.555  13.072  20.323  0.00  0.00    +0.000 HD
ENDBRANCH   6  22
BRANCH   4  24
ATOM     24  C   UNL     1      -0.827  11.098  19.898  0.00  0.00    +0.000 C 
BRANCH  24  25
ATOM     25  C   UNL     1      -0.587  10.697  21.375  0.00  0.00    +0.000 C 
ATOM     26  C   UNL     1       0.058   9.659  21.957  0.00  0.00    +0.000 C 
ATOM     27  C   UNL     1       0.812   8.561  21.258  0.00  0.00    +0.000 C 
ATOM     28  C   UNL     1       0.033   9.451  23.462  0.00  0.00    +0.000 C 
ENDBRANCH  24  25
ENDBRANCH   4  24
TORSDOF 7
ENDMDL
MODEL 8
REMARK VINA RESULT:      -5.8      8.873     11.737
REMARK  Name = 
REMARK  13 active torsions:
REMARK  status: ('A' for Active; 'I' for Inactive)
REMARK    1  A    between atoms: C_1  and  O_2
REMARK    2  A    between atoms: O_2  and  C_3
REMARK    3  A    between atoms: C_3  and  C_5
REMARK    4  A    between atoms: C_5  and  O_6
REMARK    5  A    between atoms: C_9  and  C_10
REMARK    6  A    between atoms: C_10  and  C_11
REMARK    7  A    between atoms: C_12  and  C_13
REMARK    8  A    between atoms: C_12  and  C_14
REMARK    9  A    between atoms: C_16  and  O_17
REMARK   10  A    between atoms: C_18  and  C_19
REMARK   11  A    between atoms: C_18  and  C_20
REMARK   12  A    between atoms: C_23  and  C_24
REMARK   13  A    between atoms: C_24  and  C_25
REMARK                            x       y       z     vdW  Elec       q    Type
REMARK                         _______ _______ _______ _____ _____    ______ ____
ROOT
ATOM      1  C   UNL     1      -1.426  14.233  22.626  0.00  0.00    +0.000 C 
ATOM      2  C   UNL     1      -0.308  14.510  21.627  0.00  0.00    +0.000 C 
ATOM      3  O   UNL     1       0.733  15.062  21.994  0.00  0.00    +0.000 OA
ATOM      4  C   UNL     1      -0.552  13.993  20.197  0.00  0.00    +0.000 C 
ATOM      5  C   UNL     1       0.430  12.950  19.679  0.00  0.00    +0.000 C 
ATOM      6  C   UNL     1      -0.226  12.168  18.518  0.00  0.00    +0.000 C 
ATOM      7  C   UNL     1      -1.307  11.260  19.101  0.00  0.00    +0.000 C 
ATOM      8  C   UNL     1      -2.068  10.535  17.973  0.00  0.00    +0.000 C 
ATOM      9  C   UNL     1      -0.655  10.194  20.003  0.00  0.00    +0.000 C 
ATOM     10  O   UNL     1      -2.281  12.106  19.773  0.00  0.00    +0.000 OA
ATOM     11  C   UNL     1      -1.839  13.178  20.538  0.00  0.00    +0.000 C 
ATOM     12  C   UNL     1      -2.286  13.334  21.804  0.00  0.00    +0.000 C 
ENDROOT
BRANCH  12  13
ATOM     13  C   UNL     1      -3.425  12.664  22.498  0.00  0.00    +0.000 C 
ATOM     14  C   UNL     1      -4.847  12.911  22.081  0.00  0.00    +0.000 C 
ATOM     15  O   UNL     1      -3.187  11.888  23.432  0.00  0.00    +0.000 OA
ENDBRANCH  12  13
BRANCH   1  16
ATOM     16  C   UNL     1      -2.230  15.504  22.989  0.00  0.00    +0.000 C 
ATOM     17  O   UNL     1      -2.744  16.256  22.158  0.00  0.00    +0.000 OA
BRANCH  16  19
ATOM     18  C   UNL     1      -3.621  15.608  24.918  0.00  0.00    +0.000 C 
ATOM     19  O   UNL     1      -2.308  15.688  24.343  0.00  0.00    +0.000 OA
ENDBRANCH  16  19
ENDBRANCH   1  16
BRANCH   1  20
ATOM     20  O   UNL     1      -0.789  13.465  23.641  0.00  0.00    +0.000 OA
ATOM     21  H   UNL     1       0.150  13.390  23.383  0.00  0.00    +0.000 HD
ENDBRANCH   1  20
BRANCH   6  22
ATOM     22  O   UNL     1      -0.856  13.005  17.547  0.00  0.00    +0.000 OA
ATOM     23  H   UNL     1      -0.735  12.628  16.651  0.00  0.00    +0.000 HD
ENDBRANCH   6  22
BRANCH   4  24
ATOM     24  C   UNL     1      -0.435  15.275  19.252  0.00  0.00    +0.000 C 
BRANCH  24  25
ATOM     25  C   UNL     1       1.010  15.617  18.813  0.00  0.00    +0.000 C 
ATOM     26  C   UNL     1       1.552  16.671  18.159  0.00  0.00    +0.000 C 
ATOM     27  C   UNL     1       0.833  17.910  17.696  0.00  0.00    +0.000 C 
ATOM     28  C   UNL     1       3.015  16.686  17.750  0.00  0.00    +0.000 C 
ENDBRANCH  24  25
ENDBRANCH   4  24
TORSDOF 7
ENDMDL
MODEL 9
REMARK VINA RESULT:      -5.8      8.367     11.714
REMARK  Name = 
REMARK  13 active torsions:
REMARK  status: ('A' for Active; 'I' for Inactive)
REMARK    1  A    between atoms: C_1  and  O_2
REMARK    2  A    between atoms: O_2  and  C_3
REMARK    3  A    between atoms: C_3  and  C_5
REMARK    4  A    between atoms: C_5  and  O_6
REMARK    5  A    between atoms: C_9  and  C_10
REMARK    6  A    between atoms: C_10  and  C_11
REMARK    7  A    between atoms: C_12  and  C_13
REMARK    8  A    between atoms: C_12  and  C_14
REMARK    9  A    between atoms: C_16  and  O_17
REMARK   10  A    between atoms: C_18  and  C_19
REMARK   11  A    between atoms: C_18  and  C_20
REMARK   12  A    between atoms: C_23  and  C_24
REMARK   13  A    between atoms: C_24  and  C_25
REMARK                            x       y       z     vdW  Elec       q    Type
REMARK                         _______ _______ _______ _____ _____    ______ ____
ROOT
ATOM      1  C   UNL     1      -1.205  14.129  22.612  0.00  0.00    +0.000 C 
ATOM      2  C   UNL     1       0.131  14.226  21.885  0.00  0.00    +0.000 C 
ATOM      3  O   UNL     1       1.125  14.671  22.464  0.00  0.00    +0.000 OA
ATOM      4  C   UNL     1       0.146  13.673  20.448  0.00  0.00    +0.000 C 
ATOM      5  C   UNL     1       1.082  12.499  20.185  0.00  0.00    +0.000 C 
ATOM      6  C   UNL     1       0.607  11.743  18.924  0.00  0.00    +0.000 C 
ATOM      7  C   UNL     1      -0.680  10.995  19.269  0.00  0.00    +0.000 C 
ATOM      8  C   UNL     1      -1.258  10.310  18.014  0.00  0.00    +0.000 C 
ATOM      9  C   UNL     1      -0.380   9.906  20.317  0.00  0.00    +0.000 C 
ATOM     10  O   UNL     1      -1.667  11.980  19.686  0.00  0.00    +0.000 OA
ATOM     11  C   UNL     1      -1.276  13.029  20.508  0.00  0.00    +0.000 C 
ATOM     12  C   UNL     1      -1.968  13.296  21.638  0.00  0.00    +0.000 C 
ENDROOT
BRANCH  12  13
ATOM     13  C   UNL     1      -3.305  12.797  22.072  0.00  0.00    +0.000 C 
ATOM     14  C   UNL     1      -4.554  13.151  21.315  0.00  0.00    +0.000 C 
ATOM     15  O   UNL     1      -3.380  12.074  23.074  0.00  0.00    +0.000 OA
ENDBRANCH  12  13
BRANCH   1  16
ATOM     16  C   UNL     1      -1.906  15.501  22.759  0.00  0.00    +0.000 C 
ATOM     17  O   UNL     1      -2.249  16.204  21.806  0.00  0.00    +0.000 OA
BRANCH  16  19
ATOM     18  C   UNL     1      -3.440  15.654  24.572  0.00  0.00    +0.000 C 
ATOM     19  O   UNL     1      -2.107  15.832  24.071  0.00  0.00    +0.000 OA
ENDBRANCH  16  19
ENDBRANCH   1  16
BRANCH   1  20
ATOM     20  O   UNL     1      -0.907  13.342  23.760  0.00  0.00    +0.000 OA
ATOM     21  H   UNL     1      -1.424  12.518  23.673  0.00  0.00    +0.000 HD
ENDBRANCH   1  20
BRANCH   6  22
ATOM     22  O   UNL     1       0.314  12.599  17.819  0.00  0.00    +0.000 OA
ATOM     23  H   UNL     1       0.993  13.302  17.751  0.00  0.00    +0.000 HD
ENDBRANCH   6  22
BRANCH   4  24
ATOM     24  C   UNL     1       0.625  14.885  19.525  0.00  0.00    +0.000 C 
BRANCH  24  25
ATOM     25  C   UNL     1      -0.482  15.918  19.200  0.00  0.00    +0.000 C 
ATOM     26  C   UNL     1      -0.485  17.083  18.510  0.00  0.00    +0.000 C 
ATOM     27  C   UNL     1       0.676  17.699  17.779  0.00  0.00    +0.000 C 
ATOM     28  C   UNL     1      -1.719  17.968  18.450  0.00  0.00    +0.000 C 
ENDBRANCH  24  25
ENDBRANCH   4  24
TORSDOF 7
ENDMDL
