MODEL 1
REMARK VINA RESULT:      -8.4      0.000      0.000
REMARK  Name = 
REMARK  4 active torsions:
REMARK  status: ('A' for Active; 'I' for Inactive)
REMARK    1  A    between atoms: C_2  and  C_3
REMARK    2  A    between atoms: N_5  and  C_6
REMARK    3  A    between atoms: C_18  and  C_19
REMARK    4  A    between atoms: C_19  and  C_20
REMARK                            x       y       z     vdW  Elec       q    Type
REMARK                         _______ _______ _______ _____ _____    ______ ____
ROOT
ATOM      1  C   UNL     1       4.555   2.337  19.928  0.00  0.00    +0.000 A 
ATOM      2  N   UNL     1       5.521   3.183  19.561  0.00  0.00    +0.000 NA
ATOM      3  N   UNL     1       4.893   4.363  19.297  0.00  0.00    +0.000 N 
ATOM      4  C   UNL     1       3.547   4.299  19.659  0.00  0.00    +0.000 A 
ATOM      5  C   UNL     1       3.311   2.982  20.029  0.00  0.00    +0.000 A 
ATOM      6  C   UNL     1       1.992   2.445  20.463  0.00  0.00    +0.000 C 
ATOM      7  C   UNL     1       0.856   3.374  20.027  0.00  0.00    +0.000 C 
ATOM      8  C   UNL     1       1.191   4.834  20.347  0.00  0.00    +0.000 C 
ATOM      9  C   UNL     1       2.469   5.361  19.622  0.00  0.00    +0.000 C 
ENDROOT
BRANCH   3  10
ATOM     10  C   UNL     1       5.661   5.408  18.701  0.00  0.00    +0.000 A 
ATOM     11  C   UNL     1       5.160   6.185  17.651  0.00  0.00    +0.000 A 
ATOM     12  C   UNL     1       5.915   7.221  17.103  0.00  0.00    +0.000 A 
ATOM     13  C   UNL     1       7.215   7.423  17.539  0.00  0.00    +0.000 A 
ATOM     14  F   UNL     1       7.970   8.349  16.939  0.00  0.00    +0.000 F 
ATOM     15  C   UNL     1       7.750   6.648  18.560  0.00  0.00    +0.000 A 
ATOM     16  C   UNL     1       6.972   5.649  19.154  0.00  0.00    +0.000 A 
ENDBRANCH   3  10
BRANCH   1  18
ATOM     17  N   UNL     1       5.153  -0.150  20.390  0.00  0.00    +0.000 NA
ATOM     18  C   UNL     1       4.862   0.967  20.184  0.00  0.00    +0.000 C 
ENDBRANCH   1  18
BRANCH   9  19
ATOM     19  C   UNL     1       2.808   6.774  20.153  0.00  0.00    +0.000 C 
BRANCH  19  20
ATOM     20  C   UNL     1       2.035   7.946  19.595  0.00  0.00    +0.000 A 
ATOM     21  C   UNL     1       2.049   8.155  18.204  0.00  0.00    +0.000 A 
ATOM     22  C   UNL     1       1.335   9.194  17.626  0.00  0.00    +0.000 A 
ATOM     23  C   UNL     1       0.549  10.010  18.429  0.00  0.00    +0.000 A 
ATOM     24  C   UNL     1       0.457   9.786  19.814  0.00  0.00    +0.000 A 
ATOM     25  C   UNL     1      -0.415  10.552  20.602  0.00  0.00    +0.000 A 
ATOM     26  C   UNL     1      -0.546  10.317  21.973  0.00  0.00    +0.000 A 
ATOM     27  C   UNL     1       0.230   9.348  22.585  0.00  0.00    +0.000 A 
ATOM     28  C   UNL     1       1.113   8.594  21.820  0.00  0.00    +0.000 A 
ATOM     29  C   UNL     1       1.223   8.763  20.421  0.00  0.00    +0.000 A 
ENDBRANCH  19  20
ENDBRANCH   9  19
TORSDOF 4
ENDMDL
MODEL 2
REMARK VINA RESULT:      -7.8      2.922      5.304
REMARK  Name = 
REMARK  4 active torsions:
REMARK  status: ('A' for Active; 'I' for Inactive)
REMARK    1  A    between atoms: C_2  and  C_3
REMARK    2  A    between atoms: N_5  and  C_6
REMARK    3  A    between atoms: C_18  and  C_19
REMARK    4  A    between atoms: C_19  and  C_20
REMARK                            x       y       z     vdW  Elec       q    Type
REMARK                         _______ _______ _______ _____ _____    ______ ____
ROOT
ATOM      1  C   UNL     1       2.562   5.117  20.188  0.00  0.00    +0.000 A 
ATOM      2  N   UNL     1       1.732   5.836  20.949  0.00  0.00    +0.000 NA
ATOM      3  N   UNL     1       1.719   7.082  20.398  0.00  0.00    +0.000 N 
ATOM      4  C   UNL     1       2.418   7.098  19.190  0.00  0.00    +0.000 A 
ATOM      5  C   UNL     1       3.000   5.842  19.068  0.00  0.00    +0.000 A 
ATOM      6  C   UNL     1       3.871   5.417  17.938  0.00  0.00    +0.000 C 
ATOM      7  C   UNL     1       4.411   6.632  17.179  0.00  0.00    +0.000 C 
ATOM      8  C   UNL     1       3.294   7.643  16.900  0.00  0.00    +0.000 C 
ATOM      9  C   UNL     1       2.625   8.213  18.189  0.00  0.00    +0.000 C 
ENDROOT
BRANCH   3  10
ATOM     10  C   UNL     1       1.054   8.122  21.116  0.00  0.00    +0.000 A 
ATOM     11  C   UNL     1       1.714   9.295  21.494  0.00  0.00    +0.000 A 
ATOM     12  C   UNL     1       1.038  10.311  22.168  0.00  0.00    +0.000 A 
ATOM     13  C   UNL     1      -0.280  10.116  22.552  0.00  0.00    +0.000 A 
ATOM     14  F   UNL     1      -0.892  11.050  23.289  0.00  0.00    +0.000 F 
ATOM     15  C   UNL     1      -0.952   8.949  22.217  0.00  0.00    +0.000 A 
ATOM     16  C   UNL     1      -0.294   7.954  21.485  0.00  0.00    +0.000 A 
ENDBRANCH   3  10
BRANCH   1  18
ATOM     17  N   UNL     1       3.163   2.666  20.812  0.00  0.00    +0.000 NA
ATOM     18  C   UNL     1       2.882   3.773  20.550  0.00  0.00    +0.000 C 
ENDBRANCH   1  18
BRANCH   9  19
ATOM     19  C   UNL     1       1.406   9.078  17.788  0.00  0.00    +0.000 C 
BRANCH  19  20
ATOM     20  C   UNL     1       1.395  10.529  18.210  0.00  0.00    +0.000 A 
ATOM     21  C   UNL     1       2.555  11.296  17.993  0.00  0.00    +0.000 A 
ATOM     22  C   UNL     1       2.599  12.641  18.330  0.00  0.00    +0.000 A 
ATOM     23  C   UNL     1       1.463  13.254  18.840  0.00  0.00    +0.000 A 
ATOM     24  C   UNL     1       0.267  12.534  19.005  0.00  0.00    +0.000 A 
ATOM     25  C   UNL     1      -0.902  13.183  19.427  0.00  0.00    +0.000 A 
ATOM     26  C   UNL     1      -2.108  12.489  19.559  0.00  0.00    +0.000 A 
ATOM     27  C   UNL     1      -2.151  11.126  19.320  0.00  0.00    +0.000 A 
ATOM     28  C   UNL     1      -0.994  10.466  18.920  0.00  0.00    +0.000 A 
ATOM     29  C   UNL     1       0.226  11.149  18.715  0.00  0.00    +0.000 A 
ENDBRANCH  19  20
ENDBRANCH   9  19
TORSDOF 4
ENDMDL
MODEL 3
REMARK VINA RESULT:      -7.6      5.949     10.063
REMARK  Name = 
REMARK  4 active torsions:
REMARK  status: ('A' for Active; 'I' for Inactive)
REMARK    1  A    between atoms: C_2  and  C_3
REMARK    2  A    between atoms: N_5  and  C_6
REMARK    3  A    between atoms: C_18  and  C_19
REMARK    4  A    between atoms: C_19  and  C_20
REMARK                            x       y       z     vdW  Elec       q    Type
REMARK                         _______ _______ _______ _____ _____    ______ ____
ROOT
ATOM      1  C   UNL     1      -5.375  12.447  20.787  0.00  0.00    +0.000 A 
ATOM      2  N   UNL     1      -5.202  11.627  19.747  0.00  0.00    +0.000 NA
ATOM      3  N   UNL     1      -3.960  11.907  19.263  0.00  0.00    +0.000 N 
ATOM      4  C   UNL     1      -3.288  12.793  20.106  0.00  0.00    +0.000 A 
ATOM      5  C   UNL     1      -4.210  13.178  21.071  0.00  0.00    +0.000 A 
ATOM      6  C   UNL     1      -3.937  14.147  22.168  0.00  0.00    +0.000 C 
ATOM      7  C   UNL     1      -2.703  14.996  21.850  0.00  0.00    +0.000 C 
ATOM      8  C   UNL     1      -1.552  14.119  21.347  0.00  0.00    +0.000 C 
ATOM      9  C   UNL     1      -1.880  13.342  20.033  0.00  0.00    +0.000 C 
ENDROOT
BRANCH   3  10
ATOM     10  C   UNL     1      -3.574  11.306  18.027  0.00  0.00    +0.000 A 
ATOM     11  C   UNL     1      -2.510  10.403  17.947  0.00  0.00    +0.000 A 
ATOM     12  C   UNL     1      -2.169   9.804  16.734  0.00  0.00    +0.000 A 
ATOM     13  C   UNL     1      -2.832  10.181  15.577  0.00  0.00    +0.000 A 
ATOM     14  F   UNL     1      -2.432   9.682  14.402  0.00  0.00    +0.000 F 
ATOM     15  C   UNL     1      -3.873  11.098  15.621  0.00  0.00    +0.000 A 
ATOM     16  C   UNL     1      -4.259  11.652  16.846  0.00  0.00    +0.000 A 
ENDBRANCH   3  10
BRANCH   1  18
ATOM     17  N   UNL     1      -7.637  12.497  22.066  0.00  0.00    +0.000 NA
ATOM     18  C   UNL     1      -6.627  12.481  21.472  0.00  0.00    +0.000 C 
ENDBRANCH   1  18
BRANCH   9  19
ATOM     19  C   UNL     1      -0.723  12.363  19.720  0.00  0.00    +0.000 C 
BRANCH  19  20
ATOM     20  C   UNL     1      -0.395  11.302  20.744  0.00  0.00    +0.000 A 
ATOM     21  C   UNL     1      -0.982  11.399  22.020  0.00  0.00    +0.000 A 
ATOM     22  C   UNL     1      -0.746  10.441  22.994  0.00  0.00    +0.000 A 
ATOM     23  C   UNL     1       0.042   9.338  22.689  0.00  0.00    +0.000 A 
ATOM     24  C   UNL     1       0.587   9.174  21.404  0.00  0.00    +0.000 A 
ATOM     25  C   UNL     1       1.297   8.010  21.076  0.00  0.00    +0.000 A 
ATOM     26  C   UNL     1       1.813   7.815  19.792  0.00  0.00    +0.000 A 
ATOM     27  C   UNL     1       1.671   8.803  18.832  0.00  0.00    +0.000 A 
ATOM     28  C   UNL     1       0.986   9.971  19.150  0.00  0.00    +0.000 A 
ATOM     29  C   UNL     1       0.396  10.172  20.419  0.00  0.00    +0.000 A 
ENDBRANCH  19  20
ENDBRANCH   9  19
TORSDOF 4
ENDMDL
MODEL 4
REMARK VINA RESULT:      -7.4      3.145      7.159
REMARK  Name = 
REMARK  4 active torsions:
REMARK  status: ('A' for Active; 'I' for Inactive)
REMARK    1  A    between atoms: C_2  and  C_3
REMARK    2  A    between atoms: N_5  and  C_6
REMARK    3  A    between atoms: C_18  and  C_19
REMARK    4  A    between atoms: C_19  and  C_20
REMARK                            x       y       z     vdW  Elec       q    Type
REMARK                         _______ _______ _______ _____ _____    ______ ____
ROOT
ATOM      1  C   UNL     1       0.484   8.926  21.589  0.00  0.00    +0.000 A 
ATOM      2  N   UNL     1       0.925   7.696  21.868  0.00  0.00    +0.000 NA
ATOM      3  N   UNL     1       1.437   7.218  20.700  0.00  0.00    +0.000 N 
ATOM      4  C   UNL     1       1.463   8.215  19.725  0.00  0.00    +0.000 A 
ATOM      5  C   UNL     1       0.812   9.310  20.279  0.00  0.00    +0.000 A 
ATOM      6  C   UNL     1       0.576  10.602  19.578  0.00  0.00    +0.000 C 
ATOM      7  C   UNL     1       0.721  10.434  18.063  0.00  0.00    +0.000 C 
ATOM      8  C   UNL     1       1.984   9.637  17.720  0.00  0.00    +0.000 C 
ATOM      9  C   UNL     1       1.995   8.191  18.309  0.00  0.00    +0.000 C 
ENDROOT
BRANCH   3  10
ATOM     10  C   UNL     1       1.817   5.842  20.652  0.00  0.00    +0.000 A 
ATOM     11  C   UNL     1       3.159   5.448  20.659  0.00  0.00    +0.000 A 
ATOM     12  C   UNL     1       3.509   4.099  20.642  0.00  0.00    +0.000 A 
ATOM     13  C   UNL     1       2.517   3.138  20.522  0.00  0.00    +0.000 A 
ATOM     14  F   UNL     1       2.862   1.851  20.402  0.00  0.00    +0.000 F 
ATOM     15  C   UNL     1       1.177   3.501  20.483  0.00  0.00    +0.000 A 
ATOM     16  C   UNL     1       0.821   4.852  20.564  0.00  0.00    +0.000 A 
ENDBRANCH   3  10
BRANCH   1  18
ATOM     17  N   UNL     1      -0.799  10.317  23.372  0.00  0.00    +0.000 NA
ATOM     18  C   UNL     1      -0.208   9.681  22.584  0.00  0.00    +0.000 C 
ENDBRANCH   1  18
BRANCH   9  19
ATOM     19  C   UNL     1       3.380   7.550  18.054  0.00  0.00    +0.000 C 
BRANCH  19  20
ATOM     20  C   UNL     1       3.421   6.113  17.588  0.00  0.00    +0.000 A 
ATOM     21  C   UNL     1       2.215   5.388  17.548  0.00  0.00    +0.000 A 
ATOM     22  C   UNL     1       2.181   4.076  17.102  0.00  0.00    +0.000 A 
ATOM     23  C   UNL     1       3.347   3.483  16.636  0.00  0.00    +0.000 A 
ATOM     24  C   UNL     1       4.555   4.201  16.597  0.00  0.00    +0.000 A 
ATOM     25  C   UNL     1       5.705   3.627  16.034  0.00  0.00    +0.000 A 
ATOM     26  C   UNL     1       6.904   4.341  15.954  0.00  0.00    +0.000 A 
ATOM     27  C   UNL     1       6.984   5.619  16.481  0.00  0.00    +0.000 A 
ATOM     28  C   UNL     1       5.857   6.192  17.061  0.00  0.00    +0.000 A 
ATOM     29  C   UNL     1       4.613   5.522  17.100  0.00  0.00    +0.000 A 
ENDBRANCH  19  20
ENDBRANCH   9  19
TORSDOF 4
ENDMDL
MODEL 5
REMARK VINA RESULT:      -7.4      6.545     10.269
REMARK  Name = 
REMARK  4 active torsions:
REMARK  status: ('A' for Active; 'I' for Inactive)
REMARK    1  A    between atoms: C_2  and  C_3
REMARK    2  A    between atoms: N_5  and  C_6
REMARK    3  A    between atoms: C_18  and  C_19
REMARK    4  A    between atoms: C_19  and  C_20
REMARK                            x       y       z     vdW  Elec       q    Type
REMARK                         _______ _______ _______ _____ _____    ______ ____
ROOT
ATOM      1  C   UNL     1      -0.681  10.546  18.596  0.00  0.00    +0.000 A 
ATOM      2  N   UNL     1      -0.734  11.145  19.789  0.00  0.00    +0.000 NA
ATOM      3  N   UNL     1      -1.934  11.789  19.820  0.00  0.00    +0.000 N 
ATOM      4  C   UNL     1      -2.705  11.457  18.706  0.00  0.00    +0.000 A 
ATOM      5  C   UNL     1      -1.887  10.686  17.890  0.00  0.00    +0.000 A 
ATOM      6  C   UNL     1      -2.286  10.132  16.567  0.00  0.00    +0.000 C 
ATOM      7  C   UNL     1      -3.509  10.870  16.014  0.00  0.00    +0.000 C 
ATOM      8  C   UNL     1      -4.584  11.031  17.094  0.00  0.00    +0.000 C 
ATOM      9  C   UNL     1      -4.115  11.858  18.332  0.00  0.00    +0.000 C 
ENDROOT
BRANCH   3  10
ATOM     10  C   UNL     1      -2.187  12.674  20.912  0.00  0.00    +0.000 A 
ATOM     11  C   UNL     1      -2.186  12.228  22.238  0.00  0.00    +0.000 A 
ATOM     12  C   UNL     1      -2.406  13.115  23.291  0.00  0.00    +0.000 A 
ATOM     13  C   UNL     1      -2.723  14.436  23.017  0.00  0.00    +0.000 A 
ATOM     14  F   UNL     1      -3.035  15.258  24.025  0.00  0.00    +0.000 F 
ATOM     15  C   UNL     1      -2.760  14.901  21.708  0.00  0.00    +0.000 A 
ATOM     16  C   UNL     1      -2.478  14.027  20.653  0.00  0.00    +0.000 A 
ENDBRANCH   3  10
BRANCH   1  18
ATOM     17  N   UNL     1       1.451   9.265  17.839  0.00  0.00    +0.000 NA
ATOM     18  C   UNL     1       0.502   9.854  18.195  0.00  0.00    +0.000 C 
ENDBRANCH   1  18
BRANCH   9  19
ATOM     19  C   UNL     1      -5.210  11.805  19.423  0.00  0.00    +0.000 C 
BRANCH  19  20
ATOM     20  C   UNL     1      -5.901  13.095  19.799  0.00  0.00    +0.000 A 
ATOM     21  C   UNL     1      -6.370  13.928  18.765  0.00  0.00    +0.000 A 
ATOM     22  C   UNL     1      -7.040  15.109  19.043  0.00  0.00    +0.000 A 
ATOM     23  C   UNL     1      -7.299  15.452  20.364  0.00  0.00    +0.000 A 
ATOM     24  C   UNL     1      -6.907  14.608  21.418  0.00  0.00    +0.000 A 
ATOM     25  C   UNL     1      -7.260  14.912  22.741  0.00  0.00    +0.000 A 
ATOM     26  C   UNL     1      -6.909  14.066  23.796  0.00  0.00    +0.000 A 
ATOM     27  C   UNL     1      -6.158  12.929  23.550  0.00  0.00    +0.000 A 
ATOM     28  C   UNL     1      -5.784  12.626  22.245  0.00  0.00    +0.000 A 
ATOM     29  C   UNL     1      -6.176  13.427  21.148  0.00  0.00    +0.000 A 
ENDBRANCH  19  20
ENDBRANCH   9  19
TORSDOF 4
ENDMDL
MODEL 6
REMARK VINA RESULT:      -7.3      7.794     11.116
REMARK  Name = 
REMARK  4 active torsions:
REMARK  status: ('A' for Active; 'I' for Inactive)
REMARK    1  A    between atoms: C_2  and  C_3
REMARK    2  A    between atoms: N_5  and  C_6
REMARK    3  A    between atoms: C_18  and  C_19
REMARK    4  A    between atoms: C_19  and  C_20
REMARK                            x       y       z     vdW  Elec       q    Type
REMARK                         _______ _______ _______ _____ _____    ______ ____
ROOT
ATOM      1  C   UNL     1      -3.476  10.987  16.857  0.00  0.00    +0.000 A 
ATOM      2  N   UNL     1      -4.472  11.709  17.378  0.00  0.00    +0.000 NA
ATOM      3  N   UNL     1      -4.091  11.990  18.655  0.00  0.00    +0.000 N 
ATOM      4  C   UNL     1      -2.777  11.579  18.882  0.00  0.00    +0.000 A 
ATOM      5  C   UNL     1      -2.387  10.894  17.738  0.00  0.00    +0.000 A 
ATOM      6  C   UNL     1      -1.059  10.248  17.547  0.00  0.00    +0.000 C 
ATOM      7  C   UNL     1      -0.359  10.034  18.892  0.00  0.00    +0.000 C 
ATOM      8  C   UNL     1      -0.439  11.297  19.756  0.00  0.00    +0.000 C 
ATOM      9  C   UNL     1      -1.898  11.730  20.104  0.00  0.00    +0.000 C 
ENDROOT
BRANCH   3  10
ATOM     10  C   UNL     1      -5.051  12.599  19.519  0.00  0.00    +0.000 A 
ATOM     11  C   UNL     1      -5.583  11.925  20.622  0.00  0.00    +0.000 A 
ATOM     12  C   UNL     1      -6.497  12.549  21.470  0.00  0.00    +0.000 A 
ATOM     13  C   UNL     1      -6.955  13.821  21.162  0.00  0.00    +0.000 A 
ATOM     14  F   UNL     1      -7.908  14.375  21.920  0.00  0.00    +0.000 F 
ATOM     15  C   UNL     1      -6.466  14.504  20.056  0.00  0.00    +0.000 A 
ATOM     16  C   UNL     1      -5.502  13.903  19.240  0.00  0.00    +0.000 A 
ENDBRANCH   3  10
BRANCH   1  18
ATOM     17  N   UNL     1      -3.701  10.026  14.452  0.00  0.00    +0.000 NA
ATOM     18  C   UNL     1      -3.599  10.439  15.544  0.00  0.00    +0.000 C 
ENDBRANCH   1  18
BRANCH   9  19
ATOM     19  C   UNL     1      -1.863  13.101  20.821  0.00  0.00    +0.000 C 
BRANCH  19  20
ATOM     20  C   UNL     1      -2.744  13.289  22.034  0.00  0.00    +0.000 A 
ATOM     21  C   UNL     1      -2.820  12.245  22.974  0.00  0.00    +0.000 A 
ATOM     22  C   UNL     1      -3.586  12.367  24.123  0.00  0.00    +0.000 A 
ATOM     23  C   UNL     1      -4.248  13.562  24.377  0.00  0.00    +0.000 A 
ATOM     24  C   UNL     1      -4.137  14.650  23.494  0.00  0.00    +0.000 A 
ATOM     25  C   UNL     1      -4.727  15.883  23.808  0.00  0.00    +0.000 A 
ATOM     26  C   UNL     1      -4.595  16.985  22.959  0.00  0.00    +0.000 A 
ATOM     27  C   UNL     1      -3.914  16.856  21.760  0.00  0.00    +0.000 A 
ATOM     28  C   UNL     1      -3.341  15.633  21.427  0.00  0.00    +0.000 A 
ATOM     29  C   UNL     1      -3.402  14.517  22.293  0.00  0.00    +0.000 A 
ENDBRANCH  19  20
ENDBRANCH   9  19
TORSDOF 4
ENDMDL
MODEL 7
REMARK VINA RESULT:      -7.1      1.209      2.125
REMARK  Name = 
REMARK  4 active torsions:
REMARK  status: ('A' for Active; 'I' for Inactive)
REMARK    1  A    between atoms: C_2  and  C_3
REMARK    2  A    between atoms: N_5  and  C_6
REMARK    3  A    between atoms: C_18  and  C_19
REMARK    4  A    between atoms: C_19  and  C_20
REMARK                            x       y       z     vdW  Elec       q    Type
REMARK                         _______ _______ _______ _____ _____    ______ ____
ROOT
ATOM      1  C   UNL     1       4.779   2.845  19.982  0.00  0.00    +0.000 A 
ATOM      2  N   UNL     1       5.691   3.816  19.879  0.00  0.00    +0.000 NA
ATOM      3  N   UNL     1       5.209   4.671  18.935  0.00  0.00    +0.000 N 
ATOM      4  C   UNL     1       3.911   4.319  18.564  0.00  0.00    +0.000 A 
ATOM      5  C   UNL     1       3.641   3.117  19.206  0.00  0.00    +0.000 A 
ATOM      6  C   UNL     1       2.372   2.349  19.073  0.00  0.00    +0.000 C 
ATOM      7  C   UNL     1       1.598   2.787  17.826  0.00  0.00    +0.000 C 
ATOM      8  C   UNL     1       1.542   4.315  17.727  0.00  0.00    +0.000 C 
ATOM      9  C   UNL     1       2.944   4.991  17.614  0.00  0.00    +0.000 C 
ENDROOT
BRANCH   3  10
ATOM     10  C   UNL     1       6.069   5.717  18.481  0.00  0.00    +0.000 A 
ATOM     11  C   UNL     1       5.735   6.522  17.387  0.00  0.00    +0.000 A 
ATOM     12  C   UNL     1       6.575   7.557  16.978  0.00  0.00    +0.000 A 
ATOM     13  C   UNL     1       7.800   7.730  17.604  0.00  0.00    +0.000 A 
ATOM     14  F   UNL     1       8.647   8.656  17.141  0.00  0.00    +0.000 F 
ATOM     15  C   UNL     1       8.171   6.926  18.674  0.00  0.00    +0.000 A 
ATOM     16  C   UNL     1       7.302   5.928  19.126  0.00  0.00    +0.000 A 
ENDBRANCH   3  10
BRANCH   1  18
ATOM     17  N   UNL     1       5.263   0.799  21.511  0.00  0.00    +0.000 NA
ATOM     18  C   UNL     1       5.024   1.720  20.827  0.00  0.00    +0.000 C 
ENDBRANCH   1  18
BRANCH   9  19
ATOM     19  C   UNL     1       2.776   6.527  17.699  0.00  0.00    +0.000 C 
BRANCH  19  20
ATOM     20  C   UNL     1       2.109   7.100  18.928  0.00  0.00    +0.000 A 
ATOM     21  C   UNL     1       1.970   6.275  20.060  0.00  0.00    +0.000 A 
ATOM     22  C   UNL     1       1.396   6.750  21.229  0.00  0.00    +0.000 A 
ATOM     23  C   UNL     1       0.998   8.079  21.302  0.00  0.00    +0.000 A 
ATOM     24  C   UNL     1       1.186   8.949  20.214  0.00  0.00    +0.000 A 
ATOM     25  C   UNL     1       0.874  10.312  20.331  0.00  0.00    +0.000 A 
ATOM     26  C   UNL     1       1.089  11.196  19.272  0.00  0.00    +0.000 A 
ATOM     27  C   UNL     1       1.573  10.724  18.063  0.00  0.00    +0.000 A 
ATOM     28  C   UNL     1       1.868   9.372  17.927  0.00  0.00    +0.000 A 
ATOM     29  C   UNL     1       1.722   8.462  18.999  0.00  0.00    +0.000 A 
ENDBRANCH  19  20
ENDBRANCH   9  19
TORSDOF 4
ENDMDL
MODEL 8
REMARK VINA RESULT:      -7.1      6.744     10.859
REMARK  Name = 
REMARK  4 active torsions:
REMARK  status: ('A' for Active; 'I' for Inactive)
REMARK    1  A    between atoms: C_2  and  C_3
REMARK    2  A    between atoms: N_5  and  C_6
REMARK    3  A    between atoms: C_18  and  C_19
REMARK    4  A    between atoms: C_19  and  C_20
REMARK                            x       y       z     vdW  Elec       q    Type
REMARK                         _______ _______ _______ _____ _____    ______ ____
ROOT
ATOM      1  C   UNL     1      -5.896  12.777  22.345  0.00  0.00    +0.000 A 
ATOM      2  N   UNL     1      -5.868  12.124  21.180  0.00  0.00    +0.000 NA
ATOM      3  N   UNL     1      -4.756  12.575  20.536  0.00  0.00    +0.000 N 
ATOM      4  C   UNL     1      -3.997  13.394  21.371  0.00  0.00    +0.000 A 
ATOM      5  C   UNL     1      -4.747  13.562  22.528  0.00  0.00    +0.000 A 
ATOM      6  C   UNL     1      -4.336  14.394  23.693  0.00  0.00    +0.000 C 
ATOM      7  C   UNL     1      -3.237  15.383  23.296  0.00  0.00    +0.000 C 
ATOM      8  C   UNL     1      -2.147  14.687  22.475  0.00  0.00    +0.000 C 
ATOM      9  C   UNL     1      -2.663  14.069  21.138  0.00  0.00    +0.000 C 
ENDROOT
BRANCH   3  10
ATOM     10  C   UNL     1      -4.569  12.184  19.175  0.00  0.00    +0.000 A 
ATOM     11  C   UNL     1      -5.482  12.534  18.175  0.00  0.00    +0.000 A 
ATOM     12  C   UNL     1      -5.264  12.167  16.848  0.00  0.00    +0.000 A 
ATOM     13  C   UNL     1      -4.180  11.365  16.530  0.00  0.00    +0.000 A 
ATOM     14  F   UNL     1      -4.033  10.930  15.273  0.00  0.00    +0.000 F 
ATOM     15  C   UNL     1      -3.273  10.976  17.507  0.00  0.00    +0.000 A 
ATOM     16  C   UNL     1      -3.455  11.396  18.829  0.00  0.00    +0.000 A 
ENDBRANCH   3  10
BRANCH   1  18
ATOM     17  N   UNL     1      -7.917  12.435  23.945  0.00  0.00    +0.000 NA
ATOM     18  C   UNL     1      -7.001  12.608  23.234  0.00  0.00    +0.000 C 
ENDBRANCH   1  18
BRANCH   9  19
ATOM     19  C   UNL     1      -1.526  13.248  20.486  0.00  0.00    +0.000 C 
BRANCH  19  20
ATOM     20  C   UNL     1      -1.026  12.023  21.216  0.00  0.00    +0.000 A 
ATOM     21  C   UNL     1      -1.476  11.799  22.531  0.00  0.00    +0.000 A 
ATOM     22  C   UNL     1      -1.079  10.679  23.245  0.00  0.00    +0.000 A 
ATOM     23  C   UNL     1      -0.267   9.733  22.633  0.00  0.00    +0.000 A 
ATOM     24  C   UNL     1       0.144   9.890  21.298  0.00  0.00    +0.000 A 
ATOM     25  C   UNL     1       0.881   8.883  20.658  0.00  0.00    +0.000 A 
ATOM     26  C   UNL     1       1.265   9.008  19.320  0.00  0.00    +0.000 A 
ATOM     27  C   UNL     1       0.961  10.162  18.618  0.00  0.00    +0.000 A 
ATOM     28  C   UNL     1       0.248  11.177  19.247  0.00  0.00    +0.000 A 
ATOM     29  C   UNL     1      -0.211  11.056  20.579  0.00  0.00    +0.000 A 
ENDBRANCH  19  20
ENDBRANCH   9  19
TORSDOF 4
ENDMDL
MODEL 9
REMARK VINA RESULT:      -7.1      5.294      9.539
REMARK  Name = 
REMARK  4 active torsions:
REMARK  status: ('A' for Active; 'I' for Inactive)
REMARK    1  A    between atoms: C_2  and  C_3
REMARK    2  A    between atoms: N_5  and  C_6
REMARK    3  A    between atoms: C_18  and  C_19
REMARK    4  A    between atoms: C_19  and  C_20
REMARK                            x       y       z     vdW  Elec       q    Type
REMARK                         _______ _______ _______ _____ _____    ______ ____
ROOT
ATOM      1  C   UNL     1      -2.933  12.896  21.339  0.00  0.00    +0.000 A 
ATOM      2  N   UNL     1      -3.524  12.212  20.355  0.00  0.00    +0.000 NA
ATOM      3  N   UNL     1      -2.547  11.979  19.435  0.00  0.00    +0.000 N 
ATOM      4  C   UNL     1      -1.302  12.378  19.922  0.00  0.00    +0.000 A 
ATOM      5  C   UNL     1      -1.549  13.009  21.134  0.00  0.00    +0.000 A 
ATOM      6  C   UNL     1      -0.505  13.627  21.998  0.00  0.00    +0.000 C 
ATOM      7  C   UNL     1       0.777  13.885  21.203  0.00  0.00    +0.000 C 
ATOM      8  C   UNL     1       1.155  12.661  20.362  0.00  0.00    +0.000 C 
ATOM      9  C   UNL     1       0.076  12.265  19.307  0.00  0.00    +0.000 C 
ENDROOT
BRANCH   3  10
ATOM     10  C   UNL     1      -2.934  11.420  18.179  0.00  0.00    +0.000 A 
ATOM     11  C   UNL     1      -2.151  10.463  17.526  0.00  0.00    +0.000 A 
ATOM     12  C   UNL     1      -2.562   9.908  16.315  0.00  0.00    +0.000 A 
ATOM     13  C   UNL     1      -3.713  10.380  15.703  0.00  0.00    +0.000 A 
ATOM     14  F   UNL     1      -4.048   9.919  14.493  0.00  0.00    +0.000 F 
ATOM     15  C   UNL     1      -4.495  11.351  16.314  0.00  0.00    +0.000 A 
ATOM     16  C   UNL     1      -4.118  11.864  17.560  0.00  0.00    +0.000 A 
ENDBRANCH   3  10
BRANCH   1  18
ATOM     17  N   UNL     1      -4.333  13.764  23.350  0.00  0.00    +0.000 NA
ATOM     18  C   UNL     1      -3.708  13.391  22.432  0.00  0.00    +0.000 C 
ENDBRANCH   1  18
BRANCH   9  19
ATOM     19  C   UNL     1       0.479  10.925  18.646  0.00  0.00    +0.000 C 
BRANCH  19  20
ATOM     20  C   UNL     1       0.783   9.752  19.549  0.00  0.00    +0.000 A 
ATOM     21  C   UNL     1       0.078   9.642  20.763  0.00  0.00    +0.000 A 
ATOM     22  C   UNL     1       0.289   8.574  21.621  0.00  0.00    +0.000 A 
ATOM     23  C   UNL     1       1.171   7.566  21.253  0.00  0.00    +0.000 A 
ATOM     24  C   UNL     1       1.839   7.609  20.016  0.00  0.00    +0.000 A 
ATOM     25  C   UNL     1       2.651   6.540  19.610  0.00  0.00    +0.000 A 
ATOM     26  C   UNL     1       3.292   6.551  18.368  0.00  0.00    +0.000 A 
ATOM     27  C   UNL     1       3.172   7.652  17.537  0.00  0.00    +0.000 A 
ATOM     28  C   UNL     1       2.386   8.727  17.937  0.00  0.00    +0.000 A 
ATOM     29  C   UNL     1       1.673   8.721  19.157  0.00  0.00    +0.000 A 
ENDBRANCH  19  20
ENDBRANCH   9  19
TORSDOF 4
ENDMDL
