MODEL 1
REMARK VINA RESULT:      -6.1      0.000      0.000
REMARK  Name = 
REMARK  3 active torsions:
REMARK  status: ('A' for Active; 'I' for Inactive)
REMARK    1  A    between atoms: C_1  and  O_2
REMARK    2  A    between atoms: O_2  and  C_3
REMARK    3  A    between atoms: C_6  and  C_7
REMARK                            x       y       z     vdW  Elec       q    Type
REMARK                         _______ _______ _______ _____ _____    ______ ____
ROOT
ATOM      1  C   UNL     1       1.844   4.094  19.027  0.00  0.00    +0.000 A 
ATOM      2  C   UNL     1       2.241   3.192  18.045  0.00  0.00    +0.000 A 
ATOM      3  C   UNL     1       3.276   3.516  17.160  0.00  0.00    +0.000 A 
ATOM      4  C   UNL     1       3.942   4.756  17.208  0.00  0.00    +0.000 A 
ATOM      5  C   UNL     1       3.499   5.652  18.201  0.00  0.00    +0.000 A 
ATOM      6  C   UNL     1       2.470   5.335  19.098  0.00  0.00    +0.000 A 
ENDROOT
BRANCH   4   7
ATOM      7  C   UNL     1       5.108   5.151  16.207  0.00  0.00    +0.000 C 
ATOM      8  C   UNL     1       6.010   4.035  15.627  0.00  0.00    +0.000 C 
ATOM      9  C   UNL     1       7.072   4.600  16.579  0.00  0.00    +0.000 C 
ATOM     10  O   UNL     1       8.108   4.234  17.077  0.00  0.00    +0.000 OA
ATOM     11  N   UNL     1       6.329   5.714  16.816  0.00  0.00    +0.000 N 
ATOM     12  H   UNL     1       6.424   6.151  17.723  0.00  0.00    +0.000 HD
ENDBRANCH   4   7
BRANCH   1  14
ATOM     13  C   UNL     1       1.191   3.081  21.059  0.00  0.00    +0.000 C 
ATOM     14  O   UNL     1       0.813   3.681  19.825  0.00  0.00    +0.000 OA
ENDBRANCH   1  14
TORSDOF 2
ENDMDL
MODEL 2
REMARK VINA RESULT:      -6.1      2.258      5.282
REMARK  Name = 
REMARK  3 active torsions:
REMARK  status: ('A' for Active; 'I' for Inactive)
REMARK    1  A    between atoms: C_1  and  O_2
REMARK    2  A    between atoms: O_2  and  C_3
REMARK    3  A    between atoms: C_6  and  C_7
REMARK                            x       y       z     vdW  Elec       q    Type
REMARK                         _______ _______ _______ _____ _____    ______ ____
ROOT
ATOM      1  C   UNL     1       4.855   5.592  16.604  0.00  0.00    +0.000 A 
ATOM      2  C   UNL     1       4.616   4.223  16.557  0.00  0.00    +0.000 A 
ATOM      3  C   UNL     1       3.597   3.652  17.329  0.00  0.00    +0.000 A 
ATOM      4  C   UNL     1       2.789   4.422  18.188  0.00  0.00    +0.000 A 
ATOM      5  C   UNL     1       3.073   5.801  18.226  0.00  0.00    +0.000 A 
ATOM      6  C   UNL     1       4.086   6.383  17.451  0.00  0.00    +0.000 A 
ENDROOT
BRANCH   4   7
ATOM      7  C   UNL     1       1.637   3.797  19.083  0.00  0.00    +0.000 C 
ATOM      8  C   UNL     1       1.300   4.458  20.442  0.00  0.00    +0.000 C 
ATOM      9  C   UNL     1       1.995   3.231  21.045  0.00  0.00    +0.000 C 
ATOM     10  O   UNL     1       2.493   2.917  22.098  0.00  0.00    +0.000 OA
ATOM     11  N   UNL     1       1.990   2.585  19.849  0.00  0.00    +0.000 N 
ATOM     12  H   UNL     1       2.745   1.937  19.669  0.00  0.00    +0.000 HD
ENDBRANCH   4   7
BRANCH   1  14
ATOM     13  C   UNL     1       6.592   5.033  15.103  0.00  0.00    +0.000 C 
ATOM     14  O   UNL     1       5.885   6.037  15.823  0.00  0.00    +0.000 OA
ENDBRANCH   1  14
TORSDOF 2
ENDMDL
MODEL 3
REMARK VINA RESULT:      -6.0      2.364      5.409
REMARK  Name = 
REMARK  3 active torsions:
REMARK  status: ('A' for Active; 'I' for Inactive)
REMARK    1  A    between atoms: C_1  and  O_2
REMARK    2  A    between atoms: O_2  and  C_3
REMARK    3  A    between atoms: C_6  and  C_7
REMARK                            x       y       z     vdW  Elec       q    Type
REMARK                         _______ _______ _______ _____ _____    ______ ____
ROOT
ATOM      1  C   UNL     1       4.724   5.936  16.891  0.00  0.00    +0.000 A 
ATOM      2  C   UNL     1       3.778   6.540  17.713  0.00  0.00    +0.000 A 
ATOM      3  C   UNL     1       2.793   5.773  18.347  0.00  0.00    +0.000 A 
ATOM      4  C   UNL     1       2.703   4.378  18.171  0.00  0.00    +0.000 A 
ATOM      5  C   UNL     1       3.663   3.804  17.316  0.00  0.00    +0.000 A 
ATOM      6  C   UNL     1       4.658   4.562  16.683  0.00  0.00    +0.000 A 
ENDROOT
BRANCH   4   7
ATOM      7  C   UNL     1       1.587   3.490  18.867  0.00  0.00    +0.000 C 
ATOM      8  C   UNL     1       0.928   3.999  20.172  0.00  0.00    +0.000 C 
ATOM      9  C   UNL     1       1.765   2.906  20.848  0.00  0.00    +0.000 C 
ATOM     10  O   UNL     1       2.159   2.644  21.958  0.00  0.00    +0.000 OA
ATOM     11  N   UNL     1       2.067   2.335  19.651  0.00  0.00    +0.000 N 
ATOM     12  H   UNL     1       2.957   1.862  19.575  0.00  0.00    +0.000 HD
ENDBRANCH   4   7
BRANCH   1  14
ATOM     13  C   UNL     1       6.819   7.015  17.053  0.00  0.00    +0.000 C 
ATOM     14  O   UNL     1       5.627   6.783  16.311  0.00  0.00    +0.000 OA
ENDBRANCH   1  14
TORSDOF 2
ENDMDL
MODEL 4
REMARK VINA RESULT:      -6.0      0.508      1.403
REMARK  Name = 
REMARK  3 active torsions:
REMARK  status: ('A' for Active; 'I' for Inactive)
REMARK    1  A    between atoms: C_1  and  O_2
REMARK    2  A    between atoms: O_2  and  C_3
REMARK    3  A    between atoms: C_6  and  C_7
REMARK                            x       y       z     vdW  Elec       q    Type
REMARK                         _______ _______ _______ _____ _____    ______ ____
ROOT
ATOM      1  C   UNL     1       1.865   3.318  18.981  0.00  0.00    +0.000 A 
ATOM      2  C   UNL     1       2.190   4.670  19.015  0.00  0.00    +0.000 A 
ATOM      3  C   UNL     1       3.171   5.187  18.160  0.00  0.00    +0.000 A 
ATOM      4  C   UNL     1       3.876   4.373  17.252  0.00  0.00    +0.000 A 
ATOM      5  C   UNL     1       3.536   3.006  17.260  0.00  0.00    +0.000 A 
ATOM      6  C   UNL     1       2.550   2.481  18.106  0.00  0.00    +0.000 A 
ENDROOT
BRANCH   4   7
ATOM      7  C   UNL     1       5.002   4.933  16.284  0.00  0.00    +0.000 C 
ATOM      8  C   UNL     1       6.004   3.940  15.644  0.00  0.00    +0.000 C 
ATOM      9  C   UNL     1       7.008   4.542  16.635  0.00  0.00    +0.000 C 
ATOM     10  O   UNL     1       8.073   4.243  17.117  0.00  0.00    +0.000 OA
ATOM     11  N   UNL     1       6.166   5.568  16.933  0.00  0.00    +0.000 N 
ATOM     12  H   UNL     1       6.219   5.956  17.865  0.00  0.00    +0.000 HD
ENDBRANCH   4   7
BRANCH   1  14
ATOM     13  C   UNL     1       1.336   2.783  21.220  0.00  0.00    +0.000 C 
ATOM     14  O   UNL     1       0.906   2.920  19.870  0.00  0.00    +0.000 OA
ENDBRANCH   1  14
TORSDOF 2
ENDMDL
MODEL 5
REMARK VINA RESULT:      -6.0      1.914      2.584
REMARK  Name = 
REMARK  3 active torsions:
REMARK  status: ('A' for Active; 'I' for Inactive)
REMARK    1  A    between atoms: C_1  and  O_2
REMARK    2  A    between atoms: O_2  and  C_3
REMARK    3  A    between atoms: C_6  and  C_7
REMARK                            x       y       z     vdW  Elec       q    Type
REMARK                         _______ _______ _______ _____ _____    ______ ____
ROOT
ATOM      1  C   UNL     1       2.723   4.188  18.434  0.00  0.00    +0.000 A 
ATOM      2  C   UNL     1       3.449   4.889  19.392  0.00  0.00    +0.000 A 
ATOM      3  C   UNL     1       4.792   5.216  19.169  0.00  0.00    +0.000 A 
ATOM      4  C   UNL     1       5.467   4.841  17.990  0.00  0.00    +0.000 A 
ATOM      5  C   UNL     1       4.707   4.114  17.052  0.00  0.00    +0.000 A 
ATOM      6  C   UNL     1       3.360   3.790  17.263  0.00  0.00    +0.000 A 
ENDROOT
BRANCH   4   7
ATOM      7  C   UNL     1       6.991   5.186  17.720  0.00  0.00    +0.000 C 
ATOM      8  C   UNL     1       7.712   6.187  18.656  0.00  0.00    +0.000 C 
ATOM      9  C   UNL     1       7.616   7.147  17.463  0.00  0.00    +0.000 C 
ATOM     10  O   UNL     1       7.682   8.336  17.268  0.00  0.00    +0.000 OA
ATOM     11  N   UNL     1       7.262   6.138  16.624  0.00  0.00    +0.000 N 
ATOM     12  H   UNL     1       6.661   6.372  15.845  0.00  0.00    +0.000 HD
ENDBRANCH   4   7
BRANCH   1  14
ATOM     13  C   UNL     1       1.056   2.536  18.705  0.00  0.00    +0.000 C 
ATOM     14  O   UNL     1       1.426   3.909  18.765  0.00  0.00    +0.000 OA
ENDBRANCH   1  14
TORSDOF 2
ENDMDL
MODEL 6
REMARK VINA RESULT:      -6.0      1.897      2.268
REMARK  Name = 
REMARK  3 active torsions:
REMARK  status: ('A' for Active; 'I' for Inactive)
REMARK    1  A    between atoms: C_1  and  O_2
REMARK    2  A    between atoms: O_2  and  C_3
REMARK    3  A    between atoms: C_6  and  C_7
REMARK                            x       y       z     vdW  Elec       q    Type
REMARK                         _______ _______ _______ _____ _____    ______ ____
ROOT
ATOM      1  C   UNL     1       2.693   4.189  18.337  0.00  0.00    +0.000 A 
ATOM      2  C   UNL     1       3.361   3.677  17.229  0.00  0.00    +0.000 A 
ATOM      3  C   UNL     1       4.713   3.971  17.014  0.00  0.00    +0.000 A 
ATOM      4  C   UNL     1       5.446   4.799  17.887  0.00  0.00    +0.000 A 
ATOM      5  C   UNL     1       4.732   5.316  18.987  0.00  0.00    +0.000 A 
ATOM      6  C   UNL     1       3.381   5.021  19.214  0.00  0.00    +0.000 A 
ENDROOT
BRANCH   4   7
ATOM      7  C   UNL     1       6.974   5.158  17.658  0.00  0.00    +0.000 C 
ATOM      8  C   UNL     1       7.665   6.150  18.626  0.00  0.00    +0.000 C 
ATOM      9  C   UNL     1       7.591   7.126  17.445  0.00  0.00    +0.000 C 
ATOM     10  O   UNL     1       7.654   8.318  17.269  0.00  0.00    +0.000 OA
ATOM     11  N   UNL     1       7.264   6.127  16.583  0.00  0.00    +0.000 N 
ATOM     12  H   UNL     1       6.680   6.368  15.793  0.00  0.00    +0.000 HD
ENDBRANCH   4   7
BRANCH   1  14
ATOM     13  C   UNL     1       1.105   2.482  18.719  0.00  0.00    +0.000 C 
ATOM     14  O   UNL     1       1.372   3.851  18.437  0.00  0.00    +0.000 OA
ENDBRANCH   1  14
TORSDOF 2
ENDMDL
MODEL 7
REMARK VINA RESULT:      -5.9      2.075      5.360
REMARK  Name = 
REMARK  3 active torsions:
REMARK  status: ('A' for Active; 'I' for Inactive)
REMARK    1  A    between atoms: C_1  and  O_2
REMARK    2  A    between atoms: O_2  and  C_3
REMARK    3  A    between atoms: C_6  and  C_7
REMARK                            x       y       z     vdW  Elec       q    Type
REMARK                         _______ _______ _______ _____ _____    ______ ____
ROOT
ATOM      1  C   UNL     1       6.509   5.855  16.681  0.00  0.00    +0.000 A 
ATOM      2  C   UNL     1       5.438   6.342  17.423  0.00  0.00    +0.000 A 
ATOM      3  C   UNL     1       4.270   5.582  17.569  0.00  0.00    +0.000 A 
ATOM      4  C   UNL     1       4.121   4.317  16.968  0.00  0.00    +0.000 A 
ATOM      5  C   UNL     1       5.217   3.865  16.208  0.00  0.00    +0.000 A 
ATOM      6  C   UNL     1       6.393   4.614  16.062  0.00  0.00    +0.000 A 
ENDROOT
BRANCH   4   7
ATOM      7  C   UNL     1       2.803   3.444  17.108  0.00  0.00    +0.000 C 
ATOM      8  C   UNL     1       1.694   3.909  18.084  0.00  0.00    +0.000 C 
ATOM      9  C   UNL     1       2.175   2.741  18.954  0.00  0.00    +0.000 C 
ATOM     10  O   UNL     1       2.096   2.399  20.109  0.00  0.00    +0.000 OA
ATOM     11  N   UNL     1       2.911   2.226  17.934  0.00  0.00    +0.000 N 
ATOM     12  H   UNL     1       3.749   1.716  18.178  0.00  0.00    +0.000 HD
ENDBRANCH   4   7
BRANCH   1  14
ATOM     13  C   UNL     1       7.637   7.742  17.544  0.00  0.00    +0.000 C 
ATOM     14  O   UNL     1       7.590   6.686  16.590  0.00  0.00    +0.000 OA
ENDBRANCH   1  14
TORSDOF 2
ENDMDL
MODEL 8
REMARK VINA RESULT:      -5.9      2.343      5.520
REMARK  Name = 
REMARK  3 active torsions:
REMARK  status: ('A' for Active; 'I' for Inactive)
REMARK    1  A    between atoms: C_1  and  O_2
REMARK    2  A    between atoms: O_2  and  C_3
REMARK    3  A    between atoms: C_6  and  C_7
REMARK                            x       y       z     vdW  Elec       q    Type
REMARK                         _______ _______ _______ _____ _____    ______ ____
ROOT
ATOM      1  C   UNL     1       5.618   4.453  17.533  0.00  0.00    +0.000 A 
ATOM      2  C   UNL     1       4.571   4.082  16.695  0.00  0.00    +0.000 A 
ATOM      3  C   UNL     1       3.292   3.848  17.216  0.00  0.00    +0.000 A 
ATOM      4  C   UNL     1       3.013   3.960  18.592  0.00  0.00    +0.000 A 
ATOM      5  C   UNL     1       4.101   4.316  19.413  0.00  0.00    +0.000 A 
ATOM      6  C   UNL     1       5.383   4.560  18.900  0.00  0.00    +0.000 A 
ENDROOT
BRANCH   4   7
ATOM      7  C   UNL     1       1.576   3.686  19.208  0.00  0.00    +0.000 C 
ATOM      8  C   UNL     1       1.191   4.365  20.545  0.00  0.00    +0.000 C 
ATOM      9  C   UNL     1       1.359   2.960  21.137  0.00  0.00    +0.000 C 
ATOM     10  O   UNL     1       1.526   2.466  22.225  0.00  0.00    +0.000 OA
ATOM     11  N   UNL     1       1.397   2.395  19.901  0.00  0.00    +0.000 N 
ATOM     12  H   UNL     1       1.946   1.553  19.793  0.00  0.00    +0.000 HD
ENDBRANCH   4   7
BRANCH   1  14
ATOM     13  C   UNL     1       6.821   4.525  15.501  0.00  0.00    +0.000 C 
ATOM     14  O   UNL     1       6.825   4.638  16.920  0.00  0.00    +0.000 OA
ENDBRANCH   1  14
TORSDOF 2
ENDMDL
MODEL 9
REMARK VINA RESULT:      -5.9      1.121      1.277
REMARK  Name = 
REMARK  3 active torsions:
REMARK  status: ('A' for Active; 'I' for Inactive)
REMARK    1  A    between atoms: C_1  and  O_2
REMARK    2  A    between atoms: O_2  and  C_3
REMARK    3  A    between atoms: C_6  and  C_7
REMARK                            x       y       z     vdW  Elec       q    Type
REMARK                         _______ _______ _______ _____ _____    ______ ____
ROOT
ATOM      1  C   UNL     1       2.297   2.789  19.480  0.00  0.00    +0.000 A 
ATOM      2  C   UNL     1       1.746   3.311  18.314  0.00  0.00    +0.000 A 
ATOM      3  C   UNL     1       2.564   3.910  17.347  0.00  0.00    +0.000 A 
ATOM      4  C   UNL     1       3.958   4.025  17.514  0.00  0.00    +0.000 A 
ATOM      5  C   UNL     1       4.478   3.505  18.716  0.00  0.00    +0.000 A 
ATOM      6  C   UNL     1       3.668   2.897  19.686  0.00  0.00    +0.000 A 
ENDROOT
BRANCH   4   7
ATOM      7  C   UNL     1       4.904   4.711  16.441  0.00  0.00    +0.000 C 
ATOM      8  C   UNL     1       5.900   3.832  15.647  0.00  0.00    +0.000 C 
ATOM      9  C   UNL     1       6.963   4.493  16.534  0.00  0.00    +0.000 C 
ATOM     10  O   UNL     1       8.101   4.278  16.872  0.00  0.00    +0.000 OA
ATOM     11  N   UNL     1       6.080   5.430  16.970  0.00  0.00    +0.000 N 
ATOM     12  H   UNL     1       6.214   5.794  17.904  0.00  0.00    +0.000 HD
ENDBRANCH   4   7
BRANCH   1  14
ATOM     13  C   UNL     1       1.473   2.738  21.694  0.00  0.00    +0.000 C 
ATOM     14  O   UNL     1       1.404   2.245  20.360  0.00  0.00    +0.000 OA
ENDBRANCH   1  14
TORSDOF 2
ENDMDL
