MODEL 1
REMARK VINA RESULT:      -6.4      0.000      0.000
REMARK  Name = 
REMARK  6 active torsions:
REMARK  status: ('A' for Active; 'I' for Inactive)
REMARK    1  A    between atoms: C_2  and  C_3
REMARK    2  A    between atoms: C_2  and  C_4
REMARK    3  A    between atoms: C_7  and  C_8
REMARK    4  A    between atoms: N_10  and  N_11
REMARK    5  A    between atoms: N_11  and  C_12
REMARK    6  A    between atoms: C_12  and  N_13
REMARK                            x       y       z     vdW  Elec       q    Type
REMARK                         _______ _______ _______ _____ _____    ______ ____
ROOT
ATOM      1  C   UNL     1       2.779   2.741  19.725  0.00  0.00    +0.000 C 
ATOM      2  C   UNL     1       2.144   2.425  18.362  0.00  0.00    +0.000 C 
ATOM      3  C   UNL     1       2.867   2.891  17.152  0.00  0.00    +0.000 C 
ATOM      4  C   UNL     1       3.990   3.616  17.117  0.00  0.00    +0.000 C 
ATOM      5  C   UNL     1       4.599   4.059  15.820  0.00  0.00    +0.000 C 
ATOM      6  C   UNL     1       4.663   4.020  18.389  0.00  0.00    +0.000 C 
ATOM      7  N   UNL     1       5.796   4.669  18.295  0.00  0.00    +0.000 NA
ATOM      8  C   UNL     1       3.996   3.687  19.722  0.00  0.00    +0.000 C 
ENDROOT
BRANCH   1  10
ATOM      9  C   UNL     1       1.375   2.441  21.832  0.00  0.00    +0.000 C 
ATOM     10  C   UNL     1       1.654   3.115  20.701  0.00  0.00    +0.000 C 
ATOM     11  C   UNL     1       0.909   4.384  20.370  0.00  0.00    +0.000 C 
ENDBRANCH   1  10
BRANCH   7  12
ATOM     12  N   UNL     1       6.438   5.061  19.436  0.00  0.00    +0.000 N 
ATOM     13  H   UNL     1       6.053   4.859  20.353  0.00  0.00    +0.000 HD
BRANCH  12  14
ATOM     14  C   UNL     1       7.638   5.715  19.396  0.00  0.00    +0.000 C 
ATOM     15  S   UNL     1       7.922   6.974  18.355  0.00  0.00    +0.000 S 
BRANCH  14  16
ATOM     16  N   UNL     1       8.582   5.272  20.259  0.00  0.00    +0.000 N 
ATOM     17  H   UNL     1       8.616   5.709  21.169  0.00  0.00    +0.000 HD
ATOM     18  H   UNL     1       9.229   4.540  20.005  0.00  0.00    +0.000 HD
ENDBRANCH  14  16
ENDBRANCH  12  14
ENDBRANCH   7  12
TORSDOF 4
ENDMDL
MODEL 2
REMARK VINA RESULT:      -6.3      2.198      3.003
REMARK  Name = 
REMARK  6 active torsions:
REMARK  status: ('A' for Active; 'I' for Inactive)
REMARK    1  A    between atoms: C_2  and  C_3
REMARK    2  A    between atoms: C_2  and  C_4
REMARK    3  A    between atoms: C_7  and  C_8
REMARK    4  A    between atoms: N_10  and  N_11
REMARK    5  A    between atoms: N_11  and  C_12
REMARK    6  A    between atoms: C_12  and  N_13
REMARK                            x       y       z     vdW  Elec       q    Type
REMARK                         _______ _______ _______ _____ _____    ______ ____
ROOT
ATOM      1  C   UNL     1       2.691   5.944  19.884  0.00  0.00    +0.000 C 
ATOM      2  C   UNL     1       1.579   4.946  19.523  0.00  0.00    +0.000 C 
ATOM      3  C   UNL     1       1.999   3.637  18.962  0.00  0.00    +0.000 C 
ATOM      4  C   UNL     1       3.246   3.248  18.676  0.00  0.00    +0.000 C 
ATOM      5  C   UNL     1       3.531   1.906  18.070  0.00  0.00    +0.000 C 
ATOM      6  C   UNL     1       4.397   4.163  18.942  0.00  0.00    +0.000 C 
ATOM      7  N   UNL     1       5.601   3.705  18.708  0.00  0.00    +0.000 NA
ATOM      8  C   UNL     1       4.122   5.580  19.443  0.00  0.00    +0.000 C 
ENDROOT
BRANCH   1  10
ATOM      9  C   UNL     1       2.307   7.863  18.251  0.00  0.00    +0.000 C 
ATOM     10  C   UNL     1       2.215   7.350  19.491  0.00  0.00    +0.000 C 
ATOM     11  C   UNL     1       1.522   8.125  20.584  0.00  0.00    +0.000 C 
ENDBRANCH   1  10
BRANCH   7  12
ATOM     12  N   UNL     1       6.679   4.515  18.935  0.00  0.00    +0.000 N 
ATOM     13  H   UNL     1       7.034   4.669  19.871  0.00  0.00    +0.000 HD
BRANCH  12  14
ATOM     14  C   UNL     1       7.342   5.130  17.909  0.00  0.00    +0.000 C 
ATOM     15  S   UNL     1       7.482   6.780  17.812  0.00  0.00    +0.000 S 
BRANCH  14  16
ATOM     16  N   UNL     1       7.878   4.310  16.975  0.00  0.00    +0.000 N 
ATOM     17  H   UNL     1       8.334   4.746  16.186  0.00  0.00    +0.000 HD
ATOM     18  H   UNL     1       7.822   3.305  17.058  0.00  0.00    +0.000 HD
ENDBRANCH  14  16
ENDBRANCH  12  14
ENDBRANCH   7  12
TORSDOF 4
ENDMDL
MODEL 3
REMARK VINA RESULT:      -6.3      2.751      4.043
REMARK  Name = 
REMARK  6 active torsions:
REMARK  status: ('A' for Active; 'I' for Inactive)
REMARK    1  A    between atoms: C_2  and  C_3
REMARK    2  A    between atoms: C_2  and  C_4
REMARK    3  A    between atoms: C_7  and  C_8
REMARK    4  A    between atoms: N_10  and  N_11
REMARK    5  A    between atoms: N_11  and  C_12
REMARK    6  A    between atoms: C_12  and  N_13
REMARK                            x       y       z     vdW  Elec       q    Type
REMARK                         _______ _______ _______ _____ _____    ______ ____
ROOT
ATOM      1  C   UNL     1       3.258   4.481  18.002  0.00  0.00    +0.000 C 
ATOM      2  C   UNL     1       3.767   5.144  19.291  0.00  0.00    +0.000 C 
ATOM      3  C   UNL     1       5.216   5.459  19.366  0.00  0.00    +0.000 C 
ATOM      4  C   UNL     1       6.149   5.171  18.452  0.00  0.00    +0.000 C 
ATOM      5  C   UNL     1       7.593   5.509  18.671  0.00  0.00    +0.000 C 
ATOM      6  C   UNL     1       5.767   4.481  17.182  0.00  0.00    +0.000 C 
ATOM      7  N   UNL     1       6.708   4.286  16.293  0.00  0.00    +0.000 NA
ATOM      8  C   UNL     1       4.325   4.017  16.991  0.00  0.00    +0.000 C 
ENDROOT
BRANCH   1  10
ATOM      9  C   UNL     1       2.191   2.168  17.915  0.00  0.00    +0.000 C 
ATOM     10  C   UNL     1       2.210   3.427  18.388  0.00  0.00    +0.000 C 
ATOM     11  C   UNL     1       1.223   3.857  19.444  0.00  0.00    +0.000 C 
ENDBRANCH   1  10
BRANCH   7  12
ATOM     12  N   UNL     1       6.399   3.654  15.122  0.00  0.00    +0.000 N 
ATOM     13  H   UNL     1       5.915   2.763  15.116  0.00  0.00    +0.000 HD
BRANCH  12  14
ATOM     14  C   UNL     1       6.703   4.204  13.907  0.00  0.00    +0.000 C 
ATOM     15  S   UNL     1       6.161   3.551  12.482  0.00  0.00    +0.000 S 
BRANCH  14  16
ATOM     16  N   UNL     1       7.474   5.315  13.937  0.00  0.00    +0.000 N 
ATOM     17  H   UNL     1       8.476   5.182  13.934  0.00  0.00    +0.000 HD
ATOM     18  H   UNL     1       7.069   6.240  13.967  0.00  0.00    +0.000 HD
ENDBRANCH  14  16
ENDBRANCH  12  14
ENDBRANCH   7  12
TORSDOF 4
ENDMDL
MODEL 4
REMARK VINA RESULT:      -6.2      2.246      3.222
REMARK  Name = 
REMARK  6 active torsions:
REMARK  status: ('A' for Active; 'I' for Inactive)
REMARK    1  A    between atoms: C_2  and  C_3
REMARK    2  A    between atoms: C_2  and  C_4
REMARK    3  A    between atoms: C_7  and  C_8
REMARK    4  A    between atoms: N_10  and  N_11
REMARK    5  A    between atoms: N_11  and  C_12
REMARK    6  A    between atoms: C_12  and  N_13
REMARK                            x       y       z     vdW  Elec       q    Type
REMARK                         _______ _______ _______ _____ _____    ______ ____
ROOT
ATOM      1  C   UNL     1       2.448   5.818  20.406  0.00  0.00    +0.000 C 
ATOM      2  C   UNL     1       1.246   4.863  20.344  0.00  0.00    +0.000 C 
ATOM      3  C   UNL     1       1.468   3.531  19.726  0.00  0.00    +0.000 C 
ATOM      4  C   UNL     1       2.594   3.088  19.157  0.00  0.00    +0.000 C 
ATOM      5  C   UNL     1       2.674   1.729  18.528  0.00  0.00    +0.000 C 
ATOM      6  C   UNL     1       3.809   3.958  19.119  0.00  0.00    +0.000 C 
ATOM      7  N   UNL     1       4.903   3.449  18.612  0.00  0.00    +0.000 NA
ATOM      8  C   UNL     1       3.715   5.391  19.641  0.00  0.00    +0.000 C 
ENDROOT
BRANCH   1  10
ATOM      9  C   UNL     1       1.315   8.022  21.005  0.00  0.00    +0.000 C 
ATOM     10  C   UNL     1       1.945   7.238  20.111  0.00  0.00    +0.000 C 
ATOM     11  C   UNL     1       2.292   7.774  18.744  0.00  0.00    +0.000 C 
ENDBRANCH   1  10
BRANCH   7  12
ATOM     12  N   UNL     1       6.033   4.216  18.555  0.00  0.00    +0.000 N 
ATOM     13  H   UNL     1       6.511   4.513  19.398  0.00  0.00    +0.000 HD
BRANCH  12  14
ATOM     14  C   UNL     1       6.584   4.593  17.361  0.00  0.00    +0.000 C 
ATOM     15  S   UNL     1       5.698   5.345  16.178  0.00  0.00    +0.000 S 
BRANCH  14  16
ATOM     16  N   UNL     1       7.899   4.316  17.204  0.00  0.00    +0.000 N 
ATOM     17  H   UNL     1       8.545   4.770  17.835  0.00  0.00    +0.000 HD
ATOM     18  H   UNL     1       8.225   3.686  16.484  0.00  0.00    +0.000 HD
ENDBRANCH  14  16
ENDBRANCH  12  14
ENDBRANCH   7  12
TORSDOF 4
ENDMDL
MODEL 5
REMARK VINA RESULT:      -6.2      4.743      5.463
REMARK  Name = 
REMARK  6 active torsions:
REMARK  status: ('A' for Active; 'I' for Inactive)
REMARK    1  A    between atoms: C_2  and  C_3
REMARK    2  A    between atoms: C_2  and  C_4
REMARK    3  A    between atoms: C_7  and  C_8
REMARK    4  A    between atoms: N_10  and  N_11
REMARK    5  A    between atoms: N_11  and  C_12
REMARK    6  A    between atoms: C_12  and  N_13
REMARK                            x       y       z     vdW  Elec       q    Type
REMARK                         _______ _______ _______ _____ _____    ______ ____
ROOT
ATOM      1  C   UNL     1       2.347   4.617  20.089  0.00  0.00    +0.000 C 
ATOM      2  C   UNL     1       2.768   4.703  18.613  0.00  0.00    +0.000 C 
ATOM      3  C   UNL     1       2.802   6.053  17.995  0.00  0.00    +0.000 C 
ATOM      4  C   UNL     1       2.446   7.208  18.568  0.00  0.00    +0.000 C 
ATOM      5  C   UNL     1       2.490   8.504  17.815  0.00  0.00    +0.000 C 
ATOM      6  C   UNL     1       1.974   7.228  19.986  0.00  0.00    +0.000 C 
ATOM      7  N   UNL     1       1.705   8.394  20.517  0.00  0.00    +0.000 NA
ATOM      8  C   UNL     1       1.804   5.907  20.733  0.00  0.00    +0.000 C 
ENDROOT
BRANCH   1  10
ATOM      9  C   UNL     1       0.757   2.800  19.273  0.00  0.00    +0.000 C 
ATOM     10  C   UNL     1       1.468   3.370  20.263  0.00  0.00    +0.000 C 
ATOM     11  C   UNL     1       1.519   2.730  21.627  0.00  0.00    +0.000 C 
ENDBRANCH   1  10
BRANCH   7  12
ATOM     12  N   UNL     1       1.265   8.453  21.810  0.00  0.00    +0.000 N 
ATOM     13  H   UNL     1       1.544   7.759  22.494  0.00  0.00    +0.000 HD
BRANCH  12  14
ATOM     14  C   UNL     1       0.453   9.464  22.247  0.00  0.00    +0.000 C 
ATOM     15  S   UNL     1       0.129  10.799  21.317  0.00  0.00    +0.000 S 
BRANCH  14  16
ATOM     16  N   UNL     1      -0.070   9.309  23.485  0.00  0.00    +0.000 N 
ATOM     17  H   UNL     1      -0.470   8.408  23.707  0.00  0.00    +0.000 HD
ATOM     18  H   UNL     1      -0.067  10.061  24.159  0.00  0.00    +0.000 HD
ENDBRANCH  14  16
ENDBRANCH  12  14
ENDBRANCH   7  12
TORSDOF 4
ENDMDL
MODEL 6
REMARK VINA RESULT:      -6.2      2.631      3.574
REMARK  Name = 
REMARK  6 active torsions:
REMARK  status: ('A' for Active; 'I' for Inactive)
REMARK    1  A    between atoms: C_2  and  C_3
REMARK    2  A    between atoms: C_2  and  C_4
REMARK    3  A    between atoms: C_7  and  C_8
REMARK    4  A    between atoms: N_10  and  N_11
REMARK    5  A    between atoms: N_11  and  C_12
REMARK    6  A    between atoms: C_12  and  N_13
REMARK                            x       y       z     vdW  Elec       q    Type
REMARK                         _______ _______ _______ _____ _____    ______ ____
ROOT
ATOM      1  C   UNL     1       2.836   6.309  19.553  0.00  0.00    +0.000 C 
ATOM      2  C   UNL     1       1.896   5.183  20.011  0.00  0.00    +0.000 C 
ATOM      3  C   UNL     1       1.985   3.888  19.290  0.00  0.00    +0.000 C 
ATOM      4  C   UNL     1       2.757   3.608  18.235  0.00  0.00    +0.000 C 
ATOM      5  C   UNL     1       2.722   2.264  17.571  0.00  0.00    +0.000 C 
ATOM      6  C   UNL     1       3.673   4.650  17.678  0.00  0.00    +0.000 C 
ATOM      7  N   UNL     1       4.457   4.300  16.689  0.00  0.00    +0.000 NA
ATOM      8  C   UNL     1       3.637   6.061  18.259  0.00  0.00    +0.000 C 
ENDROOT
BRANCH   1  10
ATOM      9  C   UNL     1       1.471   8.123  20.711  0.00  0.00    +0.000 C 
ATOM     10  C   UNL     1       2.058   7.632  19.605  0.00  0.00    +0.000 C 
ATOM     11  C   UNL     1       2.069   8.437  18.330  0.00  0.00    +0.000 C 
ENDBRANCH   1  10
BRANCH   7  12
ATOM     12  N   UNL     1       5.304   5.226  16.149  0.00  0.00    +0.000 N 
ATOM     13  H   UNL     1       4.952   6.063  15.699  0.00  0.00    +0.000 HD
BRANCH  12  14
ATOM     14  C   UNL     1       6.663   5.081  16.217  0.00  0.00    +0.000 C 
ATOM     15  S   UNL     1       7.444   4.739  17.639  0.00  0.00    +0.000 S 
BRANCH  14  16
ATOM     16  N   UNL     1       7.333   5.234  15.051  0.00  0.00    +0.000 N 
ATOM     17  H   UNL     1       6.875   4.909  14.211  0.00  0.00    +0.000 HD
ATOM     18  H   UNL     1       8.252   5.650  15.019  0.00  0.00    +0.000 HD
ENDBRANCH  14  16
ENDBRANCH  12  14
ENDBRANCH   7  12
TORSDOF 4
ENDMDL
MODEL 7
REMARK VINA RESULT:      -6.2      3.509      4.754
REMARK  Name = 
REMARK  6 active torsions:
REMARK  status: ('A' for Active; 'I' for Inactive)
REMARK    1  A    between atoms: C_2  and  C_3
REMARK    2  A    between atoms: C_2  and  C_4
REMARK    3  A    between atoms: C_7  and  C_8
REMARK    4  A    between atoms: N_10  and  N_11
REMARK    5  A    between atoms: N_11  and  C_12
REMARK    6  A    between atoms: C_12  and  N_13
REMARK                            x       y       z     vdW  Elec       q    Type
REMARK                         _______ _______ _______ _____ _____    ______ ____
ROOT
ATOM      1  C   UNL     1       3.388   6.589  17.747  0.00  0.00    +0.000 C 
ATOM      2  C   UNL     1       4.609   7.262  17.102  0.00  0.00    +0.000 C 
ATOM      3  C   UNL     1       5.908   6.549  17.198  0.00  0.00    +0.000 C 
ATOM      4  C   UNL     1       6.148   5.402  17.843  0.00  0.00    +0.000 C 
ATOM      5  C   UNL     1       7.522   4.806  17.898  0.00  0.00    +0.000 C 
ATOM      6  C   UNL     1       5.038   4.690  18.547  0.00  0.00    +0.000 C 
ATOM      7  N   UNL     1       5.315   3.538  19.102  0.00  0.00    +0.000 NA
ATOM      8  C   UNL     1       3.657   5.340  18.609  0.00  0.00    +0.000 C 
ENDROOT
BRANCH   1  10
ATOM      9  C   UNL     1       2.082   8.778  17.780  0.00  0.00    +0.000 C 
ATOM     10  C   UNL     1       2.536   7.680  18.411  0.00  0.00    +0.000 C 
ATOM     11  C   UNL     1       2.132   7.402  19.838  0.00  0.00    +0.000 C 
ENDBRANCH   1  10
BRANCH   7  12
ATOM     12  N   UNL     1       4.328   2.859  19.760  0.00  0.00    +0.000 N 
ATOM     13  H   UNL     1       4.132   3.032  20.740  0.00  0.00    +0.000 HD
BRANCH  12  14
ATOM     14  C   UNL     1       3.542   1.939  19.122  0.00  0.00    +0.000 C 
ATOM     15  S   UNL     1       1.888   2.061  19.092  0.00  0.00    +0.000 S 
BRANCH  14  16
ATOM     16  N   UNL     1       4.196   0.921  18.516  0.00  0.00    +0.000 N 
ATOM     17  H   UNL     1       3.634   0.162  18.155  0.00  0.00    +0.000 HD
ATOM     18  H   UNL     1       5.202   0.915  18.430  0.00  0.00    +0.000 HD
ENDBRANCH  14  16
ENDBRANCH  12  14
ENDBRANCH   7  12
TORSDOF 4
ENDMDL
MODEL 8
REMARK VINA RESULT:      -6.1      2.854      3.651
REMARK  Name = 
REMARK  6 active torsions:
REMARK  status: ('A' for Active; 'I' for Inactive)
REMARK    1  A    between atoms: C_2  and  C_3
REMARK    2  A    between atoms: C_2  and  C_4
REMARK    3  A    between atoms: C_7  and  C_8
REMARK    4  A    between atoms: N_10  and  N_11
REMARK    5  A    between atoms: N_11  and  C_12
REMARK    6  A    between atoms: C_12  and  N_13
REMARK                            x       y       z     vdW  Elec       q    Type
REMARK                         _______ _______ _______ _____ _____    ______ ____
ROOT
ATOM      1  C   UNL     1       2.669   3.371  17.432  0.00  0.00    +0.000 C 
ATOM      2  C   UNL     1       1.816   4.500  18.032  0.00  0.00    +0.000 C 
ATOM      3  C   UNL     1       2.374   5.875  17.977  0.00  0.00    +0.000 C 
ATOM      4  C   UNL     1       3.575   6.236  17.514  0.00  0.00    +0.000 C 
ATOM      5  C   UNL     1       4.036   7.662  17.554  0.00  0.00    +0.000 C 
ATOM      6  C   UNL     1       4.504   5.208  16.953  0.00  0.00    +0.000 C 
ATOM      7  N   UNL     1       5.637   5.626  16.450  0.00  0.00    +0.000 NA
ATOM      8  C   UNL     1       4.107   3.734  17.015  0.00  0.00    +0.000 C 
ENDROOT
BRANCH   1  10
ATOM      9  C   UNL     1       3.516   1.244  18.552  0.00  0.00    +0.000 C 
ATOM     10  C   UNL     1       2.534   2.138  18.337  0.00  0.00    +0.000 C 
ATOM     11  C   UNL     1       1.228   2.026  19.083  0.00  0.00    +0.000 C 
ENDBRANCH   1  10
BRANCH   7  12
ATOM     12  N   UNL     1       6.515   4.715  15.933  0.00  0.00    +0.000 N 
ATOM     13  H   UNL     1       6.911   3.980  16.508  0.00  0.00    +0.000 HD
BRANCH  12  14
ATOM     14  C   UNL     1       6.877   4.735  14.614  0.00  0.00    +0.000 C 
ATOM     15  S   UNL     1       6.075   3.848  13.466  0.00  0.00    +0.000 S 
BRANCH  14  16
ATOM     16  N   UNL     1       7.931   5.524  14.302  0.00  0.00    +0.000 N 
ATOM     17  H   UNL     1       7.747   6.509  14.169  0.00  0.00    +0.000 HD
ATOM     18  H   UNL     1       8.863   5.147  14.201  0.00  0.00    +0.000 HD
ENDBRANCH  14  16
ENDBRANCH  12  14
ENDBRANCH   7  12
TORSDOF 4
ENDMDL
MODEL 9
REMARK VINA RESULT:      -6.1      4.582      5.281
REMARK  Name = 
REMARK  6 active torsions:
REMARK  status: ('A' for Active; 'I' for Inactive)
REMARK    1  A    between atoms: C_2  and  C_3
REMARK    2  A    between atoms: C_2  and  C_4
REMARK    3  A    between atoms: C_7  and  C_8
REMARK    4  A    between atoms: N_10  and  N_11
REMARK    5  A    between atoms: N_11  and  C_12
REMARK    6  A    between atoms: C_12  and  N_13
REMARK                            x       y       z     vdW  Elec       q    Type
REMARK                         _______ _______ _______ _____ _____    ______ ____
ROOT
ATOM      1  C   UNL     1       2.515   4.352  20.172  0.00  0.00    +0.000 C 
ATOM      2  C   UNL     1       3.042   4.297  18.730  0.00  0.00    +0.000 C 
ATOM      3  C   UNL     1       3.133   5.581  17.991  0.00  0.00    +0.000 C 
ATOM      4  C   UNL     1       2.747   6.786  18.424  0.00  0.00    +0.000 C 
ATOM      5  C   UNL     1       2.857   8.005  17.557  0.00  0.00    +0.000 C 
ATOM      6  C   UNL     1       2.174   6.943  19.796  0.00  0.00    +0.000 C 
ATOM      7  N   UNL     1       1.879   8.154  20.193  0.00  0.00    +0.000 NA
ATOM      8  C   UNL     1       1.939   5.699  20.651  0.00  0.00    +0.000 C 
ENDROOT
BRANCH   1  10
ATOM      9  C   UNL     1       1.408   2.550  21.595  0.00  0.00    +0.000 C 
ATOM     10  C   UNL     1       1.614   3.130  20.399  0.00  0.00    +0.000 C 
ATOM     11  C   UNL     1       0.860   2.651  19.184  0.00  0.00    +0.000 C 
ENDBRANCH   1  10
BRANCH   7  12
ATOM     12  N   UNL     1       1.348   8.337  21.439  0.00  0.00    +0.000 N 
ATOM     13  H   UNL     1       1.736   7.870  22.251  0.00  0.00    +0.000 HD
BRANCH  12  14
ATOM     14  C   UNL     1       0.289   9.177  21.653  0.00  0.00    +0.000 C 
ATOM     15  S   UNL     1      -0.206   9.603  23.177  0.00  0.00    +0.000 S 
BRANCH  14  16
ATOM     16  N   UNL     1      -0.331   9.640  20.543  0.00  0.00    +0.000 N 
ATOM     17  H   UNL     1      -1.024   9.040  20.117  0.00  0.00    +0.000 HD
ATOM     18  H   UNL     1      -0.110  10.545  20.151  0.00  0.00    +0.000 HD
ENDBRANCH  14  16
ENDBRANCH  12  14
ENDBRANCH   7  12
TORSDOF 4
ENDMDL
