MODEL 1
REMARK VINA RESULT:      -6.7      0.000      0.000
REMARK  Name = 
REMARK  3 active torsions:
REMARK  status: ('A' for Active; 'I' for Inactive)
REMARK    1  A    between atoms: C_1  and  C_2
REMARK    2  A    between atoms: C_2  and  C_3
REMARK    3  A    between atoms: C_2  and  C_4
REMARK                            x       y       z     vdW  Elec       q    Type
REMARK                         _______ _______ _______ _____ _____    ______ ____
ROOT
ATOM      1  C   UNL     1       3.173   3.222  18.942  0.00  0.00    +0.000 C 
ATOM      2  N   UNL     1       3.107   4.654  18.560  0.00  0.00    +0.000 N 
ATOM      3  C   UNL     1       4.290   5.082  17.916  0.00  0.00    +0.000 A 
ATOM      4  C   UNL     1       4.271   6.200  17.085  0.00  0.00    +0.000 A 
ATOM      5  C   UNL     1       5.459   6.658  16.519  0.00  0.00    +0.000 A 
ATOM      6  C   UNL     1       6.638   6.004  16.839  0.00  0.00    +0.000 A 
ATOM      7  N   UNL     1       6.714   4.957  17.688  0.00  0.00    +0.000 NA
ATOM      8  C   UNL     1       5.549   4.527  18.209  0.00  0.00    +0.000 A 
ATOM      9  N   UNL     1       5.623   3.473  19.116  0.00  0.00    +0.000 N 
ATOM     10  C   UNL     1       4.513   2.858  19.636  0.00  0.00    +0.000 C 
ATOM     11  O   UNL     1       4.620   1.990  20.500  0.00  0.00    +0.000 OA
ATOM     12  H   UNL     1       2.286   4.878  18.006  0.00  0.00    +0.000 HD
ATOM     13  H   UNL     1       6.540   3.191  19.429  0.00  0.00    +0.000 HD
ENDROOT
BRANCH   1  15
ATOM     14  C   UNL     1       1.502   3.818  20.807  0.00  0.00    +0.000 C 
ATOM     15  C   UNL     1       1.929   2.794  19.752  0.00  0.00    +0.000 C 
ATOM     16  C   UNL     1       0.747   2.472  18.829  0.00  0.00    +0.000 C 
ENDBRANCH   1  15
TORSDOF 1
ENDMDL
MODEL 2
REMARK VINA RESULT:      -6.6      1.747      4.677
REMARK  Name = 
REMARK  3 active torsions:
REMARK  status: ('A' for Active; 'I' for Inactive)
REMARK    1  A    between atoms: C_1  and  C_2
REMARK    2  A    between atoms: C_2  and  C_3
REMARK    3  A    between atoms: C_2  and  C_4
REMARK                            x       y       z     vdW  Elec       q    Type
REMARK                         _______ _______ _______ _____ _____    ______ ____
ROOT
ATOM      1  C   UNL     1       4.896   4.922  17.304  0.00  0.00    +0.000 C 
ATOM      2  N   UNL     1       3.694   4.113  16.992  0.00  0.00    +0.000 N 
ATOM      3  C   UNL     1       3.075   3.615  18.162  0.00  0.00    +0.000 A 
ATOM      4  C   UNL     1       1.731   3.248  18.143  0.00  0.00    +0.000 A 
ATOM      5  C   UNL     1       1.156   2.686  19.280  0.00  0.00    +0.000 A 
ATOM      6  C   UNL     1       1.958   2.469  20.390  0.00  0.00    +0.000 A 
ATOM      7  N   UNL     1       3.278   2.751  20.432  0.00  0.00    +0.000 NA
ATOM      8  C   UNL     1       3.805   3.306  19.324  0.00  0.00    +0.000 A 
ATOM      9  N   UNL     1       5.173   3.562  19.346  0.00  0.00    +0.000 N 
ATOM     10  C   UNL     1       5.823   4.228  18.338  0.00  0.00    +0.000 C 
ATOM     11  O   UNL     1       7.046   4.358  18.354  0.00  0.00    +0.000 OA
ATOM     12  H   UNL     1       3.026   4.605  16.406  0.00  0.00    +0.000 HD
ATOM     13  H   UNL     1       5.704   3.196  20.122  0.00  0.00    +0.000 HD
ENDROOT
BRANCH   1  15
ATOM     14  C   UNL     1       5.573   4.323  14.895  0.00  0.00    +0.000 C 
ATOM     15  C   UNL     1       5.634   5.359  16.019  0.00  0.00    +0.000 C 
ATOM     16  C   UNL     1       5.115   6.711  15.511  0.00  0.00    +0.000 C 
ENDBRANCH   1  15
TORSDOF 1
ENDMDL
MODEL 3
REMARK VINA RESULT:      -6.4      1.604      4.690
REMARK  Name = 
REMARK  3 active torsions:
REMARK  status: ('A' for Active; 'I' for Inactive)
REMARK    1  A    between atoms: C_1  and  C_2
REMARK    2  A    between atoms: C_2  and  C_3
REMARK    3  A    between atoms: C_2  and  C_4
REMARK                            x       y       z     vdW  Elec       q    Type
REMARK                         _______ _______ _______ _____ _____    ______ ____
ROOT
ATOM      1  C   UNL     1       5.158   5.410  17.746  0.00  0.00    +0.000 C 
ATOM      2  N   UNL     1       3.915   4.856  17.156  0.00  0.00    +0.000 N 
ATOM      3  C   UNL     1       3.199   4.064  18.083  0.00  0.00    +0.000 A 
ATOM      4  C   UNL     1       1.834   3.845  17.912  0.00  0.00    +0.000 A 
ATOM      5  C   UNL     1       1.158   2.998  18.789  0.00  0.00    +0.000 A 
ATOM      6  C   UNL     1       1.883   2.363  19.786  0.00  0.00    +0.000 A 
ATOM      7  N   UNL     1       3.216   2.497  19.951  0.00  0.00    +0.000 NA
ATOM      8  C   UNL     1       3.841   3.331  19.098  0.00  0.00    +0.000 A 
ATOM      9  N   UNL     1       5.222   3.443  19.237  0.00  0.00    +0.000 N 
ATOM     10  C   UNL     1       5.973   4.339  18.518  0.00  0.00    +0.000 C 
ATOM     11  O   UNL     1       7.200   4.346  18.606  0.00  0.00    +0.000 OA
ATOM     12  H   UNL     1       3.318   5.570  16.747  0.00  0.00    +0.000 HD
ATOM     13  H   UNL     1       5.682   2.800  19.863  0.00  0.00    +0.000 HD
ENDROOT
BRANCH   1  15
ATOM     14  C   UNL     1       5.183   6.621  15.475  0.00  0.00    +0.000 C 
ATOM     15  C   UNL     1       5.993   6.172  16.693  0.00  0.00    +0.000 C 
ATOM     16  C   UNL     1       6.708   7.378  17.317  0.00  0.00    +0.000 C 
ENDBRANCH   1  15
TORSDOF 1
ENDMDL
MODEL 4
REMARK VINA RESULT:      -6.3      2.226      5.136
REMARK  Name = 
REMARK  3 active torsions:
REMARK  status: ('A' for Active; 'I' for Inactive)
REMARK    1  A    between atoms: C_1  and  C_2
REMARK    2  A    between atoms: C_2  and  C_3
REMARK    3  A    between atoms: C_2  and  C_4
REMARK                            x       y       z     vdW  Elec       q    Type
REMARK                         _______ _______ _______ _____ _____    ______ ____
ROOT
ATOM      1  C   UNL     1       4.759   4.621  16.460  0.00  0.00    +0.000 C 
ATOM      2  N   UNL     1       4.680   3.371  17.254  0.00  0.00    +0.000 N 
ATOM      3  C   UNL     1       3.432   3.237  17.904  0.00  0.00    +0.000 A 
ATOM      4  C   UNL     1       2.977   1.980  18.297  0.00  0.00    +0.000 A 
ATOM      5  C   UNL     1       1.782   1.872  19.006  0.00  0.00    +0.000 A 
ATOM      6  C   UNL     1       1.102   3.034  19.337  0.00  0.00    +0.000 A 
ATOM      7  N   UNL     1       1.536   4.275  19.032  0.00  0.00    +0.000 NA
ATOM      8  C   UNL     1       2.686   4.349  18.335  0.00  0.00    +0.000 A 
ATOM      9  N   UNL     1       3.161   5.627  18.051  0.00  0.00    +0.000 N 
ATOM     10  C   UNL     1       4.252   5.856  17.253  0.00  0.00    +0.000 C 
ATOM     11  O   UNL     1       4.692   6.994  17.097  0.00  0.00    +0.000 OA
ATOM     12  H   UNL     1       4.900   2.542  16.709  0.00  0.00    +0.000 HD
ATOM     13  H   UNL     1       2.699   6.406  18.496  0.00  0.00    +0.000 HD
ENDROOT
BRANCH   1  15
ATOM     14  C   UNL     1       7.303   4.533  16.836  0.00  0.00    +0.000 C 
ATOM     15  C   UNL     1       6.165   4.819  15.853  0.00  0.00    +0.000 C 
ATOM     16  C   UNL     1       6.348   3.977  14.584  0.00  0.00    +0.000 C 
ENDBRANCH   1  15
TORSDOF 1
ENDMDL
MODEL 5
REMARK VINA RESULT:      -6.3      0.840      1.296
REMARK  Name = 
REMARK  3 active torsions:
REMARK  status: ('A' for Active; 'I' for Inactive)
REMARK    1  A    between atoms: C_1  and  C_2
REMARK    2  A    between atoms: C_2  and  C_3
REMARK    3  A    between atoms: C_2  and  C_4
REMARK                            x       y       z     vdW  Elec       q    Type
REMARK                         _______ _______ _______ _____ _____    ______ ____
ROOT
ATOM      1  C   UNL     1       2.932   3.927  18.528  0.00  0.00    +0.000 C 
ATOM      2  N   UNL     1       3.356   5.334  18.329  0.00  0.00    +0.000 N 
ATOM      3  C   UNL     1       4.738   5.433  18.050  0.00  0.00    +0.000 A 
ATOM      4  C   UNL     1       5.242   6.552  17.390  0.00  0.00    +0.000 A 
ATOM      5  C   UNL     1       6.616   6.673  17.191  0.00  0.00    +0.000 A 
ATOM      6  C   UNL     1       7.447   5.687  17.699  0.00  0.00    +0.000 A 
ATOM      7  N   UNL     1       7.009   4.619  18.399  0.00  0.00    +0.000 NA
ATOM      8  C   UNL     1       5.676   4.520  18.564  0.00  0.00    +0.000 A 
ATOM      9  N   UNL     1       5.221   3.442  19.318  0.00  0.00    +0.000 N 
ATOM     10  C   UNL     1       3.889   3.151  19.472  0.00  0.00    +0.000 C 
ATOM     11  O   UNL     1       3.524   2.242  20.217  0.00  0.00    +0.000 OA
ATOM     12  H   UNL     1       2.805   5.818  17.626  0.00  0.00    +0.000 HD
ATOM     13  H   UNL     1       5.909   2.888  19.804  0.00  0.00    +0.000 HD
ENDROOT
BRANCH   1  15
ATOM     14  C   UNL     1       0.847   2.440  18.779  0.00  0.00    +0.000 C 
ATOM     15  C   UNL     1       1.449   3.837  18.952  0.00  0.00    +0.000 C 
ATOM     16  C   UNL     1       1.253   4.314  20.397  0.00  0.00    +0.000 C 
ENDBRANCH   1  15
TORSDOF 1
ENDMDL
MODEL 6
REMARK VINA RESULT:      -6.3      2.108      2.542
REMARK  Name = 
REMARK  3 active torsions:
REMARK  status: ('A' for Active; 'I' for Inactive)
REMARK    1  A    between atoms: C_1  and  C_2
REMARK    2  A    between atoms: C_2  and  C_3
REMARK    3  A    between atoms: C_2  and  C_4
REMARK                            x       y       z     vdW  Elec       q    Type
REMARK                         _______ _______ _______ _____ _____    ______ ____
ROOT
ATOM      1  C   UNL     1       2.829   4.934  18.946  0.00  0.00    +0.000 C 
ATOM      2  N   UNL     1       4.188   4.850  19.533  0.00  0.00    +0.000 N 
ATOM      3  C   UNL     1       5.192   4.817  18.538  0.00  0.00    +0.000 A 
ATOM      4  C   UNL     1       6.496   5.201  18.843  0.00  0.00    +0.000 A 
ATOM      5  C   UNL     1       7.490   5.089  17.874  0.00  0.00    +0.000 A 
ATOM      6  C   UNL     1       7.154   4.554  16.640  0.00  0.00    +0.000 A 
ATOM      7  N   UNL     1       5.919   4.111  16.320  0.00  0.00    +0.000 NA
ATOM      8  C   UNL     1       4.975   4.244  17.271  0.00  0.00    +0.000 A 
ATOM      9  N   UNL     1       3.709   3.753  16.964  0.00  0.00    +0.000 N 
ATOM     10  C   UNL     1       2.624   3.923  17.787  0.00  0.00    +0.000 C 
ATOM     11  O   UNL     1       1.543   3.399  17.521  0.00  0.00    +0.000 OA
ATOM     12  H   UNL     1       4.372   5.581  20.214  0.00  0.00    +0.000 HD
ATOM     13  H   UNL     1       3.611   3.212  16.118  0.00  0.00    +0.000 HD
ENDROOT
BRANCH   1  15
ATOM     14  C   UNL     1       1.998   3.761  21.080  0.00  0.00    +0.000 C 
ATOM     15  C   UNL     1       1.736   4.847  20.034  0.00  0.00    +0.000 C 
ATOM     16  C   UNL     1       1.530   6.200  20.727  0.00  0.00    +0.000 C 
ENDBRANCH   1  15
TORSDOF 1
ENDMDL
MODEL 7
REMARK VINA RESULT:      -6.3      1.656      4.658
REMARK  Name = 
REMARK  3 active torsions:
REMARK  status: ('A' for Active; 'I' for Inactive)
REMARK    1  A    between atoms: C_1  and  C_2
REMARK    2  A    between atoms: C_2  and  C_3
REMARK    3  A    between atoms: C_2  and  C_4
REMARK                            x       y       z     vdW  Elec       q    Type
REMARK                         _______ _______ _______ _____ _____    ______ ____
ROOT
ATOM      1  C   UNL     1       5.293   5.512  17.712  0.00  0.00    +0.000 C 
ATOM      2  N   UNL     1       4.081   4.974  17.050  0.00  0.00    +0.000 N 
ATOM      3  C   UNL     1       3.321   4.160  17.921  0.00  0.00    +0.000 A 
ATOM      4  C   UNL     1       1.966   3.945  17.678  0.00  0.00    +0.000 A 
ATOM      5  C   UNL     1       1.248   3.079  18.499  0.00  0.00    +0.000 A 
ATOM      6  C   UNL     1       1.923   2.419  19.515  0.00  0.00    +0.000 A 
ATOM      7  N   UNL     1       3.247   2.547  19.748  0.00  0.00    +0.000 NA
ATOM      8  C   UNL     1       3.913   3.402  18.948  0.00  0.00    +0.000 A 
ATOM      9  N   UNL     1       5.285   3.509  19.156  0.00  0.00    +0.000 N 
ATOM     10  C   UNL     1       6.070   4.421  18.497  0.00  0.00    +0.000 C 
ATOM     11  O   UNL     1       7.291   4.426  18.645  0.00  0.00    +0.000 OA
ATOM     12  H   UNL     1       3.504   5.697  16.629  0.00  0.00    +0.000 HD
ATOM     13  H   UNL     1       5.714   2.851  19.789  0.00  0.00    +0.000 HD
ENDROOT
BRANCH   1  15
ATOM     14  C   UNL     1       7.227   7.181  17.403  0.00  0.00    +0.000 C 
ATOM     15  C   UNL     1       6.179   6.299  16.721  0.00  0.00    +0.000 C 
ATOM     16  C   UNL     1       6.860   5.360  15.717  0.00  0.00    +0.000 C 
ENDBRANCH   1  15
TORSDOF 1
ENDMDL
MODEL 8
REMARK VINA RESULT:      -6.3      1.447      1.476
REMARK  Name = 
REMARK  3 active torsions:
REMARK  status: ('A' for Active; 'I' for Inactive)
REMARK    1  A    between atoms: C_1  and  C_2
REMARK    2  A    between atoms: C_2  and  C_3
REMARK    3  A    between atoms: C_2  and  C_4
REMARK                            x       y       z     vdW  Elec       q    Type
REMARK                         _______ _______ _______ _____ _____    ______ ____
ROOT
ATOM      1  C   UNL     1       2.790   3.682  18.764  0.00  0.00    +0.000 C 
ATOM      2  N   UNL     1       3.481   4.991  18.686  0.00  0.00    +0.000 N 
ATOM      3  C   UNL     1       4.172   5.151  17.463  0.00  0.00    +0.000 A 
ATOM      4  C   UNL     1       4.481   6.425  16.993  0.00  0.00    +0.000 A 
ATOM      5  C   UNL     1       5.231   6.566  15.827  0.00  0.00    +0.000 A 
ATOM      6  C   UNL     1       5.684   5.421  15.191  0.00  0.00    +0.000 A 
ATOM      7  N   UNL     1       5.463   4.168  15.643  0.00  0.00    +0.000 NA
ATOM      8  C   UNL     1       4.724   4.062  16.765  0.00  0.00    +0.000 A 
ATOM      9  N   UNL     1       4.526   2.776  17.259  0.00  0.00    +0.000 N 
ATOM     10  C   UNL     1       3.702   2.506  18.323  0.00  0.00    +0.000 C 
ATOM     11  O   UNL     1       3.621   1.369  18.785  0.00  0.00    +0.000 OA
ATOM     12  H   UNL     1       2.862   5.777  18.862  0.00  0.00    +0.000 HD
ATOM     13  H   UNL     1       5.052   2.027  16.837  0.00  0.00    +0.000 HD
ENDROOT
BRANCH   1  15
ATOM     14  C   UNL     1       2.206   4.696  21.056  0.00  0.00    +0.000 C 
ATOM     15  C   UNL     1       2.140   3.465  20.148  0.00  0.00    +0.000 C 
ATOM     16  C   UNL     1       0.686   2.994  20.014  0.00  0.00    +0.000 C 
ENDBRANCH   1  15
TORSDOF 1
ENDMDL
MODEL 9
REMARK VINA RESULT:      -6.2      1.815      2.062
REMARK  Name = 
REMARK  3 active torsions:
REMARK  status: ('A' for Active; 'I' for Inactive)
REMARK    1  A    between atoms: C_1  and  C_2
REMARK    2  A    between atoms: C_2  and  C_3
REMARK    3  A    between atoms: C_2  and  C_4
REMARK                            x       y       z     vdW  Elec       q    Type
REMARK                         _______ _______ _______ _____ _____    ______ ____
ROOT
ATOM      1  C   UNL     1       3.051   3.888  19.081  0.00  0.00    +0.000 C 
ATOM      2  N   UNL     1       4.298   4.292  19.774  0.00  0.00    +0.000 N 
ATOM      3  C   UNL     1       5.319   4.643  18.862  0.00  0.00    +0.000 A 
ATOM      4  C   UNL     1       6.367   5.468  19.264  0.00  0.00    +0.000 A 
ATOM      5  C   UNL     1       7.407   5.741  18.378  0.00  0.00    +0.000 A 
ATOM      6  C   UNL     1       7.385   5.142  17.128  0.00  0.00    +0.000 A 
ATOM      7  N   UNL     1       6.424   4.287  16.718  0.00  0.00    +0.000 NA
ATOM      8  C   UNL     1       5.425   4.052  17.589  0.00  0.00    +0.000 A 
ATOM      9  N   UNL     1       4.451   3.141  17.189  0.00  0.00    +0.000 N 
ATOM     10  C   UNL     1       3.318   2.891  17.921  0.00  0.00    +0.000 C 
ATOM     11  O   UNL     1       2.526   2.016  17.578  0.00  0.00    +0.000 OA
ATOM     12  H   UNL     1       4.150   5.028  20.459  0.00  0.00    +0.000 HD
ATOM     13  H   UNL     1       4.623   2.616  16.345  0.00  0.00    +0.000 HD
ENDROOT
BRANCH   1  15
ATOM     14  C   UNL     1       2.572   2.733  21.330  0.00  0.00    +0.000 C 
ATOM     15  C   UNL     1       1.983   3.391  20.080  0.00  0.00    +0.000 C 
ATOM     16  C   UNL     1       1.031   4.523  20.486  0.00  0.00    +0.000 C 
ENDBRANCH   1  15
TORSDOF 1
ENDMDL
