MODEL 1
REMARK VINA RESULT:      -9.2      0.000      0.000
REMARK  Name = 
REMARK  10 active torsions:
REMARK  status: ('A' for Active; 'I' for Inactive)
REMARK    1  A    between atoms: C_1  and  C_2
REMARK    2  A    between atoms: C_2  and  C_3
REMARK    3  A    between atoms: C_2  and  N_16
REMARK    4  A    between atoms: C_6  and  C_7
REMARK    5  A    between atoms: C_19  and  C_20
REMARK    6  A    between atoms: C_19  and  C_25
REMARK    7  A    between atoms: C_20  and  C_21
REMARK    8  A    between atoms: C_21  and  C_22
REMARK    9  A    between atoms: C_21  and  C_23
REMARK   10  A    between atoms: C_21  and  O_24
REMARK                            x       y       z     vdW  Elec       q    Type
REMARK                         _______ _______ _______ _____ _____    ______ ____
ROOT
ATOM      1  N   UNL     1       5.433   4.933  17.821  0.00  0.00    +0.000 N 
ATOM      2  C   UNL     1       4.445   5.414  16.872  0.00  0.00    +0.000 C 
ATOM      3  C   UNL     1       3.117   4.709  17.047  0.00  0.00    +0.000 C 
ATOM      4  C   UNL     1       2.666   4.870  18.508  0.00  0.00    +0.000 C 
ATOM      5  O   UNL     1       3.733   4.387  19.349  0.00  0.00    +0.000 OA
ATOM      6  C   UNL     1       5.059   4.510  19.083  0.00  0.00    +0.000 C 
ATOM      7  O   UNL     1       5.843   4.228  19.985  0.00  0.00    +0.000 OA
ENDROOT
BRANCH   4   8
ATOM      8  C   UNL     1       2.346   6.339  18.799  0.00  0.00    +0.000 A 
ATOM      9  C   UNL     1       2.051   6.765  20.108  0.00  0.00    +0.000 A 
ATOM     10  C   UNL     1       1.648   8.077  20.362  0.00  0.00    +0.000 A 
ATOM     11  C   UNL     1       1.537   8.988  19.315  0.00  0.00    +0.000 A 
ATOM     12  C   UNL     1       1.868   8.600  18.020  0.00  0.00    +0.000 A 
ATOM     13  C   UNL     1       2.280   7.293  17.767  0.00  0.00    +0.000 A 
ENDBRANCH   4   8
BRANCH   1  15
ATOM     14  C   UNL     1       7.224   4.840  16.034  0.00  0.00    +0.000 C 
ATOM     15  C   UNL     1       6.848   5.174  17.484  0.00  0.00    +0.000 C 
BRANCH  15  16
ATOM     16  C   UNL     1       7.367   6.548  17.897  0.00  0.00    +0.000 A 
ATOM     17  C   UNL     1       7.152   7.693  17.117  0.00  0.00    +0.000 A 
ATOM     18  C   UNL     1       7.751   8.912  17.448  0.00  0.00    +0.000 A 
ATOM     19  C   UNL     1       8.581   9.012  18.570  0.00  0.00    +0.000 A 
ATOM     20  C   UNL     1       8.790   7.887  19.366  0.00  0.00    +0.000 A 
ATOM     21  C   UNL     1       8.181   6.670  19.038  0.00  0.00    +0.000 A 
BRANCH  19  22
ATOM     22  C   UNL     1       9.227  10.296  18.885  0.00  0.00    +0.000 A 
ATOM     23  C   UNL     1       9.569  10.692  20.246  0.00  0.00    +0.000 A 
ATOM     24  C   UNL     1      10.243  11.825  20.467  0.00  0.00    +0.000 A 
ATOM     25  N   UNL     1      10.598  12.634  19.419  0.00  0.00    +0.000 N 
ATOM     26  C   UNL     1      10.290  12.366  18.108  0.00  0.00    +0.000 A 
ATOM     27  O   UNL     1      10.603  13.110  17.185  0.00  0.00    +0.000 OA
ATOM     28  C   UNL     1       9.555  11.097  17.857  0.00  0.00    +0.000 A 
ATOM     29  H   UNL     1      11.113  13.490  19.583  0.00  0.00    +0.000 HD
ENDBRANCH  19  22
ENDBRANCH  15  16
ENDBRANCH   1  15
BRANCH   4  30
ATOM     30  C   UNL     1       1.467   3.923  18.787  0.00  0.00    +0.000 C 
BRANCH  30  31
ATOM     31  C   UNL     1       1.723   2.455  19.232  0.00  0.00    +0.000 C 
ATOM     32  C   UNL     1       2.885   1.750  18.526  0.00  0.00    +0.000 C 
ATOM     33  C   UNL     1       1.869   2.294  20.746  0.00  0.00    +0.000 C 
BRANCH  31  34
ATOM     34  O   UNL     1       0.522   1.730  18.891  0.00  0.00    +0.000 OA
ATOM     35  H   UNL     1      -0.179   2.010  19.505  0.00  0.00    +0.000 HD
ENDBRANCH  31  34
ENDBRANCH  30  31
ENDBRANCH   4  30
TORSDOF 7
ENDMDL
MODEL 2
REMARK VINA RESULT:      -9.2      0.560      1.008
REMARK  Name = 
REMARK  10 active torsions:
REMARK  status: ('A' for Active; 'I' for Inactive)
REMARK    1  A    between atoms: C_1  and  C_2
REMARK    2  A    between atoms: C_2  and  C_3
REMARK    3  A    between atoms: C_2  and  N_16
REMARK    4  A    between atoms: C_6  and  C_7
REMARK    5  A    between atoms: C_19  and  C_20
REMARK    6  A    between atoms: C_19  and  C_25
REMARK    7  A    between atoms: C_20  and  C_21
REMARK    8  A    between atoms: C_21  and  C_22
REMARK    9  A    between atoms: C_21  and  C_23
REMARK   10  A    between atoms: C_21  and  O_24
REMARK                            x       y       z     vdW  Elec       q    Type
REMARK                         _______ _______ _______ _____ _____    ______ ____
ROOT
ATOM      1  N   UNL     1       5.154   4.828  17.992  0.00  0.00    +0.000 N 
ATOM      2  C   UNL     1       4.091   5.194  17.072  0.00  0.00    +0.000 C 
ATOM      3  C   UNL     1       2.756   4.637  17.515  0.00  0.00    +0.000 C 
ATOM      4  C   UNL     1       2.484   5.103  18.955  0.00  0.00    +0.000 C 
ATOM      5  O   UNL     1       3.612   4.709  19.762  0.00  0.00    +0.000 OA
ATOM      6  C   UNL     1       4.903   4.680  19.344  0.00  0.00    +0.000 C 
ATOM      7  O   UNL     1       5.769   4.515  20.199  0.00  0.00    +0.000 OA
ENDROOT
BRANCH   4   8
ATOM      8  C   UNL     1       2.279   6.620  18.985  0.00  0.00    +0.000 A 
ATOM      9  C   UNL     1       1.869   7.268  20.166  0.00  0.00    +0.000 A 
ATOM     10  C   UNL     1       1.571   8.631  20.170  0.00  0.00    +0.000 A 
ATOM     11  C   UNL     1       1.681   9.373  18.997  0.00  0.00    +0.000 A 
ATOM     12  C   UNL     1       2.128   8.763  17.829  0.00  0.00    +0.000 A 
ATOM     13  C   UNL     1       2.436   7.403  17.826  0.00  0.00    +0.000 A 
ENDBRANCH   4   8
BRANCH   1  15
ATOM     14  C   UNL     1       6.679   4.487  16.000  0.00  0.00    +0.000 C 
ATOM     15  C   UNL     1       6.532   4.895  17.473  0.00  0.00    +0.000 C 
BRANCH  15  16
ATOM     16  C   UNL     1       7.252   6.208  17.767  0.00  0.00    +0.000 A 
ATOM     17  C   UNL     1       8.112   6.359  18.864  0.00  0.00    +0.000 A 
ATOM     18  C   UNL     1       8.652   7.607  19.188  0.00  0.00    +0.000 A 
ATOM     19  C   UNL     1       8.343   8.734  18.419  0.00  0.00    +0.000 A 
ATOM     20  C   UNL     1       7.504   8.596  17.313  0.00  0.00    +0.000 A 
ATOM     21  C   UNL     1       6.973   7.344  16.985  0.00  0.00    +0.000 A 
BRANCH  19  22
ATOM     22  C   UNL     1       8.897  10.045  18.793  0.00  0.00    +0.000 A 
ATOM     23  C   UNL     1       9.426  10.324  20.123  0.00  0.00    +0.000 A 
ATOM     24  C   UNL     1      10.008  11.500  20.381  0.00  0.00    +0.000 A 
ATOM     25  N   UNL     1      10.092  12.458  19.405  0.00  0.00    +0.000 N 
ATOM     26  C   UNL     1       9.592  12.304  18.136  0.00  0.00    +0.000 A 
ATOM     27  O   UNL     1       9.663  13.179  17.281  0.00  0.00    +0.000 OA
ATOM     28  C   UNL     1       8.960  10.990  17.840  0.00  0.00    +0.000 A 
ATOM     29  H   UNL     1      10.537  13.348  19.596  0.00  0.00    +0.000 HD
ENDBRANCH  19  22
ENDBRANCH  15  16
ENDBRANCH   1  15
BRANCH   4  30
ATOM     30  C   UNL     1       1.275   4.319  19.534  0.00  0.00    +0.000 C 
BRANCH  30  31
ATOM     31  C   UNL     1       1.429   2.815  19.903  0.00  0.00    +0.000 C 
ATOM     32  C   UNL     1       2.399   2.021  19.023  0.00  0.00    +0.000 C 
ATOM     33  C   UNL     1       1.764   2.581  21.376  0.00  0.00    +0.000 C 
BRANCH  31  34
ATOM     34  O   UNL     1       0.121   2.233  19.717  0.00  0.00    +0.000 OA
ATOM     35  H   UNL     1      -0.302   2.686  18.966  0.00  0.00    +0.000 HD
ENDBRANCH  31  34
ENDBRANCH  30  31
ENDBRANCH   4  30
TORSDOF 7
ENDMDL
MODEL 3
REMARK VINA RESULT:      -9.1      0.812      1.167
REMARK  Name = 
REMARK  10 active torsions:
REMARK  status: ('A' for Active; 'I' for Inactive)
REMARK    1  A    between atoms: C_1  and  C_2
REMARK    2  A    between atoms: C_2  and  C_3
REMARK    3  A    between atoms: C_2  and  N_16
REMARK    4  A    between atoms: C_6  and  C_7
REMARK    5  A    between atoms: C_19  and  C_20
REMARK    6  A    between atoms: C_19  and  C_25
REMARK    7  A    between atoms: C_20  and  C_21
REMARK    8  A    between atoms: C_21  and  C_22
REMARK    9  A    between atoms: C_21  and  C_23
REMARK   10  A    between atoms: C_21  and  O_24
REMARK                            x       y       z     vdW  Elec       q    Type
REMARK                         _______ _______ _______ _____ _____    ______ ____
ROOT
ATOM      1  N   UNL     1       5.442   4.895  17.802  0.00  0.00    +0.000 N 
ATOM      2  C   UNL     1       4.483   5.408  16.841  0.00  0.00    +0.000 C 
ATOM      3  C   UNL     1       3.141   4.720  16.973  0.00  0.00    +0.000 C 
ATOM      4  C   UNL     1       2.660   4.859  18.427  0.00  0.00    +0.000 C 
ATOM      5  O   UNL     1       3.701   4.345  19.282  0.00  0.00    +0.000 OA
ATOM      6  C   UNL     1       5.034   4.453  19.048  0.00  0.00    +0.000 C 
ATOM      7  O   UNL     1       5.794   4.143  19.961  0.00  0.00    +0.000 OA
ENDROOT
BRANCH   4   8
ATOM      8  C   UNL     1       2.355   6.327  18.739  0.00  0.00    +0.000 A 
ATOM      9  C   UNL     1       2.073   6.739  20.056  0.00  0.00    +0.000 A 
ATOM     10  C   UNL     1       1.683   8.051  20.329  0.00  0.00    +0.000 A 
ATOM     11  C   UNL     1       1.572   8.976  19.294  0.00  0.00    +0.000 A 
ATOM     12  C   UNL     1       1.890   8.603  17.993  0.00  0.00    +0.000 A 
ATOM     13  C   UNL     1       2.289   7.295  17.720  0.00  0.00    +0.000 A 
ENDBRANCH   4   8
BRANCH   1  15
ATOM     14  C   UNL     1       7.283   4.756  16.069  0.00  0.00    +0.000 C 
ATOM     15  C   UNL     1       6.868   5.121  17.502  0.00  0.00    +0.000 C 
BRANCH  15  16
ATOM     16  C   UNL     1       7.383   6.501  17.902  0.00  0.00    +0.000 A 
ATOM     17  C   UNL     1       7.164   7.638  17.112  0.00  0.00    +0.000 A 
ATOM     18  C   UNL     1       7.760   8.861  17.432  0.00  0.00    +0.000 A 
ATOM     19  C   UNL     1       8.591   8.974  18.552  0.00  0.00    +0.000 A 
ATOM     20  C   UNL     1       8.803   7.856  19.358  0.00  0.00    +0.000 A 
ATOM     21  C   UNL     1       8.197   6.635  19.042  0.00  0.00    +0.000 A 
BRANCH  19  22
ATOM     22  C   UNL     1       9.233  10.263  18.856  0.00  0.00    +0.000 A 
ATOM     23  C   UNL     1       9.726  11.159  17.817  0.00  0.00    +0.000 A 
ATOM     24  C   UNL     1      10.213  12.362  18.142  0.00  0.00    +0.000 A 
ATOM     25  N   UNL     1      10.270  12.751  19.455  0.00  0.00    +0.000 N 
ATOM     26  C   UNL     1       9.864  11.965  20.505  0.00  0.00    +0.000 A 
ATOM     27  O   UNL     1       9.938  12.326  21.675  0.00  0.00    +0.000 OA
ATOM     28  C   UNL     1       9.307  10.634  20.145  0.00  0.00    +0.000 A 
ATOM     29  H   UNL     1      10.632  13.663  19.704  0.00  0.00    +0.000 HD
ENDBRANCH  19  22
ENDBRANCH  15  16
ENDBRANCH   1  15
BRANCH   4  30
ATOM     30  C   UNL     1       1.441   3.926  18.661  0.00  0.00    +0.000 C 
BRANCH  30  31
ATOM     31  C   UNL     1       1.660   2.485  19.208  0.00  0.00    +0.000 C 
ATOM     32  C   UNL     1       2.837   1.723  18.592  0.00  0.00    +0.000 C 
ATOM     33  C   UNL     1       1.747   2.420  20.733  0.00  0.00    +0.000 C 
BRANCH  31  34
ATOM     34  O   UNL     1       0.463   1.755  18.867  0.00  0.00    +0.000 OA
ATOM     35  H   UNL     1       0.310   1.091  19.562  0.00  0.00    +0.000 HD
ENDBRANCH  31  34
ENDBRANCH  30  31
ENDBRANCH   4  30
TORSDOF 7
ENDMDL
MODEL 4
REMARK VINA RESULT:      -9.0      0.958      1.504
REMARK  Name = 
REMARK  10 active torsions:
REMARK  status: ('A' for Active; 'I' for Inactive)
REMARK    1  A    between atoms: C_1  and  C_2
REMARK    2  A    between atoms: C_2  and  C_3
REMARK    3  A    between atoms: C_2  and  N_16
REMARK    4  A    between atoms: C_6  and  C_7
REMARK    5  A    between atoms: C_19  and  C_20
REMARK    6  A    between atoms: C_19  and  C_25
REMARK    7  A    between atoms: C_20  and  C_21
REMARK    8  A    between atoms: C_21  and  C_22
REMARK    9  A    between atoms: C_21  and  C_23
REMARK   10  A    between atoms: C_21  and  O_24
REMARK                            x       y       z     vdW  Elec       q    Type
REMARK                         _______ _______ _______ _____ _____    ______ ____
ROOT
ATOM      1  N   UNL     1       5.259   4.771  17.916  0.00  0.00    +0.000 N 
ATOM      2  C   UNL     1       4.285   5.241  16.948  0.00  0.00    +0.000 C 
ATOM      3  C   UNL     1       2.907   4.684  17.230  0.00  0.00    +0.000 C 
ATOM      4  C   UNL     1       2.524   5.034  18.677  0.00  0.00    +0.000 C 
ATOM      5  O   UNL     1       3.572   4.544  19.537  0.00  0.00    +0.000 OA
ATOM      6  C   UNL     1       4.893   4.516  19.226  0.00  0.00    +0.000 C 
ATOM      7  O   UNL     1       5.681   4.257  20.132  0.00  0.00    +0.000 OA
ENDROOT
BRANCH   4   8
ATOM      8  C   UNL     1       2.346   6.548  18.820  0.00  0.00    +0.000 A 
ATOM      9  C   UNL     1       1.959   7.114  20.050  0.00  0.00    +0.000 A 
ATOM     10  C   UNL     1       1.686   8.479  20.157  0.00  0.00    +0.000 A 
ATOM     11  C   UNL     1       1.799   9.303  19.040  0.00  0.00    +0.000 A 
ATOM     12  C   UNL     1       2.224   8.773  17.827  0.00  0.00    +0.000 A 
ATOM     13  C   UNL     1       2.507   7.412  17.721  0.00  0.00    +0.000 A 
ENDBRANCH   4   8
BRANCH   1  15
ATOM     14  C   UNL     1       6.975   4.307  16.113  0.00  0.00    +0.000 C 
ATOM     15  C   UNL     1       6.678   4.844  17.520  0.00  0.00    +0.000 C 
BRANCH  15  16
ATOM     16  C   UNL     1       7.325   6.207  17.750  0.00  0.00    +0.000 A 
ATOM     17  C   UNL     1       8.189   6.452  18.826  0.00  0.00    +0.000 A 
ATOM     18  C   UNL     1       8.661   7.741  19.090  0.00  0.00    +0.000 A 
ATOM     19  C   UNL     1       8.277   8.817  18.281  0.00  0.00    +0.000 A 
ATOM     20  C   UNL     1       7.433   8.585  17.195  0.00  0.00    +0.000 A 
ATOM     21  C   UNL     1       6.971   7.292  16.927  0.00  0.00    +0.000 A 
BRANCH  19  22
ATOM     22  C   UNL     1       8.760  10.171  18.593  0.00  0.00    +0.000 A 
ATOM     23  C   UNL     1       8.534  11.309  17.711  0.00  0.00    +0.000 A 
ATOM     24  C   UNL     1       8.908  12.536  18.088  0.00  0.00    +0.000 A 
ATOM     25  N   UNL     1       9.526  12.729  19.296  0.00  0.00    +0.000 N 
ATOM     26  C   UNL     1       9.815  11.718  20.178  0.00  0.00    +0.000 A 
ATOM     27  O   UNL     1      10.383  11.909  21.248  0.00  0.00    +0.000 OA
ATOM     28  C   UNL     1       9.384  10.354  19.769  0.00  0.00    +0.000 A 
ATOM     29  H   UNL     1       9.805  13.658  19.587  0.00  0.00    +0.000 HD
ENDBRANCH  19  22
ENDBRANCH  15  16
ENDBRANCH   1  15
BRANCH   4  30
ATOM     30  C   UNL     1       1.255   4.236  19.085  0.00  0.00    +0.000 C 
BRANCH  30  31
ATOM     31  C   UNL     1       1.398   2.883  19.840  0.00  0.00    +0.000 C 
ATOM     32  C   UNL     1       2.261   1.830  19.139  0.00  0.00    +0.000 C 
ATOM     33  C   UNL     1       1.857   3.040  21.290  0.00  0.00    +0.000 C 
BRANCH  31  34
ATOM     34  O   UNL     1       0.062   2.342  19.924  0.00  0.00    +0.000 OA
ATOM     35  H   UNL     1       0.082   1.596  20.549  0.00  0.00    +0.000 HD
ENDBRANCH  31  34
ENDBRANCH  30  31
ENDBRANCH   4  30
TORSDOF 7
ENDMDL
MODEL 5
REMARK VINA RESULT:      -8.8      1.232      1.804
REMARK  Name = 
REMARK  10 active torsions:
REMARK  status: ('A' for Active; 'I' for Inactive)
REMARK    1  A    between atoms: C_1  and  C_2
REMARK    2  A    between atoms: C_2  and  C_3
REMARK    3  A    between atoms: C_2  and  N_16
REMARK    4  A    between atoms: C_6  and  C_7
REMARK    5  A    between atoms: C_19  and  C_20
REMARK    6  A    between atoms: C_19  and  C_25
REMARK    7  A    between atoms: C_20  and  C_21
REMARK    8  A    between atoms: C_21  and  C_22
REMARK    9  A    between atoms: C_21  and  C_23
REMARK   10  A    between atoms: C_21  and  O_24
REMARK                            x       y       z     vdW  Elec       q    Type
REMARK                         _______ _______ _______ _____ _____    ______ ____
ROOT
ATOM      1  N   UNL     1       5.139   5.270  17.952  0.00  0.00    +0.000 N 
ATOM      2  C   UNL     1       3.951   5.503  17.150  0.00  0.00    +0.000 C 
ATOM      3  C   UNL     1       2.721   4.897  17.789  0.00  0.00    +0.000 C 
ATOM      4  C   UNL     1       2.591   5.447  19.219  0.00  0.00    +0.000 C 
ATOM      5  O   UNL     1       3.832   5.182  19.903  0.00  0.00    +0.000 OA
ATOM      6  C   UNL     1       5.063   5.204  19.331  0.00  0.00    +0.000 C 
ATOM      7  O   UNL     1       6.035   5.155  20.081  0.00  0.00    +0.000 OA
ENDROOT
BRANCH   4   8
ATOM      8  C   UNL     1       2.285   6.946  19.177  0.00  0.00    +0.000 A 
ATOM      9  C   UNL     1       1.733   7.599  20.296  0.00  0.00    +0.000 A 
ATOM     10  C   UNL     1       1.346   8.939  20.227  0.00  0.00    +0.000 A 
ATOM     11  C   UNL     1       1.508   9.651  19.041  0.00  0.00    +0.000 A 
ATOM     12  C   UNL     1       2.093   9.039  17.938  0.00  0.00    +0.000 A 
ATOM     13  C   UNL     1       2.489   7.704  18.009  0.00  0.00    +0.000 A 
ENDBRANCH   4   8
BRANCH   1  15
ATOM     14  C   UNL     1       6.376   5.162  15.745  0.00  0.00    +0.000 C 
ATOM     15  C   UNL     1       6.438   5.385  17.263  0.00  0.00    +0.000 C 
BRANCH  15  16
ATOM     16  C   UNL     1       7.227   6.643  17.614  0.00  0.00    +0.000 A 
ATOM     17  C   UNL     1       8.154   6.674  18.664  0.00  0.00    +0.000 A 
ATOM     18  C   UNL     1       8.763   7.872  19.051  0.00  0.00    +0.000 A 
ATOM     19  C   UNL     1       8.457   9.068  18.394  0.00  0.00    +0.000 A 
ATOM     20  C   UNL     1       7.550   9.050  17.334  0.00  0.00    +0.000 A 
ATOM     21  C   UNL     1       6.950   7.848  16.942  0.00  0.00    +0.000 A 
BRANCH  19  22
ATOM     22  C   UNL     1       9.085  10.323  18.835  0.00  0.00    +0.000 A 
ATOM     23  C   UNL     1       9.545  11.343  17.900  0.00  0.00    +0.000 A 
ATOM     24  C   UNL     1      10.020  12.507  18.356  0.00  0.00    +0.000 A 
ATOM     25  N   UNL     1      10.097  12.741  19.704  0.00  0.00    +0.000 N 
ATOM     26  C   UNL     1       9.723  11.831  20.661  0.00  0.00    +0.000 A 
ATOM     27  O   UNL     1       9.815  12.053  21.863  0.00  0.00    +0.000 OA
ATOM     28  C   UNL     1       9.179  10.542  20.157  0.00  0.00    +0.000 A 
ATOM     29  H   UNL     1      10.450  13.624  20.052  0.00  0.00    +0.000 HD
ENDBRANCH  19  22
ENDBRANCH  15  16
ENDBRANCH   1  15
BRANCH   4  30
ATOM     30  C   UNL     1       1.518   4.632  19.992  0.00  0.00    +0.000 C 
BRANCH  30  31
ATOM     31  C   UNL     1       1.665   3.090  20.133  0.00  0.00    +0.000 C 
ATOM     32  C   UNL     1       1.397   2.532  21.534  0.00  0.00    +0.000 C 
ATOM     33  C   UNL     1       0.853   2.304  19.103  0.00  0.00    +0.000 C 
BRANCH  31  34
ATOM     34  O   UNL     1       3.045   2.801  19.824  0.00  0.00    +0.000 OA
ATOM     35  H   UNL     1       3.277   3.289  19.014  0.00  0.00    +0.000 HD
ENDBRANCH  31  34
ENDBRANCH  30  31
ENDBRANCH   4  30
TORSDOF 7
ENDMDL
MODEL 6
REMARK VINA RESULT:      -8.8      1.120      1.493
REMARK  Name = 
REMARK  10 active torsions:
REMARK  status: ('A' for Active; 'I' for Inactive)
REMARK    1  A    between atoms: C_1  and  C_2
REMARK    2  A    between atoms: C_2  and  C_3
REMARK    3  A    between atoms: C_2  and  N_16
REMARK    4  A    between atoms: C_6  and  C_7
REMARK    5  A    between atoms: C_19  and  C_20
REMARK    6  A    between atoms: C_19  and  C_25
REMARK    7  A    between atoms: C_20  and  C_21
REMARK    8  A    between atoms: C_21  and  C_22
REMARK    9  A    between atoms: C_21  and  C_23
REMARK   10  A    between atoms: C_21  and  O_24
REMARK                            x       y       z     vdW  Elec       q    Type
REMARK                         _______ _______ _______ _____ _____    ______ ____
ROOT
ATOM      1  N   UNL     1       5.522   5.270  17.809  0.00  0.00    +0.000 N 
ATOM      2  C   UNL     1       4.371   5.476  16.948  0.00  0.00    +0.000 C 
ATOM      3  C   UNL     1       3.143   4.771  17.483  0.00  0.00    +0.000 C 
ATOM      4  C   UNL     1       2.899   5.241  18.926  0.00  0.00    +0.000 C 
ATOM      5  O   UNL     1       4.111   5.012  19.671  0.00  0.00    +0.000 OA
ATOM      6  C   UNL     1       5.370   5.130  19.177  0.00  0.00    +0.000 C 
ATOM      7  O   UNL     1       6.297   5.098  19.982  0.00  0.00    +0.000 OA
ENDROOT
BRANCH   4   8
ATOM      8  C   UNL     1       2.508   6.722  18.936  0.00  0.00    +0.000 A 
ATOM      9  C   UNL     1       1.993   7.323  20.100  0.00  0.00    +0.000 A 
ATOM     10  C   UNL     1       1.530   8.639  20.083  0.00  0.00    +0.000 A 
ATOM     11  C   UNL     1       1.576   9.380  18.906  0.00  0.00    +0.000 A 
ATOM     12  C   UNL     1       2.123   8.822  17.755  0.00  0.00    +0.000 A 
ATOM     13  C   UNL     1       2.595   7.510  17.773  0.00  0.00    +0.000 A 
ENDBRANCH   4   8
BRANCH   1  15
ATOM     14  C   UNL     1       6.902   5.283  15.687  0.00  0.00    +0.000 C 
ATOM     15  C   UNL     1       6.850   5.491  17.207  0.00  0.00    +0.000 C 
BRANCH  15  16
ATOM     16  C   UNL     1       7.516   6.800  17.618  0.00  0.00    +0.000 A 
ATOM     17  C   UNL     1       8.364   6.890  18.731  0.00  0.00    +0.000 A 
ATOM     18  C   UNL     1       8.854   8.125  19.164  0.00  0.00    +0.000 A 
ATOM     19  C   UNL     1       8.505   9.302  18.491  0.00  0.00    +0.000 A 
ATOM     20  C   UNL     1       7.678   9.226  17.371  0.00  0.00    +0.000 A 
ATOM     21  C   UNL     1       7.198   7.987  16.933  0.00  0.00    +0.000 A 
BRANCH  19  22
ATOM     22  C   UNL     1       9.007  10.595  18.981  0.00  0.00    +0.000 A 
ATOM     23  C   UNL     1       9.514  10.781  20.335  0.00  0.00    +0.000 A 
ATOM     24  C   UNL     1      10.049  11.952  20.698  0.00  0.00    +0.000 A 
ATOM     25  N   UNL     1      10.104  12.992  19.807  0.00  0.00    +0.000 N 
ATOM     26  C   UNL     1       9.621  12.926  18.523  0.00  0.00    +0.000 A 
ATOM     27  O   UNL     1       9.665  13.873  17.746  0.00  0.00    +0.000 OA
ATOM     28  C   UNL     1       9.041  11.619  18.111  0.00  0.00    +0.000 A 
ATOM     29  H   UNL     1      10.514  13.878  20.076  0.00  0.00    +0.000 HD
ENDBRANCH  19  22
ENDBRANCH  15  16
ENDBRANCH   1  15
BRANCH   4  30
ATOM     30  C   UNL     1       1.832   4.331  19.594  0.00  0.00    +0.000 C 
BRANCH  30  31
ATOM     31  C   UNL     1       2.209   3.475  20.837  0.00  0.00    +0.000 C 
ATOM     32  C   UNL     1       1.050   2.704  21.478  0.00  0.00    +0.000 C 
ATOM     33  C   UNL     1       3.381   2.525  20.589  0.00  0.00    +0.000 C 
BRANCH  31  34
ATOM     34  O   UNL     1       2.686   4.413  21.824  0.00  0.00    +0.000 OA
ATOM     35  H   UNL     1       3.335   3.952  22.384  0.00  0.00    +0.000 HD
ENDBRANCH  31  34
ENDBRANCH  30  31
ENDBRANCH   4  30
TORSDOF 7
ENDMDL
MODEL 7
REMARK VINA RESULT:      -8.7      0.865      1.552
REMARK  Name = 
REMARK  10 active torsions:
REMARK  status: ('A' for Active; 'I' for Inactive)
REMARK    1  A    between atoms: C_1  and  C_2
REMARK    2  A    between atoms: C_2  and  C_3
REMARK    3  A    between atoms: C_2  and  N_16
REMARK    4  A    between atoms: C_6  and  C_7
REMARK    5  A    between atoms: C_19  and  C_20
REMARK    6  A    between atoms: C_19  and  C_25
REMARK    7  A    between atoms: C_20  and  C_21
REMARK    8  A    between atoms: C_21  and  C_22
REMARK    9  A    between atoms: C_21  and  C_23
REMARK   10  A    between atoms: C_21  and  O_24
REMARK                            x       y       z     vdW  Elec       q    Type
REMARK                         _______ _______ _______ _____ _____    ______ ____
ROOT
ATOM      1  N   UNL     1       5.156   5.166  17.959  0.00  0.00    +0.000 N 
ATOM      2  C   UNL     1       3.978   5.336  17.128  0.00  0.00    +0.000 C 
ATOM      3  C   UNL     1       2.751   4.726  17.771  0.00  0.00    +0.000 C 
ATOM      4  C   UNL     1       2.582   5.330  19.174  0.00  0.00    +0.000 C 
ATOM      5  O   UNL     1       3.816   5.125  19.890  0.00  0.00    +0.000 OA
ATOM      6  C   UNL     1       5.056   5.153  19.339  0.00  0.00    +0.000 C 
ATOM      7  O   UNL     1       6.015   5.159  20.107  0.00  0.00    +0.000 OA
ENDROOT
BRANCH   4   8
ATOM      8  C   UNL     1       2.239   6.819  19.066  0.00  0.00    +0.000 A 
ATOM      9  C   UNL     1       2.415   7.511  17.853  0.00  0.00    +0.000 A 
ATOM     10  C   UNL     1       2.214   8.890  17.779  0.00  0.00    +0.000 A 
ATOM     11  C   UNL     1       1.829   9.602  18.912  0.00  0.00    +0.000 A 
ATOM     12  C   UNL     1       1.605   8.931  20.110  0.00  0.00    +0.000 A 
ATOM     13  C   UNL     1       1.796   7.552  20.183  0.00  0.00    +0.000 A 
ENDBRANCH   4   8
BRANCH   1  15
ATOM     14  C   UNL     1       6.424   5.057  15.771  0.00  0.00    +0.000 C 
ATOM     15  C   UNL     1       6.464   5.286  17.289  0.00  0.00    +0.000 C 
BRANCH  15  16
ATOM     16  C   UNL     1       7.241   6.549  17.647  0.00  0.00    +0.000 A 
ATOM     17  C   UNL     1       8.172   6.581  18.694  0.00  0.00    +0.000 A 
ATOM     18  C   UNL     1       8.770   7.782  19.088  0.00  0.00    +0.000 A 
ATOM     19  C   UNL     1       8.449   8.980  18.441  0.00  0.00    +0.000 A 
ATOM     20  C   UNL     1       7.538   8.961  17.385  0.00  0.00    +0.000 A 
ATOM     21  C   UNL     1       6.949   7.756  16.986  0.00  0.00    +0.000 A 
BRANCH  19  22
ATOM     22  C   UNL     1       9.066  10.238  18.889  0.00  0.00    +0.000 A 
ATOM     23  C   UNL     1       9.269  10.556  20.297  0.00  0.00    +0.000 A 
ATOM     24  C   UNL     1       9.923  11.668  20.648  0.00  0.00    +0.000 A 
ATOM     25  N   UNL     1      10.388  12.528  19.687  0.00  0.00    +0.000 N 
ATOM     26  C   UNL     1      10.215  12.334  18.339  0.00  0.00    +0.000 A 
ATOM     27  O   UNL     1      10.625  13.123  17.494  0.00  0.00    +0.000 OA
ATOM     28  C   UNL     1       9.503  11.089  17.946  0.00  0.00    +0.000 A 
ATOM     29  H   UNL     1      10.890  13.368  19.948  0.00  0.00    +0.000 HD
ENDBRANCH  19  22
ENDBRANCH  15  16
ENDBRANCH   1  15
BRANCH   4  30
ATOM     30  C   UNL     1       1.515   4.521  19.962  0.00  0.00    +0.000 C 
BRANCH  30  31
ATOM     31  C   UNL     1       1.669   2.981  20.122  0.00  0.00    +0.000 C 
ATOM     32  C   UNL     1       1.570   2.459  21.559  0.00  0.00    +0.000 C 
ATOM     33  C   UNL     1       0.733   2.178  19.219  0.00  0.00    +0.000 C 
BRANCH  31  34
ATOM     34  O   UNL     1       3.000   2.673  19.655  0.00  0.00    +0.000 OA
ATOM     35  H   UNL     1       3.566   3.443  19.840  0.00  0.00    +0.000 HD
ENDBRANCH  31  34
ENDBRANCH  30  31
ENDBRANCH   4  30
TORSDOF 7
ENDMDL
MODEL 8
REMARK VINA RESULT:      -8.3      0.753      1.222
REMARK  Name = 
REMARK  10 active torsions:
REMARK  status: ('A' for Active; 'I' for Inactive)
REMARK    1  A    between atoms: C_1  and  C_2
REMARK    2  A    between atoms: C_2  and  C_3
REMARK    3  A    between atoms: C_2  and  N_16
REMARK    4  A    between atoms: C_6  and  C_7
REMARK    5  A    between atoms: C_19  and  C_20
REMARK    6  A    between atoms: C_19  and  C_25
REMARK    7  A    between atoms: C_20  and  C_21
REMARK    8  A    between atoms: C_21  and  C_22
REMARK    9  A    between atoms: C_21  and  C_23
REMARK   10  A    between atoms: C_21  and  O_24
REMARK                            x       y       z     vdW  Elec       q    Type
REMARK                         _______ _______ _______ _____ _____    ______ ____
ROOT
ATOM      1  N   UNL     1       5.494   5.194  17.760  0.00  0.00    +0.000 N 
ATOM      2  C   UNL     1       4.458   5.557  16.808  0.00  0.00    +0.000 C 
ATOM      3  C   UNL     1       3.174   4.800  17.068  0.00  0.00    +0.000 C 
ATOM      4  C   UNL     1       2.752   5.038  18.527  0.00  0.00    +0.000 C 
ATOM      5  O   UNL     1       3.863   4.670  19.369  0.00  0.00    +0.000 OA
ATOM      6  C   UNL     1       5.173   4.842  19.058  0.00  0.00    +0.000 C 
ATOM      7  O   UNL     1       5.993   4.664  19.955  0.00  0.00    +0.000 OA
ENDROOT
BRANCH   4   8
ATOM      8  C   UNL     1       2.362   6.506  18.726  0.00  0.00    +0.000 A 
ATOM      9  C   UNL     1       2.361   7.404  17.642  0.00  0.00    +0.000 A 
ATOM     10  C   UNL     1       2.117   8.764  17.837  0.00  0.00    +0.000 A 
ATOM     11  C   UNL     1       1.866   9.252  19.117  0.00  0.00    +0.000 A 
ATOM     12  C   UNL     1       1.817   8.375  20.196  0.00  0.00    +0.000 A 
ATOM     13  C   UNL     1       2.050   7.015  20.001  0.00  0.00    +0.000 A 
ENDBRANCH   4   8
BRANCH   1  15
ATOM     14  C   UNL     1       7.202   5.205  15.892  0.00  0.00    +0.000 C 
ATOM     15  C   UNL     1       6.886   5.483  17.368  0.00  0.00    +0.000 C 
BRANCH  15  16
ATOM     16  C   UNL     1       7.389   6.857  17.802  0.00  0.00    +0.000 A 
ATOM     17  C   UNL     1       7.073   8.025  17.094  0.00  0.00    +0.000 A 
ATOM     18  C   UNL     1       7.655   9.250  17.433  0.00  0.00    +0.000 A 
ATOM     19  C   UNL     1       8.568   9.333  18.491  0.00  0.00    +0.000 A 
ATOM     20  C   UNL     1       8.876   8.183  19.216  0.00  0.00    +0.000 A 
ATOM     21  C   UNL     1       8.285   6.960  18.881  0.00  0.00    +0.000 A 
BRANCH  19  22
ATOM     22  C   UNL     1       9.192  10.626  18.814  0.00  0.00    +0.000 A 
ATOM     23  C   UNL     1      10.192  10.776  19.864  0.00  0.00    +0.000 A 
ATOM     24  C   UNL     1      10.800  11.952  20.051  0.00  0.00    +0.000 A 
ATOM     25  N   UNL     1      10.471  13.030  19.271  0.00  0.00    +0.000 N 
ATOM     26  C   UNL     1       9.519  12.998  18.283  0.00  0.00    +0.000 A 
ATOM     27  O   UNL     1       9.228  13.979  17.606  0.00  0.00    +0.000 OA
ATOM     28  C   UNL     1       8.854  11.686  18.062  0.00  0.00    +0.000 A 
ATOM     29  H   UNL     1      10.934  13.921  19.406  0.00  0.00    +0.000 HD
ENDBRANCH  19  22
ENDBRANCH  15  16
ENDBRANCH   1  15
BRANCH   4  30
ATOM     30  C   UNL     1       1.611   4.054  18.904  0.00  0.00    +0.000 C 
BRANCH  30  31
ATOM     31  C   UNL     1       1.949   2.700  19.592  0.00  0.00    +0.000 C 
ATOM     32  C   UNL     1       2.387   2.801  21.056  0.00  0.00    +0.000 C 
ATOM     33  C   UNL     1       0.839   1.656  19.460  0.00  0.00    +0.000 C 
BRANCH  31  34
ATOM     34  O   UNL     1       3.066   2.158  18.856  0.00  0.00    +0.000 OA
ATOM     35  H   UNL     1       3.179   2.692  18.050  0.00  0.00    +0.000 HD
ENDBRANCH  31  34
ENDBRANCH  30  31
ENDBRANCH   4  30
TORSDOF 7
ENDMDL
MODEL 9
REMARK VINA RESULT:      -8.2      1.195      1.889
REMARK  Name = 
REMARK  10 active torsions:
REMARK  status: ('A' for Active; 'I' for Inactive)
REMARK    1  A    between atoms: C_1  and  C_2
REMARK    2  A    between atoms: C_2  and  C_3
REMARK    3  A    between atoms: C_2  and  N_16
REMARK    4  A    between atoms: C_6  and  C_7
REMARK    5  A    between atoms: C_19  and  C_20
REMARK    6  A    between atoms: C_19  and  C_25
REMARK    7  A    between atoms: C_20  and  C_21
REMARK    8  A    between atoms: C_21  and  C_22
REMARK    9  A    between atoms: C_21  and  C_23
REMARK   10  A    between atoms: C_21  and  O_24
REMARK                            x       y       z     vdW  Elec       q    Type
REMARK                         _______ _______ _______ _____ _____    ______ ____
ROOT
ATOM      1  N   UNL     1       5.113   5.189  17.995  0.00  0.00    +0.000 N 
ATOM      2  C   UNL     1       3.931   5.354  17.169  0.00  0.00    +0.000 C 
ATOM      3  C   UNL     1       2.705   4.756  17.826  0.00  0.00    +0.000 C 
ATOM      4  C   UNL     1       2.547   5.378  19.223  0.00  0.00    +0.000 C 
ATOM      5  O   UNL     1       3.784   5.177  19.934  0.00  0.00    +0.000 OA
ATOM      6  C   UNL     1       5.022   5.194  19.376  0.00  0.00    +0.000 C 
ATOM      7  O   UNL     1       5.984   5.205  20.138  0.00  0.00    +0.000 OA
ENDROOT
BRANCH   4   8
ATOM      8  C   UNL     1       2.210   6.867  19.098  0.00  0.00    +0.000 A 
ATOM      9  C   UNL     1       2.395   7.547  17.880  0.00  0.00    +0.000 A 
ATOM     10  C   UNL     1       2.198   8.926  17.791  0.00  0.00    +0.000 A 
ATOM     11  C   UNL     1       1.808   9.649  18.915  0.00  0.00    +0.000 A 
ATOM     12  C   UNL     1       1.576   8.991  20.118  0.00  0.00    +0.000 A 
ATOM     13  C   UNL     1       1.762   7.612  20.205  0.00  0.00    +0.000 A 
ENDBRANCH   4   8
BRANCH   1  15
ATOM     14  C   UNL     1       6.372   5.028  15.805  0.00  0.00    +0.000 C 
ATOM     15  C   UNL     1       6.418   5.296  17.316  0.00  0.00    +0.000 C 
BRANCH  15  16
ATOM     16  C   UNL     1       7.193   6.570  17.639  0.00  0.00    +0.000 A 
ATOM     17  C   UNL     1       8.167   6.617  18.645  0.00  0.00    +0.000 A 
ATOM     18  C   UNL     1       8.766   7.826  19.011  0.00  0.00    +0.000 A 
ATOM     19  C   UNL     1       8.401   9.018  18.376  0.00  0.00    +0.000 A 
ATOM     20  C   UNL     1       7.446   8.984  17.360  0.00  0.00    +0.000 A 
ATOM     21  C   UNL     1       6.857   7.771  16.988  0.00  0.00    +0.000 A 
BRANCH  19  22
ATOM     22  C   UNL     1       9.020  10.285  18.795  0.00  0.00    +0.000 A 
ATOM     23  C   UNL     1       9.461  11.298  17.844  0.00  0.00    +0.000 A 
ATOM     24  C   UNL     1       9.927  12.473  18.281  0.00  0.00    +0.000 A 
ATOM     25  N   UNL     1      10.014  12.725  19.625  0.00  0.00    +0.000 N 
ATOM     26  C   UNL     1       9.659  11.823  20.597  0.00  0.00    +0.000 A 
ATOM     27  O   UNL     1       9.759  12.061  21.796  0.00  0.00    +0.000 OA
ATOM     28  C   UNL     1       9.123  10.522  20.114  0.00  0.00    +0.000 A 
ATOM     29  H   UNL     1      10.361  13.616  19.959  0.00  0.00    +0.000 HD
ENDBRANCH  19  22
ENDBRANCH  15  16
ENDBRANCH   1  15
BRANCH   4  30
ATOM     30  C   UNL     1       1.481   4.583  20.026  0.00  0.00    +0.000 C 
BRANCH  30  31
ATOM     31  C   UNL     1       1.560   3.031  20.097  0.00  0.00    +0.000 C 
ATOM     32  C   UNL     1       0.892   2.287  18.935  0.00  0.00    +0.000 C 
ATOM     33  C   UNL     1       2.981   2.502  20.295  0.00  0.00    +0.000 C 
BRANCH  31  34
ATOM     34  O   UNL     1       0.849   2.660  21.296  0.00  0.00    +0.000 OA
ATOM     35  H   UNL     1       0.217   1.957  21.063  0.00  0.00    +0.000 HD
ENDBRANCH  31  34
ENDBRANCH  30  31
ENDBRANCH   4  30
TORSDOF 7
ENDMDL
