MODEL 1
REMARK VINA RESULT:      -7.8      0.000      0.000
REMARK  Name = 
REMARK  9 active torsions:
REMARK  status: ('A' for Active; 'I' for Inactive)
REMARK    1  A    between atoms: C_1  and  O_2
REMARK    2  A    between atoms: O_2  and  C_3
REMARK    3  A    between atoms: C_3  and  C_4
REMARK    4  A    between atoms: C_4  and  O_5
REMARK    5  A    between atoms: O_5  and  C_6
REMARK    6  A    between atoms: C_8  and  C_9
REMARK    7  A    between atoms: C_14  and  C_15
REMARK    8  A    between atoms: N_17  and  C_18
REMARK    9  A    between atoms: C_25  and  O_26
REMARK                            x       y       z     vdW  Elec       q    Type
REMARK                         _______ _______ _______ _____ _____    ______ ____
ROOT
ATOM      1  C   UNL     1       2.144   7.979  19.274  0.00  0.00    +0.000 C 
ATOM      2  O   UNL     1       2.597   8.227  18.153  0.00  0.00    +0.000 OA
ATOM      3  N   UNL     1       2.367   6.747  19.855  0.00  0.00    +0.000 N 
ATOM      4  H   UNL     1       2.198   6.693  20.858  0.00  0.00    +0.000 HD
ENDROOT
BRANCH   3   5
ATOM      5  C   UNL     1       3.145   5.663  19.235  0.00  0.00    +0.000 C 
ATOM      6  C   UNL     1       3.298   4.479  20.229  0.00  0.00    +0.000 C 
ATOM      7  C   UNL     1       4.223   3.399  19.630  0.00  0.00    +0.000 C 
ATOM      8  C   UNL     1       3.631   2.855  18.320  0.00  0.00    +0.000 C 
ATOM      9  C   UNL     1       3.476   4.024  17.328  0.00  0.00    +0.000 C 
ATOM     10  C   UNL     1       2.537   5.107  17.912  0.00  0.00    +0.000 C 
ATOM     11  C   UNL     1       1.165   4.469  18.189  0.00  0.00    +0.000 C 
ATOM     12  C   UNL     1       1.314   3.307  19.188  0.00  0.00    +0.000 C 
ATOM     13  C   UNL     1       2.249   2.242  18.593  0.00  0.00    +0.000 C 
ATOM     14  C   UNL     1       1.925   3.832  20.496  0.00  0.00    +0.000 C 
BRANCH  12  15
ATOM     15  O   UNL     1       0.044   2.739  19.471  0.00  0.00    +0.000 OA
ATOM     16  H   UNL     1       0.161   2.071  20.168  0.00  0.00    +0.000 HD
ENDBRANCH  12  15
ENDBRANCH   3   5
BRANCH   1  20
ATOM     17  C   UNL     1       0.205  10.023  21.901  0.00  0.00    +0.000 A 
ATOM     18  N   UNL     1      -0.207  10.550  20.779  0.00  0.00    +0.000 NA
ATOM     19  C   UNL     1       0.447   9.972  19.677  0.00  0.00    +0.000 A 
ATOM     20  C   UNL     1       1.310   8.926  20.012  0.00  0.00    +0.000 A 
ATOM     21  S   UNL     1       1.359   8.787  21.745  0.00  0.00    +0.000 S 
BRANCH  19  22
ATOM     22  C   UNL     1       0.056  10.522  18.323  0.00  0.00    +0.000 C 
ATOM     23  C   UNL     1      -0.948   9.644  17.565  0.00  0.00    +0.000 C 
ATOM     24  C   UNL     1      -2.273  10.190  18.029  0.00  0.00    +0.000 C 
ATOM     25  C   UNL     1      -1.981  11.667  18.112  0.00  0.00    +0.000 C 
ATOM     26  O   UNL     1      -0.588  11.813  18.433  0.00  0.00    +0.000 OA
ENDBRANCH  19  22
BRANCH  17  27
ATOM     27  O   UNL     1      -0.214  10.426  23.103  0.00  0.00    +0.000 OA
BRANCH  27  28
ATOM     28  C   UNL     1      -1.475  11.092  23.116  0.00  0.00    +0.000 C 
BRANCH  28  29
ATOM     29  C   UNL     1      -1.229  12.602  23.120  0.00  0.00    +0.000 C 
BRANCH  29  31
ATOM     30  C   UNL     1      -3.492  12.448  23.768  0.00  0.00    +0.000 C 
ATOM     31  O   UNL     1      -2.467  13.299  23.268  0.00  0.00    +0.000 OA
ENDBRANCH  29  31
ENDBRANCH  28  29
ENDBRANCH  27  28
ENDBRANCH  17  27
ENDBRANCH   1  20
TORSDOF 8
ENDMDL
MODEL 2
REMARK VINA RESULT:      -7.4      2.637      8.757
REMARK  Name = 
REMARK  9 active torsions:
REMARK  status: ('A' for Active; 'I' for Inactive)
REMARK    1  A    between atoms: C_1  and  O_2
REMARK    2  A    between atoms: O_2  and  C_3
REMARK    3  A    between atoms: C_3  and  C_4
REMARK    4  A    between atoms: C_4  and  O_5
REMARK    5  A    between atoms: O_5  and  C_6
REMARK    6  A    between atoms: C_8  and  C_9
REMARK    7  A    between atoms: C_14  and  C_15
REMARK    8  A    between atoms: N_17  and  C_18
REMARK    9  A    between atoms: C_25  and  O_26
REMARK                            x       y       z     vdW  Elec       q    Type
REMARK                         _______ _______ _______ _____ _____    ______ ____
ROOT
ATOM      1  C   UNL     1       1.592   7.948  20.193  0.00  0.00    +0.000 C 
ATOM      2  O   UNL     1       1.340   7.713  21.378  0.00  0.00    +0.000 OA
ATOM      3  N   UNL     1       1.004   9.023  19.559  0.00  0.00    +0.000 N 
ATOM      4  H   UNL     1       1.438   9.314  18.684  0.00  0.00    +0.000 HD
ENDROOT
BRANCH   3   5
ATOM      5  C   UNL     1       0.075   9.965  20.205  0.00  0.00    +0.000 C 
ATOM      6  C   UNL     1       0.865  11.127  20.867  0.00  0.00    +0.000 C 
ATOM      7  C   UNL     1      -0.096  12.041  21.655  0.00  0.00    +0.000 C 
ATOM      8  C   UNL     1      -1.148  12.648  20.712  0.00  0.00    +0.000 C 
ATOM      9  C   UNL     1      -1.937  11.501  20.052  0.00  0.00    +0.000 C 
ATOM     10  C   UNL     1      -0.985  10.586  19.245  0.00  0.00    +0.000 C 
ATOM     11  C   UNL     1      -0.287  11.433  18.167  0.00  0.00    +0.000 C 
ATOM     12  C   UNL     1       0.510  12.574  18.823  0.00  0.00    +0.000 C 
ATOM     13  C   UNL     1      -0.450  13.472  19.620  0.00  0.00    +0.000 C 
ATOM     14  C   UNL     1       1.553  11.983  19.785  0.00  0.00    +0.000 C 
BRANCH  12  15
ATOM     15  O   UNL     1       1.182  13.336  17.831  0.00  0.00    +0.000 OA
ATOM     16  H   UNL     1       0.551  13.980  17.468  0.00  0.00    +0.000 HD
ENDBRANCH  12  15
ENDBRANCH   3   5
BRANCH   1  20
ATOM     17  C   UNL     1       3.886   6.355  17.540  0.00  0.00    +0.000 A 
ATOM     18  N   UNL     1       3.688   5.364  18.368  0.00  0.00    +0.000 NA
ATOM     19  C   UNL     1       2.910   5.769  19.466  0.00  0.00    +0.000 A 
ATOM     20  C   UNL     1       2.458   7.088  19.388  0.00  0.00    +0.000 A 
ATOM     21  S   UNL     1       3.144   7.821  17.968  0.00  0.00    +0.000 S 
BRANCH  19  22
ATOM     22  C   UNL     1       2.631   4.698  20.499  0.00  0.00    +0.000 C 
ATOM     23  C   UNL     1       1.150   4.315  20.610  0.00  0.00    +0.000 C 
ATOM     24  C   UNL     1       1.027   3.199  19.605  0.00  0.00    +0.000 C 
ATOM     25  C   UNL     1       2.342   2.483  19.783  0.00  0.00    +0.000 C 
ATOM     26  O   UNL     1       3.313   3.461  20.188  0.00  0.00    +0.000 OA
ENDBRANCH  19  22
BRANCH  17  27
ATOM     27  O   UNL     1       4.638   6.259  16.441  0.00  0.00    +0.000 OA
BRANCH  27  28
ATOM     28  C   UNL     1       6.046   6.243  16.668  0.00  0.00    +0.000 C 
BRANCH  28  29
ATOM     29  C   UNL     1       6.671   5.164  15.780  0.00  0.00    +0.000 C 
BRANCH  29  31
ATOM     30  C   UNL     1       7.637   4.668  17.874  0.00  0.00    +0.000 C 
ATOM     31  O   UNL     1       7.760   4.540  16.462  0.00  0.00    +0.000 OA
ENDBRANCH  29  31
ENDBRANCH  28  29
ENDBRANCH  27  28
ENDBRANCH  17  27
ENDBRANCH   1  20
TORSDOF 8
ENDMDL
MODEL 3
REMARK VINA RESULT:      -7.4      2.542      8.661
REMARK  Name = 
REMARK  9 active torsions:
REMARK  status: ('A' for Active; 'I' for Inactive)
REMARK    1  A    between atoms: C_1  and  O_2
REMARK    2  A    between atoms: O_2  and  C_3
REMARK    3  A    between atoms: C_3  and  C_4
REMARK    4  A    between atoms: C_4  and  O_5
REMARK    5  A    between atoms: O_5  and  C_6
REMARK    6  A    between atoms: C_8  and  C_9
REMARK    7  A    between atoms: C_14  and  C_15
REMARK    8  A    between atoms: N_17  and  C_18
REMARK    9  A    between atoms: C_25  and  O_26
REMARK                            x       y       z     vdW  Elec       q    Type
REMARK                         _______ _______ _______ _____ _____    ______ ____
ROOT
ATOM      1  C   UNL     1       1.781   7.789  20.253  0.00  0.00    +0.000 C 
ATOM      2  O   UNL     1       1.207   7.400  21.274  0.00  0.00    +0.000 OA
ATOM      3  N   UNL     1       1.677   9.107  19.859  0.00  0.00    +0.000 N 
ATOM      4  H   UNL     1       2.365   9.421  19.176  0.00  0.00    +0.000 HD
ENDROOT
BRANCH   3   5
ATOM      5  C   UNL     1       0.923  10.139  20.590  0.00  0.00    +0.000 C 
ATOM      6  C   UNL     1       1.246  11.545  20.015  0.00  0.00    +0.000 C 
ATOM      7  C   UNL     1       0.560  12.635  20.863  0.00  0.00    +0.000 C 
ATOM      8  C   UNL     1      -0.966  12.445  20.845  0.00  0.00    +0.000 C 
ATOM      9  C   UNL     1      -1.294  11.052  21.414  0.00  0.00    +0.000 C 
ATOM     10  C   UNL     1      -0.624   9.948  20.561  0.00  0.00    +0.000 C 
ATOM     11  C   UNL     1      -1.142  10.061  19.117  0.00  0.00    +0.000 C 
ATOM     12  C   UNL     1      -0.807  11.448  18.541  0.00  0.00    +0.000 C 
ATOM     13  C   UNL     1      -1.480  12.531  19.399  0.00  0.00    +0.000 C 
ATOM     14  C   UNL     1       0.714  11.662  18.573  0.00  0.00    +0.000 C 
BRANCH  12  15
ATOM     15  O   UNL     1      -1.255  11.542  17.197  0.00  0.00    +0.000 OA
ATOM     16  H   UNL     1      -1.293  10.643  16.829  0.00  0.00    +0.000 HD
ENDBRANCH  12  15
ENDBRANCH   3   5
BRANCH   1  20
ATOM     17  C   UNL     1       3.842   6.109  17.466  0.00  0.00    +0.000 A 
ATOM     18  N   UNL     1       3.558   5.101  18.247  0.00  0.00    +0.000 NA
ATOM     19  C   UNL     1       2.848   5.526  19.384  0.00  0.00    +0.000 A 
ATOM     20  C   UNL     1       2.536   6.887  19.384  0.00  0.00    +0.000 A 
ATOM     21  S   UNL     1       3.267   7.620  17.987  0.00  0.00    +0.000 S 
BRANCH  19  22
ATOM     22  C   UNL     1       2.479   4.437  20.368  0.00  0.00    +0.000 C 
ATOM     23  C   UNL     1       0.985   4.087  20.372  0.00  0.00    +0.000 C 
ATOM     24  C   UNL     1       0.904   3.000  19.333  0.00  0.00    +0.000 C 
ATOM     25  C   UNL     1       2.188   2.248  19.577  0.00  0.00    +0.000 C 
ATOM     26  O   UNL     1       3.152   3.192  20.069  0.00  0.00    +0.000 OA
ENDBRANCH  19  22
BRANCH  17  27
ATOM     27  O   UNL     1       4.558   5.994  16.345  0.00  0.00    +0.000 OA
BRANCH  27  28
ATOM     28  C   UNL     1       5.329   4.799  16.236  0.00  0.00    +0.000 C 
BRANCH  28  29
ATOM     29  C   UNL     1       6.679   5.145  15.602  0.00  0.00    +0.000 C 
BRANCH  29  31
ATOM     30  C   UNL     1       7.564   4.674  17.737  0.00  0.00    +0.000 C 
ATOM     31  O   UNL     1       7.736   4.523  16.333  0.00  0.00    +0.000 OA
ENDBRANCH  29  31
ENDBRANCH  28  29
ENDBRANCH  27  28
ENDBRANCH  17  27
ENDBRANCH   1  20
TORSDOF 8
ENDMDL
MODEL 4
REMARK VINA RESULT:      -7.4      1.143      1.605
REMARK  Name = 
REMARK  9 active torsions:
REMARK  status: ('A' for Active; 'I' for Inactive)
REMARK    1  A    between atoms: C_1  and  O_2
REMARK    2  A    between atoms: O_2  and  C_3
REMARK    3  A    between atoms: C_3  and  C_4
REMARK    4  A    between atoms: C_4  and  O_5
REMARK    5  A    between atoms: O_5  and  C_6
REMARK    6  A    between atoms: C_8  and  C_9
REMARK    7  A    between atoms: C_14  and  C_15
REMARK    8  A    between atoms: N_17  and  C_18
REMARK    9  A    between atoms: C_25  and  O_26
REMARK                            x       y       z     vdW  Elec       q    Type
REMARK                         _______ _______ _______ _____ _____    ______ ____
ROOT
ATOM      1  C   UNL     1       2.274   7.771  19.172  0.00  0.00    +0.000 C 
ATOM      2  O   UNL     1       2.839   8.081  18.120  0.00  0.00    +0.000 OA
ATOM      3  N   UNL     1       2.448   6.512  19.707  0.00  0.00    +0.000 N 
ATOM      4  H   UNL     1       2.176   6.402  20.683  0.00  0.00    +0.000 HD
ENDROOT
BRANCH   3   5
ATOM      5  C   UNL     1       3.298   5.465  19.116  0.00  0.00    +0.000 C 
ATOM      6  C   UNL     1       3.355   4.229  20.055  0.00  0.00    +0.000 C 
ATOM      7  C   UNL     1       4.348   3.188  19.501  0.00  0.00    +0.000 C 
ATOM      8  C   UNL     1       3.904   2.715  18.106  0.00  0.00    +0.000 C 
ATOM      9  C   UNL     1       3.845   3.935  17.169  0.00  0.00    +0.000 C 
ATOM     10  C   UNL     1       2.839   4.981  17.707  0.00  0.00    +0.000 C 
ATOM     11  C   UNL     1       1.451   4.324  17.801  0.00  0.00    +0.000 C 
ATOM     12  C   UNL     1       1.504   3.110  18.745  0.00  0.00    +0.000 C 
ATOM     13  C   UNL     1       2.506   2.082  18.197  0.00  0.00    +0.000 C 
ATOM     14  C   UNL     1       1.968   3.564  20.138  0.00  0.00    +0.000 C 
BRANCH  12  15
ATOM     15  O   UNL     1       0.216   2.523  18.860  0.00  0.00    +0.000 OA
ATOM     16  H   UNL     1       0.075   2.287  19.793  0.00  0.00    +0.000 HD
ENDBRANCH  12  15
ENDBRANCH   3   5
BRANCH   1  20
ATOM     17  C   UNL     1      -0.156   9.524  21.593  0.00  0.00    +0.000 A 
ATOM     18  N   UNL     1      -0.141  10.342  20.574  0.00  0.00    +0.000 NA
ATOM     19  C   UNL     1       0.758   9.903  19.587  0.00  0.00    +0.000 A 
ATOM     20  C   UNL     1       1.358   8.674  19.868  0.00  0.00    +0.000 A 
ATOM     21  S   UNL     1       0.852   8.165  21.452  0.00  0.00    +0.000 S 
BRANCH  19  22
ATOM     22  C   UNL     1       0.867  10.788  18.363  0.00  0.00    +0.000 C 
ATOM     23  C   UNL     1       0.097  12.109  18.484  0.00  0.00    +0.000 C 
ATOM     24  C   UNL     1       1.125  13.031  19.086  0.00  0.00    +0.000 C 
ATOM     25  C   UNL     1       2.385  12.577  18.392  0.00  0.00    +0.000 C 
ATOM     26  O   UNL     1       2.235  11.177  18.102  0.00  0.00    +0.000 OA
ENDBRANCH  19  22
BRANCH  17  27
ATOM     27  O   UNL     1      -0.881   9.732  22.695  0.00  0.00    +0.000 OA
BRANCH  27  28
ATOM     28  C   UNL     1      -0.843  11.063  23.205  0.00  0.00    +0.000 C 
BRANCH  28  29
ATOM     29  C   UNL     1      -2.264  11.633  23.189  0.00  0.00    +0.000 C 
BRANCH  29  31
ATOM     30  C   UNL     1      -0.905  13.467  22.596  0.00  0.00    +0.000 C 
ATOM     31  O   UNL     1      -2.231  13.021  22.856  0.00  0.00    +0.000 OA
ENDBRANCH  29  31
ENDBRANCH  28  29
ENDBRANCH  27  28
ENDBRANCH  17  27
ENDBRANCH   1  20
TORSDOF 8
ENDMDL
MODEL 5
REMARK VINA RESULT:      -7.3      1.337      1.728
REMARK  Name = 
REMARK  9 active torsions:
REMARK  status: ('A' for Active; 'I' for Inactive)
REMARK    1  A    between atoms: C_1  and  O_2
REMARK    2  A    between atoms: O_2  and  C_3
REMARK    3  A    between atoms: C_3  and  C_4
REMARK    4  A    between atoms: C_4  and  O_5
REMARK    5  A    between atoms: O_5  and  C_6
REMARK    6  A    between atoms: C_8  and  C_9
REMARK    7  A    between atoms: C_14  and  C_15
REMARK    8  A    between atoms: N_17  and  C_18
REMARK    9  A    between atoms: C_25  and  O_26
REMARK                            x       y       z     vdW  Elec       q    Type
REMARK                         _______ _______ _______ _____ _____    ______ ____
ROOT
ATOM      1  C   UNL     1       2.009   8.078  18.989  0.00  0.00    +0.000 C 
ATOM      2  O   UNL     1       2.160   8.234  17.774  0.00  0.00    +0.000 OA
ATOM      3  N   UNL     1       2.356   6.882  19.582  0.00  0.00    +0.000 N 
ATOM      4  H   UNL     1       2.452   6.902  20.597  0.00  0.00    +0.000 HD
ENDROOT
BRANCH   3   5
ATOM      5  C   UNL     1       2.930   5.732  18.866  0.00  0.00    +0.000 C 
ATOM      6  C   UNL     1       3.757   4.851  19.843  0.00  0.00    +0.000 C 
ATOM      7  C   UNL     1       4.465   3.721  19.069  0.00  0.00    +0.000 C 
ATOM      8  C   UNL     1       3.431   2.824  18.367  0.00  0.00    +0.000 C 
ATOM      9  C   UNL     1       2.608   3.691  17.396  0.00  0.00    +0.000 C 
ATOM     10  C   UNL     1       1.878   4.819  18.165  0.00  0.00    +0.000 C 
ATOM     11  C   UNL     1       0.952   4.180  19.213  0.00  0.00    +0.000 C 
ATOM     12  C   UNL     1       1.773   3.322  20.191  0.00  0.00    +0.000 C 
ATOM     13  C   UNL     1       2.490   2.207  19.413  0.00  0.00    +0.000 C 
ATOM     14  C   UNL     1       2.826   4.201  20.885  0.00  0.00    +0.000 C 
BRANCH  12  15
ATOM     15  O   UNL     1       0.924   2.758  21.180  0.00  0.00    +0.000 OA
ATOM     16  H   UNL     1       0.308   2.149  20.737  0.00  0.00    +0.000 HD
ENDBRANCH  12  15
ENDBRANCH   3   5
BRANCH   1  20
ATOM     17  C   UNL     1       0.420  10.145  21.825  0.00  0.00    +0.000 A 
ATOM     18  N   UNL     1       0.380  10.977  20.818  0.00  0.00    +0.000 NA
ATOM     19  C   UNL     1       0.986  10.422  19.678  0.00  0.00    +0.000 A 
ATOM     20  C   UNL     1       1.410   9.102  19.844  0.00  0.00    +0.000 A 
ATOM     21  S   UNL     1       1.136   8.640  21.498  0.00  0.00    +0.000 S 
BRANCH  19  22
ATOM     22  C   UNL     1       1.009  11.311  18.453  0.00  0.00    +0.000 C 
ATOM     23  C   UNL     1       0.395  12.698  18.683  0.00  0.00    +0.000 C 
ATOM     24  C   UNL     1       1.582  13.507  19.136  0.00  0.00    +0.000 C 
ATOM     25  C   UNL     1       2.683  12.945  18.272  0.00  0.00    +0.000 C 
ATOM     26  O   UNL     1       2.359  11.571  18.004  0.00  0.00    +0.000 OA
ENDBRANCH  19  22
BRANCH  17  27
ATOM     27  O   UNL     1      -0.036  10.440  23.045  0.00  0.00    +0.000 OA
BRANCH  27  28
ATOM     28  C   UNL     1      -1.352  10.986  23.086  0.00  0.00    +0.000 C 
BRANCH  28  29
ATOM     29  C   UNL     1      -1.248  12.513  23.107  0.00  0.00    +0.000 C 
BRANCH  29  31
ATOM     30  C   UNL     1      -3.599  12.553  23.284  0.00  0.00    +0.000 C 
ATOM     31  O   UNL     1      -2.460  13.093  22.625  0.00  0.00    +0.000 OA
ENDBRANCH  29  31
ENDBRANCH  28  29
ENDBRANCH  27  28
ENDBRANCH  17  27
ENDBRANCH   1  20
TORSDOF 8
ENDMDL
MODEL 6
REMARK VINA RESULT:      -7.3      2.663      8.326
REMARK  Name = 
REMARK  9 active torsions:
REMARK  status: ('A' for Active; 'I' for Inactive)
REMARK    1  A    between atoms: C_1  and  O_2
REMARK    2  A    between atoms: O_2  and  C_3
REMARK    3  A    between atoms: C_3  and  C_4
REMARK    4  A    between atoms: C_4  and  O_5
REMARK    5  A    between atoms: O_5  and  C_6
REMARK    6  A    between atoms: C_8  and  C_9
REMARK    7  A    between atoms: C_14  and  C_15
REMARK    8  A    between atoms: N_17  and  C_18
REMARK    9  A    between atoms: C_25  and  O_26
REMARK                            x       y       z     vdW  Elec       q    Type
REMARK                         _______ _______ _______ _____ _____    ______ ____
ROOT
ATOM      1  C   UNL     1       2.229   7.876  18.489  0.00  0.00    +0.000 C 
ATOM      2  O   UNL     1       2.154   8.500  17.427  0.00  0.00    +0.000 OA
ATOM      3  N   UNL     1       1.718   8.419  19.650  0.00  0.00    +0.000 N 
ATOM      4  H   UNL     1       1.578   7.767  20.421  0.00  0.00    +0.000 HD
ENDROOT
BRANCH   3   5
ATOM      5  C   UNL     1       1.046   9.726  19.733  0.00  0.00    +0.000 C 
ATOM      6  C   UNL     1      -0.482   9.530  19.936  0.00  0.00    +0.000 C 
ATOM      7  C   UNL     1      -1.201  10.893  19.891  0.00  0.00    +0.000 C 
ATOM      8  C   UNL     1      -0.679  11.811  21.009  0.00  0.00    +0.000 C 
ATOM      9  C   UNL     1       0.835  12.010  20.814  0.00  0.00    +0.000 C 
ATOM     10  C   UNL     1       1.571  10.650  20.874  0.00  0.00    +0.000 C 
ATOM     11  C   UNL     1       1.298  10.004  22.243  0.00  0.00    +0.000 C 
ATOM     12  C   UNL     1      -0.214   9.794  22.437  0.00  0.00    +0.000 C 
ATOM     13  C   UNL     1      -0.929  11.153  22.375  0.00  0.00    +0.000 C 
ATOM     14  C   UNL     1      -0.755   8.895  21.314  0.00  0.00    +0.000 C 
BRANCH  12  15
ATOM     15  O   UNL     1      -0.465   9.166  23.686  0.00  0.00    +0.000 OA
ATOM     16  H   UNL     1      -1.225   9.611  24.099  0.00  0.00    +0.000 HD
ENDBRANCH  12  15
ENDBRANCH   3   5
BRANCH   1  20
ATOM     17  C   UNL     1       4.422   4.738  18.065  0.00  0.00    +0.000 A 
ATOM     18  N   UNL     1       3.643   4.400  19.057  0.00  0.00    +0.000 NA
ATOM     19  C   UNL     1       2.792   5.459  19.416  0.00  0.00    +0.000 A 
ATOM     20  C   UNL     1       2.905   6.584  18.595  0.00  0.00    +0.000 A 
ATOM     21  S   UNL     1       4.189   6.306  17.456  0.00  0.00    +0.000 S 
BRANCH  19  22
ATOM     22  C   UNL     1       1.853   5.181  20.570  0.00  0.00    +0.000 C 
ATOM     23  C   UNL     1       0.646   4.311  20.190  0.00  0.00    +0.000 C 
ATOM     24  C   UNL     1       1.160   2.917  20.437  0.00  0.00    +0.000 C 
ATOM     25  C   UNL     1       1.999   3.115  21.674  0.00  0.00    +0.000 C 
ATOM     26  O   UNL     1       2.511   4.457  21.636  0.00  0.00    +0.000 OA
ENDBRANCH  19  22
BRANCH  17  27
ATOM     27  O   UNL     1       5.366   3.937  17.562  0.00  0.00    +0.000 OA
BRANCH  27  28
ATOM     28  C   UNL     1       6.174   4.517  16.540  0.00  0.00    +0.000 C 
BRANCH  28  29
ATOM     29  C   UNL     1       7.610   4.629  17.058  0.00  0.00    +0.000 C 
BRANCH  29  31
ATOM     30  C   UNL     1       7.877   5.733  19.124  0.00  0.00    +0.000 C 
ATOM     31  O   UNL     1       7.629   4.490  18.479  0.00  0.00    +0.000 OA
ENDBRANCH  29  31
ENDBRANCH  28  29
ENDBRANCH  27  28
ENDBRANCH  17  27
ENDBRANCH   1  20
TORSDOF 8
ENDMDL
MODEL 7
REMARK VINA RESULT:      -7.3      2.297      8.002
REMARK  Name = 
REMARK  9 active torsions:
REMARK  status: ('A' for Active; 'I' for Inactive)
REMARK    1  A    between atoms: C_1  and  O_2
REMARK    2  A    between atoms: O_2  and  C_3
REMARK    3  A    between atoms: C_3  and  C_4
REMARK    4  A    between atoms: C_4  and  O_5
REMARK    5  A    between atoms: O_5  and  C_6
REMARK    6  A    between atoms: C_8  and  C_9
REMARK    7  A    between atoms: C_14  and  C_15
REMARK    8  A    between atoms: N_17  and  C_18
REMARK    9  A    between atoms: C_25  and  O_26
REMARK                            x       y       z     vdW  Elec       q    Type
REMARK                         _______ _______ _______ _____ _____    ______ ____
ROOT
ATOM      1  C   UNL     1       2.243   8.445  18.048  0.00  0.00    +0.000 C 
ATOM      2  O   UNL     1       2.552   9.046  17.016  0.00  0.00    +0.000 OA
ATOM      3  N   UNL     1       1.313   8.985  18.912  0.00  0.00    +0.000 N 
ATOM      4  H   UNL     1       0.916   8.341  19.595  0.00  0.00    +0.000 HD
ENDROOT
BRANCH   3   5
ATOM      5  C   UNL     1       0.616  10.263  18.694  0.00  0.00    +0.000 C 
ATOM      6  C   UNL     1      -0.840  10.175  19.228  0.00  0.00    +0.000 C 
ATOM      7  C   UNL     1      -1.610  11.465  18.882  0.00  0.00    +0.000 C 
ATOM      8  C   UNL     1      -0.931  12.684  19.529  0.00  0.00    +0.000 C 
ATOM      9  C   UNL     1       0.514  12.777  19.003  0.00  0.00    +0.000 C 
ATOM     10  C   UNL     1       1.302  11.494  19.360  0.00  0.00    +0.000 C 
ATOM     11  C   UNL     1       1.309  11.331  20.889  0.00  0.00    +0.000 C 
ATOM     12  C   UNL     1      -0.132  11.227  21.417  0.00  0.00    +0.000 C 
ATOM     13  C   UNL     1      -0.900  12.509  21.055  0.00  0.00    +0.000 C 
ATOM     14  C   UNL     1      -0.832  10.026  20.763  0.00  0.00    +0.000 C 
BRANCH  12  15
ATOM     15  O   UNL     1      -0.126  11.043  22.825  0.00  0.00    +0.000 OA
ATOM     16  H   UNL     1      -0.204  10.090  23.004  0.00  0.00    +0.000 HD
ENDBRANCH  12  15
ENDBRANCH   3   5
BRANCH   1  20
ATOM     17  C   UNL     1       3.340   5.161  19.736  0.00  0.00    +0.000 A 
ATOM     18  N   UNL     1       4.218   5.287  18.778  0.00  0.00    +0.000 NA
ATOM     19  C   UNL     1       3.946   6.417  17.987  0.00  0.00    +0.000 A 
ATOM     20  C   UNL     1       2.872   7.185  18.442  0.00  0.00    +0.000 A 
ATOM     21  S   UNL     1       2.155   6.375  19.804  0.00  0.00    +0.000 S 
BRANCH  19  22
ATOM     22  C   UNL     1       4.897   6.651  16.833  0.00  0.00    +0.000 C 
ATOM     23  C   UNL     1       6.246   7.249  17.255  0.00  0.00    +0.000 C 
ATOM     24  C   UNL     1       7.075   6.020  17.523  0.00  0.00    +0.000 C 
ATOM     25  C   UNL     1       6.602   5.089  16.436  0.00  0.00    +0.000 C 
ATOM     26  O   UNL     1       5.232   5.419  16.154  0.00  0.00    +0.000 OA
ENDBRANCH  19  22
BRANCH  17  27
ATOM     27  O   UNL     1       3.332   4.142  20.600  0.00  0.00    +0.000 OA
BRANCH  27  28
ATOM     28  C   UNL     1       2.159   4.037  21.405  0.00  0.00    +0.000 C 
BRANCH  28  29
ATOM     29  C   UNL     1       1.407   2.765  21.007  0.00  0.00    +0.000 C 
BRANCH  29  31
ATOM     30  C   UNL     1       0.996   2.335  18.725  0.00  0.00    +0.000 C 
ATOM     31  O   UNL     1       0.559   3.028  19.888  0.00  0.00    +0.000 OA
ENDBRANCH  29  31
ENDBRANCH  28  29
ENDBRANCH  27  28
ENDBRANCH  17  27
ENDBRANCH   1  20
TORSDOF 8
ENDMDL
MODEL 8
REMARK VINA RESULT:      -7.2      1.926      3.325
REMARK  Name = 
REMARK  9 active torsions:
REMARK  status: ('A' for Active; 'I' for Inactive)
REMARK    1  A    between atoms: C_1  and  O_2
REMARK    2  A    between atoms: O_2  and  C_3
REMARK    3  A    between atoms: C_3  and  C_4
REMARK    4  A    between atoms: C_4  and  O_5
REMARK    5  A    between atoms: O_5  and  C_6
REMARK    6  A    between atoms: C_8  and  C_9
REMARK    7  A    between atoms: C_14  and  C_15
REMARK    8  A    between atoms: N_17  and  C_18
REMARK    9  A    between atoms: C_25  and  O_26
REMARK                            x       y       z     vdW  Elec       q    Type
REMARK                         _______ _______ _______ _____ _____    ______ ____
ROOT
ATOM      1  C   UNL     1       2.724   7.667  18.453  0.00  0.00    +0.000 C 
ATOM      2  O   UNL     1       3.475   7.729  17.476  0.00  0.00    +0.000 OA
ATOM      3  N   UNL     1       2.598   6.486  19.156  0.00  0.00    +0.000 N 
ATOM      4  H   UNL     1       2.178   6.563  20.081  0.00  0.00    +0.000 HD
ENDROOT
BRANCH   3   5
ATOM      5  C   UNL     1       3.325   5.246  18.839  0.00  0.00    +0.000 C 
ATOM      6  C   UNL     1       3.323   4.297  20.069  0.00  0.00    +0.000 C 
ATOM      7  C   UNL     1       4.195   3.057  19.783  0.00  0.00    +0.000 C 
ATOM      8  C   UNL     1       3.643   2.283  18.574  0.00  0.00    +0.000 C 
ATOM      9  C   UNL     1       3.641   3.218  17.350  0.00  0.00    +0.000 C 
ATOM     10  C   UNL     1       2.756   4.458  17.620  0.00  0.00    +0.000 C 
ATOM     11  C   UNL     1       1.324   3.984  17.920  0.00  0.00    +0.000 C 
ATOM     12  C   UNL     1       1.320   3.057  19.148  0.00  0.00    +0.000 C 
ATOM     13  C   UNL     1       2.203   1.832  18.864  0.00  0.00    +0.000 C 
ATOM     14  C   UNL     1       1.890   3.811  20.360  0.00  0.00    +0.000 C 
BRANCH  12  15
ATOM     15  O   UNL     1      -0.006   2.646  19.447  0.00  0.00    +0.000 OA
ATOM     16  H   UNL     1      -0.274   3.073  20.278  0.00  0.00    +0.000 HD
ENDBRANCH  12  15
ENDBRANCH   3   5
BRANCH   1  20
ATOM     17  C   UNL     1       0.801  10.982  18.837  0.00  0.00    +0.000 A 
ATOM     18  N   UNL     1       0.568  10.392  19.979  0.00  0.00    +0.000 NA
ATOM     19  C   UNL     1       1.143   9.110  20.013  0.00  0.00    +0.000 A 
ATOM     20  C   UNL     1       1.893   8.792  18.878  0.00  0.00    +0.000 A 
ATOM     21  S   UNL     1       1.742  10.095  17.736  0.00  0.00    +0.000 S 
BRANCH  19  22
ATOM     22  C   UNL     1       0.920   8.327  21.289  0.00  0.00    +0.000 C 
ATOM     23  C   UNL     1       1.492   9.007  22.540  0.00  0.00    +0.000 C 
ATOM     24  C   UNL     1       0.336   9.854  23.006  0.00  0.00    +0.000 C 
ATOM     25  C   UNL     1      -0.839   8.957  22.709  0.00  0.00    +0.000 C 
ATOM     26  O   UNL     1      -0.488   8.151  21.572  0.00  0.00    +0.000 OA
ENDBRANCH  19  22
BRANCH  17  27
ATOM     27  O   UNL     1       0.322  12.187  18.518  0.00  0.00    +0.000 OA
BRANCH  27  28
ATOM     28  C   UNL     1      -1.042  12.411  18.867  0.00  0.00    +0.000 C 
BRANCH  28  29
ATOM     29  C   UNL     1      -1.925  11.940  17.710  0.00  0.00    +0.000 C 
BRANCH  29  31
ATOM     30  C   UNL     1      -2.659   9.699  17.651  0.00  0.00    +0.000 C 
ATOM     31  O   UNL     1      -2.890  10.999  18.182  0.00  0.00    +0.000 OA
ENDBRANCH  29  31
ENDBRANCH  28  29
ENDBRANCH  27  28
ENDBRANCH  17  27
ENDBRANCH   1  20
TORSDOF 8
ENDMDL
MODEL 9
REMARK VINA RESULT:      -7.2      2.672      8.578
REMARK  Name = 
REMARK  9 active torsions:
REMARK  status: ('A' for Active; 'I' for Inactive)
REMARK    1  A    between atoms: C_1  and  O_2
REMARK    2  A    between atoms: O_2  and  C_3
REMARK    3  A    between atoms: C_3  and  C_4
REMARK    4  A    between atoms: C_4  and  O_5
REMARK    5  A    between atoms: O_5  and  C_6
REMARK    6  A    between atoms: C_8  and  C_9
REMARK    7  A    between atoms: C_14  and  C_15
REMARK    8  A    between atoms: N_17  and  C_18
REMARK    9  A    between atoms: C_25  and  O_26
REMARK                            x       y       z     vdW  Elec       q    Type
REMARK                         _______ _______ _______ _____ _____    ______ ____
ROOT
ATOM      1  C   UNL     1       2.248   8.034  18.420  0.00  0.00    +0.000 C 
ATOM      2  O   UNL     1       2.218   8.711  17.389  0.00  0.00    +0.000 OA
ATOM      3  N   UNL     1       1.650   8.500  19.573  0.00  0.00    +0.000 N 
ATOM      4  H   UNL     1       1.484   7.804  20.298  0.00  0.00    +0.000 HD
ENDROOT
BRANCH   3   5
ATOM      5  C   UNL     1       0.935   9.781  19.681  0.00  0.00    +0.000 C 
ATOM      6  C   UNL     1      -0.554   9.533  20.050  0.00  0.00    +0.000 C 
ATOM      7  C   UNL     1      -1.333  10.864  20.034  0.00  0.00    +0.000 C 
ATOM      8  C   UNL     1      -0.738  11.844  21.059  0.00  0.00    +0.000 C 
ATOM      9  C   UNL     1       0.738  12.095  20.699  0.00  0.00    +0.000 C 
ATOM     10  C   UNL     1       1.534  10.768  20.728  0.00  0.00    +0.000 C 
ATOM     11  C   UNL     1       1.433  10.165  22.140  0.00  0.00    +0.000 C 
ATOM     12  C   UNL     1      -0.041   9.903  22.498  0.00  0.00    +0.000 C 
ATOM     13  C   UNL     1      -0.816  11.230  22.466  0.00  0.00    +0.000 C 
ATOM     14  C   UNL     1      -0.655   8.942  21.469  0.00  0.00    +0.000 C 
BRANCH  12  15
ATOM     15  O   UNL     1      -0.134   9.315  23.787  0.00  0.00    +0.000 OA
ATOM     16  H   UNL     1       0.496   8.575  23.827  0.00  0.00    +0.000 HD
ENDBRANCH  12  15
ENDBRANCH   3   5
BRANCH   1  20
ATOM     17  C   UNL     1       4.609   5.016  18.026  0.00  0.00    +0.000 A 
ATOM     18  N   UNL     1       3.711   4.559  18.857  0.00  0.00    +0.000 NA
ATOM     19  C   UNL     1       2.773   5.553  19.186  0.00  0.00    +0.000 A 
ATOM     20  C   UNL     1       2.955   6.757  18.501  0.00  0.00    +0.000 A 
ATOM     21  S   UNL     1       4.400   6.630  17.541  0.00  0.00    +0.000 S 
BRANCH  19  22
ATOM     22  C   UNL     1       1.692   5.135  20.158  0.00  0.00    +0.000 C 
ATOM     23  C   UNL     1       0.934   3.870  19.734  0.00  0.00    +0.000 C 
ATOM     24  C   UNL     1       1.751   2.774  20.368  0.00  0.00    +0.000 C 
ATOM     25  C   UNL     1       2.144   3.406  21.679  0.00  0.00    +0.000 C 
ATOM     26  O   UNL     1       2.233   4.824  21.463  0.00  0.00    +0.000 OA
ENDBRANCH  19  22
BRANCH  17  27
ATOM     27  O   UNL     1       5.648   4.296  17.593  0.00  0.00    +0.000 OA
BRANCH  27  28
ATOM     28  C   UNL     1       5.734   4.144  16.178  0.00  0.00    +0.000 C 
BRANCH  28  29
ATOM     29  C   UNL     1       7.054   4.756  15.701  0.00  0.00    +0.000 C 
BRANCH  29  31
ATOM     30  C   UNL     1       6.263   4.027  13.602  0.00  0.00    +0.000 C 
ATOM     31  O   UNL     1       6.987   5.032  14.302  0.00  0.00    +0.000 OA
ENDBRANCH  29  31
ENDBRANCH  28  29
ENDBRANCH  27  28
ENDBRANCH  17  27
ENDBRANCH   1  20
TORSDOF 8
ENDMDL
