MODEL 1
REMARK VINA RESULT:      -7.8      0.000      0.000
REMARK  Name = 
REMARK  7 active torsions:
REMARK  status: ('A' for Active; 'I' for Inactive)
REMARK    1  A    between atoms: C_1  and  C_2
REMARK    2  A    between atoms: C_2  and  N_3
REMARK    3  A    between atoms: N_3  and  C_4
REMARK    4  A    between atoms: C_4  and  C_5
REMARK    5  A    between atoms: C_10  and  C_11
REMARK    6  A    between atoms: C_15  and  O_16
REMARK    7  A    between atoms: C_17  and  C_19
REMARK                            x       y       z     vdW  Elec       q    Type
REMARK                         _______ _______ _______ _____ _____    ______ ____
ROOT
ATOM      1  C   UNL     1       2.783   5.921  19.231  0.00  0.00    +0.000 A 
ATOM      2  C   UNL     1       2.680   6.973  18.323  0.00  0.00    +0.000 A 
ATOM      3  C   UNL     1       2.049   8.163  18.708  0.00  0.00    +0.000 A 
ATOM      4  C   UNL     1       2.038   9.283  17.862  0.00  0.00    +0.000 A 
ATOM      5  C   UNL     1       1.489  10.486  18.299  0.00  0.00    +0.000 A 
ATOM      6  C   UNL     1       0.923  10.575  19.571  0.00  0.00    +0.000 A 
ATOM      7  C   UNL     1       0.355  11.869  20.073  0.00  0.00    +0.000 C 
ATOM      8  C   UNL     1       0.910   9.439  20.395  0.00  0.00    +0.000 A 
ATOM      9  C   UNL     1       1.470   8.233  19.993  0.00  0.00    +0.000 A 
ATOM     10  N   UNL     1       1.485   7.193  20.844  0.00  0.00    +0.000 NA
ATOM     11  C   UNL     1       2.144   6.092  20.446  0.00  0.00    +0.000 A 
ENDROOT
BRANCH  11  12
ATOM     12  O   UNL     1       2.187   5.132  21.404  0.00  0.00    +0.000 OA
ATOM     13  H   UNL     1       3.030   5.365  21.834  0.00  0.00    +0.000 HD
ENDBRANCH  11  12
BRANCH   1  14
ATOM     14  C   UNL     1       3.700   4.765  18.974  0.00  0.00    +0.000 C 
BRANCH  14  15
ATOM     15  N   UNL     1       3.927   4.289  17.613  0.00  0.00    +0.000 N 
ATOM     16  C   UNL     1       5.116   4.531  16.900  0.00  0.00    +0.000 C 
ATOM     17  O   UNL     1       5.310   4.079  15.770  0.00  0.00    +0.000 OA
BRANCH  16  18
ATOM     18  C   UNL     1       6.187   5.410  17.450  0.00  0.00    +0.000 A 
ATOM     19  C   UNL     1       7.107   5.004  18.416  0.00  0.00    +0.000 A 
ATOM     20  C   UNL     1       8.001   5.940  18.904  0.00  0.00    +0.000 A 
ATOM     21  N   UNL     1       8.084   7.206  18.447  0.00  0.00    +0.000 NA
ATOM     22  C   UNL     1       7.247   7.548  17.444  0.00  0.00    +0.000 A 
ATOM     23  C   UNL     1       6.291   6.699  16.922  0.00  0.00    +0.000 A 
ENDBRANCH  16  18
BRANCH  15  25
ATOM     24  C   UNL     1       2.768   2.116  17.884  0.00  0.00    +0.000 C 
ATOM     25  C   UNL     1       2.983   3.343  17.007  0.00  0.00    +0.000 C 
ENDBRANCH  15  25
ENDBRANCH  14  15
ENDBRANCH   1  14
TORSDOF 5
ENDMDL
MODEL 2
REMARK VINA RESULT:      -7.8      2.453      4.545
REMARK  Name = 
REMARK  7 active torsions:
REMARK  status: ('A' for Active; 'I' for Inactive)
REMARK    1  A    between atoms: C_1  and  C_2
REMARK    2  A    between atoms: C_2  and  N_3
REMARK    3  A    between atoms: N_3  and  C_4
REMARK    4  A    between atoms: C_4  and  C_5
REMARK    5  A    between atoms: C_10  and  C_11
REMARK    6  A    between atoms: C_15  and  O_16
REMARK    7  A    between atoms: C_17  and  C_19
REMARK                            x       y       z     vdW  Elec       q    Type
REMARK                         _______ _______ _______ _____ _____    ______ ____
ROOT
ATOM      1  C   UNL     1       2.039   8.084  18.902  0.00  0.00    +0.000 A 
ATOM      2  C   UNL     1       1.694   7.853  20.233  0.00  0.00    +0.000 A 
ATOM      3  C   UNL     1       1.014   8.842  20.955  0.00  0.00    +0.000 A 
ATOM      4  C   UNL     1       0.543   8.594  22.253  0.00  0.00    +0.000 A 
ATOM      5  C   UNL     1      -0.213   9.555  22.920  0.00  0.00    +0.000 A 
ATOM      6  C   UNL     1      -0.483  10.781  22.308  0.00  0.00    +0.000 A 
ATOM      7  C   UNL     1      -1.321  11.817  22.996  0.00  0.00    +0.000 C 
ATOM      8  C   UNL     1       0.021  11.028  21.022  0.00  0.00    +0.000 A 
ATOM      9  C   UNL     1       0.759  10.079  20.327  0.00  0.00    +0.000 A 
ATOM     10  N   UNL     1       1.168  10.345  19.074  0.00  0.00    +0.000 NA
ATOM     11  C   UNL     1       1.772   9.347  18.407  0.00  0.00    +0.000 A 
ENDROOT
BRANCH  11  12
ATOM     12  O   UNL     1       2.063   9.676  17.123  0.00  0.00    +0.000 OA
ATOM     13  H   UNL     1       2.287  10.617  17.240  0.00  0.00    +0.000 HD
ENDBRANCH  11  12
BRANCH   1  14
ATOM     14  C   UNL     1       2.486   6.964  18.014  0.00  0.00    +0.000 C 
BRANCH  14  15
ATOM     15  N   UNL     1       3.812   6.373  18.178  0.00  0.00    +0.000 N 
ATOM     16  C   UNL     1       4.027   5.118  18.779  0.00  0.00    +0.000 C 
ATOM     17  O   UNL     1       5.148   4.613  18.863  0.00  0.00    +0.000 OA
BRANCH  16  18
ATOM     18  C   UNL     1       2.912   4.357  19.410  0.00  0.00    +0.000 A 
ATOM     19  C   UNL     1       2.605   4.410  20.769  0.00  0.00    +0.000 A 
ATOM     20  C   UNL     1       1.595   3.594  21.246  0.00  0.00    +0.000 A 
ATOM     21  N   UNL     1       0.839   2.801  20.459  0.00  0.00    +0.000 NA
ATOM     22  C   UNL     1       1.091   2.839  19.133  0.00  0.00    +0.000 A 
ATOM     23  C   UNL     1       2.106   3.587  18.568  0.00  0.00    +0.000 A 
ENDBRANCH  16  18
BRANCH  15  25
ATOM     24  C   UNL     1       5.055   6.604  16.048  0.00  0.00    +0.000 C 
ATOM     25  C   UNL     1       4.968   6.990  17.519  0.00  0.00    +0.000 C 
ENDBRANCH  15  25
ENDBRANCH  14  15
ENDBRANCH   1  14
TORSDOF 5
ENDMDL
MODEL 3
REMARK VINA RESULT:      -7.6      0.395      1.037
REMARK  Name = 
REMARK  7 active torsions:
REMARK  status: ('A' for Active; 'I' for Inactive)
REMARK    1  A    between atoms: C_1  and  C_2
REMARK    2  A    between atoms: C_2  and  N_3
REMARK    3  A    between atoms: N_3  and  C_4
REMARK    4  A    between atoms: C_4  and  C_5
REMARK    5  A    between atoms: C_10  and  C_11
REMARK    6  A    between atoms: C_15  and  O_16
REMARK    7  A    between atoms: C_17  and  C_19
REMARK                            x       y       z     vdW  Elec       q    Type
REMARK                         _______ _______ _______ _____ _____    ______ ____
ROOT
ATOM      1  C   UNL     1       2.993   5.605  19.308  0.00  0.00    +0.000 A 
ATOM      2  C   UNL     1       2.906   6.607  18.344  0.00  0.00    +0.000 A 
ATOM      3  C   UNL     1       2.236   7.800  18.640  0.00  0.00    +0.000 A 
ATOM      4  C   UNL     1       2.238   8.875  17.739  0.00  0.00    +0.000 A 
ATOM      5  C   UNL     1       1.647  10.087  18.090  0.00  0.00    +0.000 A 
ATOM      6  C   UNL     1       1.025  10.227  19.332  0.00  0.00    +0.000 A 
ATOM      7  C   UNL     1       0.410  11.532  19.742  0.00  0.00    +0.000 C 
ATOM      8  C   UNL     1       1.001   9.134  20.211  0.00  0.00    +0.000 A 
ATOM      9  C   UNL     1       1.602   7.922  19.895  0.00  0.00    +0.000 A 
ATOM     10  N   UNL     1       1.602   6.927  20.799  0.00  0.00    +0.000 NA
ATOM     11  C   UNL     1       2.300   5.823  20.486  0.00  0.00    +0.000 A 
ENDROOT
BRANCH  11  12
ATOM     12  O   UNL     1       2.322   4.913  21.493  0.00  0.00    +0.000 OA
ATOM     13  H   UNL     1       3.096   4.387  21.223  0.00  0.00    +0.000 HD
ENDBRANCH  11  12
BRANCH   1  14
ATOM     14  C   UNL     1       3.943   4.459  19.149  0.00  0.00    +0.000 C 
BRANCH  14  15
ATOM     15  N   UNL     1       4.231   3.915  17.825  0.00  0.00    +0.000 N 
ATOM     16  C   UNL     1       5.362   4.283  17.070  0.00  0.00    +0.000 C 
ATOM     17  O   UNL     1       5.616   3.776  15.976  0.00  0.00    +0.000 OA
BRANCH  16  18
ATOM     18  C   UNL     1       6.283   5.362  17.527  0.00  0.00    +0.000 A 
ATOM     19  C   UNL     1       6.306   6.646  16.985  0.00  0.00    +0.000 A 
ATOM     20  C   UNL     1       7.264   7.534  17.442  0.00  0.00    +0.000 A 
ATOM     21  N   UNL     1       8.133   7.252  18.434  0.00  0.00    +0.000 NA
ATOM     22  C   UNL     1       8.028   6.035  19.009  0.00  0.00    +0.000 A 
ATOM     23  C   UNL     1       7.135   5.066  18.594  0.00  0.00    +0.000 A 
ENDBRANCH  16  18
BRANCH  15  25
ATOM     24  C   UNL     1       2.537   2.198  18.389  0.00  0.00    +0.000 C 
ATOM     25  C   UNL     1       3.445   2.786  17.316  0.00  0.00    +0.000 C 
ENDBRANCH  15  25
ENDBRANCH  14  15
ENDBRANCH   1  14
TORSDOF 5
ENDMDL
MODEL 4
REMARK VINA RESULT:      -7.6      1.987      2.666
REMARK  Name = 
REMARK  7 active torsions:
REMARK  status: ('A' for Active; 'I' for Inactive)
REMARK    1  A    between atoms: C_1  and  C_2
REMARK    2  A    between atoms: C_2  and  N_3
REMARK    3  A    between atoms: N_3  and  C_4
REMARK    4  A    between atoms: C_4  and  C_5
REMARK    5  A    between atoms: C_10  and  C_11
REMARK    6  A    between atoms: C_15  and  O_16
REMARK    7  A    between atoms: C_17  and  C_19
REMARK                            x       y       z     vdW  Elec       q    Type
REMARK                         _______ _______ _______ _____ _____    ______ ____
ROOT
ATOM      1  C   UNL     1       2.776   7.049  19.258  0.00  0.00    +0.000 A 
ATOM      2  C   UNL     1       1.926   7.632  20.196  0.00  0.00    +0.000 A 
ATOM      3  C   UNL     1       1.195   8.777  19.854  0.00  0.00    +0.000 A 
ATOM      4  C   UNL     1       0.240   9.314  20.730  0.00  0.00    +0.000 A 
ATOM      5  C   UNL     1      -0.544  10.396  20.335  0.00  0.00    +0.000 A 
ATOM      6  C   UNL     1      -0.364  10.966  19.074  0.00  0.00    +0.000 A 
ATOM      7  C   UNL     1      -1.218  12.111  18.617  0.00  0.00    +0.000 C 
ATOM      8  C   UNL     1       0.618  10.440  18.220  0.00  0.00    +0.000 A 
ATOM      9  C   UNL     1       1.398   9.349  18.580  0.00  0.00    +0.000 A 
ATOM     10  N   UNL     1       2.283   8.847  17.701  0.00  0.00    +0.000 NA
ATOM     11  C   UNL     1       2.922   7.721  18.058  0.00  0.00    +0.000 A 
ENDROOT
BRANCH  11  12
ATOM     12  O   UNL     1       3.721   7.237  17.074  0.00  0.00    +0.000 OA
ATOM     13  H   UNL     1       4.308   8.005  16.945  0.00  0.00    +0.000 HD
ENDBRANCH  11  12
BRANCH   1  14
ATOM     14  C   UNL     1       3.335   5.676  19.469  0.00  0.00    +0.000 C 
BRANCH  14  15
ATOM     15  N   UNL     1       2.757   4.527  18.777  0.00  0.00    +0.000 N 
ATOM     16  C   UNL     1       3.484   3.720  17.882  0.00  0.00    +0.000 C 
ATOM     17  O   UNL     1       2.995   2.725  17.346  0.00  0.00    +0.000 OA
BRANCH  16  18
ATOM     18  C   UNL     1       4.877   4.067  17.480  0.00  0.00    +0.000 A 
ATOM     19  C   UNL     1       5.898   4.358  18.385  0.00  0.00    +0.000 A 
ATOM     20  C   UNL     1       7.128   4.744  17.883  0.00  0.00    +0.000 A 
ATOM     21  N   UNL     1       7.420   4.785  16.567  0.00  0.00    +0.000 NA
ATOM     22  C   UNL     1       6.445   4.406  15.714  0.00  0.00    +0.000 A 
ATOM     23  C   UNL     1       5.173   4.048  16.116  0.00  0.00    +0.000 A 
ENDBRANCH  16  18
BRANCH  15  25
ATOM     24  C   UNL     1       1.320   3.806  20.663  0.00  0.00    +0.000 C 
ATOM     25  C   UNL     1       1.427   4.042  19.161  0.00  0.00    +0.000 C 
ENDBRANCH  15  25
ENDBRANCH  14  15
ENDBRANCH   1  14
TORSDOF 5
ENDMDL
MODEL 5
REMARK VINA RESULT:      -7.3      2.057      2.783
REMARK  Name = 
REMARK  7 active torsions:
REMARK  status: ('A' for Active; 'I' for Inactive)
REMARK    1  A    between atoms: C_1  and  C_2
REMARK    2  A    between atoms: C_2  and  N_3
REMARK    3  A    between atoms: N_3  and  C_4
REMARK    4  A    between atoms: C_4  and  C_5
REMARK    5  A    between atoms: C_10  and  C_11
REMARK    6  A    between atoms: C_15  and  O_16
REMARK    7  A    between atoms: C_17  and  C_19
REMARK                            x       y       z     vdW  Elec       q    Type
REMARK                         _______ _______ _______ _____ _____    ______ ____
ROOT
ATOM      1  C   UNL     1       2.432   7.107  18.844  0.00  0.00    +0.000 A 
ATOM      2  C   UNL     1       1.968   7.106  20.159  0.00  0.00    +0.000 A 
ATOM      3  C   UNL     1       1.323   8.240  20.668  0.00  0.00    +0.000 A 
ATOM      4  C   UNL     1       0.735   8.227  21.942  0.00  0.00    +0.000 A 
ATOM      5  C   UNL     1       0.016   9.331  22.394  0.00  0.00    +0.000 A 
ATOM      6  C   UNL     1      -0.101  10.466  21.590  0.00  0.00    +0.000 A 
ATOM      7  C   UNL     1      -0.896  11.654  22.044  0.00  0.00    +0.000 C 
ATOM      8  C   UNL     1       0.520  10.479  20.331  0.00  0.00    +0.000 A 
ATOM      9  C   UNL     1       1.224   9.384  19.847  0.00  0.00    +0.000 A 
ATOM     10  N   UNL     1       1.748   9.426  18.610  0.00  0.00    +0.000 NA
ATOM     11  C   UNL     1       2.313   8.298  18.150  0.00  0.00    +0.000 A 
ENDROOT
BRANCH  11  12
ATOM     12  O   UNL     1       2.728   8.406  16.863  0.00  0.00    +0.000 OA
ATOM     13  H   UNL     1       2.254   9.216  16.604  0.00  0.00    +0.000 HD
ENDBRANCH  11  12
BRANCH   1  14
ATOM     14  C   UNL     1       2.847   5.836  18.170  0.00  0.00    +0.000 C 
BRANCH  14  15
ATOM     15  N   UNL     1       3.364   4.717  18.954  0.00  0.00    +0.000 N 
ATOM     16  C   UNL     1       4.708   4.299  18.907  0.00  0.00    +0.000 C 
ATOM     17  O   UNL     1       5.138   3.385  19.613  0.00  0.00    +0.000 OA
BRANCH  16  18
ATOM     18  C   UNL     1       5.674   4.898  17.943  0.00  0.00    +0.000 A 
ATOM     19  C   UNL     1       6.469   6.008  18.227  0.00  0.00    +0.000 A 
ATOM     20  C   UNL     1       7.269   6.518  17.220  0.00  0.00    +0.000 A 
ATOM     21  N   UNL     1       7.379   5.959  15.998  0.00  0.00    +0.000 NA
ATOM     22  C   UNL     1       6.674   4.830  15.777  0.00  0.00    +0.000 A 
ATOM     23  C   UNL     1       5.815   4.270  16.704  0.00  0.00    +0.000 A 
ENDBRANCH  16  18
BRANCH  15  25
ATOM     24  C   UNL     1       1.283   3.454  19.416  0.00  0.00    +0.000 C 
ATOM     25  C   UNL     1       2.528   4.114  19.997  0.00  0.00    +0.000 C 
ENDBRANCH  15  25
ENDBRANCH  14  15
ENDBRANCH   1  14
TORSDOF 5
ENDMDL
MODEL 6
REMARK VINA RESULT:      -7.2      2.428      6.563
REMARK  Name = 
REMARK  7 active torsions:
REMARK  status: ('A' for Active; 'I' for Inactive)
REMARK    1  A    between atoms: C_1  and  C_2
REMARK    2  A    between atoms: C_2  and  N_3
REMARK    3  A    between atoms: N_3  and  C_4
REMARK    4  A    between atoms: C_4  and  C_5
REMARK    5  A    between atoms: C_10  and  C_11
REMARK    6  A    between atoms: C_15  and  O_16
REMARK    7  A    between atoms: C_17  and  C_19
REMARK                            x       y       z     vdW  Elec       q    Type
REMARK                         _______ _______ _______ _____ _____    ______ ____
ROOT
ATOM      1  C   UNL     1       5.657   4.737  17.977  0.00  0.00    +0.000 A 
ATOM      2  C   UNL     1       4.850   4.606  16.849  0.00  0.00    +0.000 A 
ATOM      3  C   UNL     1       5.439   4.507  15.582  0.00  0.00    +0.000 A 
ATOM      4  C   UNL     1       4.664   4.249  14.442  0.00  0.00    +0.000 A 
ATOM      5  C   UNL     1       5.276   4.061  13.205  0.00  0.00    +0.000 A 
ATOM      6  C   UNL     1       6.664   4.154  13.091  0.00  0.00    +0.000 A 
ATOM      7  C   UNL     1       7.346   3.923  11.775  0.00  0.00    +0.000 C 
ATOM      8  C   UNL     1       7.426   4.445  14.233  0.00  0.00    +0.000 A 
ATOM      9  C   UNL     1       6.842   4.616  15.482  0.00  0.00    +0.000 A 
ATOM     10  N   UNL     1       7.624   4.833  16.554  0.00  0.00    +0.000 NA
ATOM     11  C   UNL     1       7.015   4.871  17.751  0.00  0.00    +0.000 A 
ENDROOT
BRANCH  11  12
ATOM     12  O   UNL     1       7.890   5.000  18.780  0.00  0.00    +0.000 OA
ATOM     13  H   UNL     1       8.517   4.289  18.553  0.00  0.00    +0.000 HD
ENDBRANCH  11  12
BRANCH   1  14
ATOM     14  C   UNL     1       5.100   4.542  19.354  0.00  0.00    +0.000 C 
BRANCH  14  15
ATOM     15  N   UNL     1       3.918   3.710  19.562  0.00  0.00    +0.000 N 
ATOM     16  C   UNL     1       2.604   4.215  19.529  0.00  0.00    +0.000 C 
ATOM     17  O   UNL     1       1.616   3.489  19.657  0.00  0.00    +0.000 OA
BRANCH  16  18
ATOM     18  C   UNL     1       2.336   5.676  19.404  0.00  0.00    +0.000 A 
ATOM     19  C   UNL     1       2.422   6.383  18.205  0.00  0.00    +0.000 A 
ATOM     20  C   UNL     1       2.227   7.752  18.235  0.00  0.00    +0.000 A 
ATOM     21  N   UNL     1       1.889   8.435  19.348  0.00  0.00    +0.000 NA
ATOM     22  C   UNL     1       1.717   7.716  20.477  0.00  0.00    +0.000 A 
ATOM     23  C   UNL     1       1.931   6.353  20.556  0.00  0.00    +0.000 A 
ENDBRANCH  16  18
BRANCH  15  25
ATOM     24  C   UNL     1       3.640   1.601  18.291  0.00  0.00    +0.000 C 
ATOM     25  C   UNL     1       4.056   2.250  19.605  0.00  0.00    +0.000 C 
ENDBRANCH  15  25
ENDBRANCH  14  15
ENDBRANCH   1  14
TORSDOF 5
ENDMDL
MODEL 7
REMARK VINA RESULT:      -7.2      2.202      3.165
REMARK  Name = 
REMARK  7 active torsions:
REMARK  status: ('A' for Active; 'I' for Inactive)
REMARK    1  A    between atoms: C_1  and  C_2
REMARK    2  A    between atoms: C_2  and  N_3
REMARK    3  A    between atoms: N_3  and  C_4
REMARK    4  A    between atoms: C_4  and  C_5
REMARK    5  A    between atoms: C_10  and  C_11
REMARK    6  A    between atoms: C_15  and  O_16
REMARK    7  A    between atoms: C_17  and  C_19
REMARK                            x       y       z     vdW  Elec       q    Type
REMARK                         _______ _______ _______ _____ _____    ______ ____
ROOT
ATOM      1  C   UNL     1       2.107   7.782  19.176  0.00  0.00    +0.000 A 
ATOM      2  C   UNL     1       1.761   7.724  20.524  0.00  0.00    +0.000 A 
ATOM      3  C   UNL     1       1.057   8.785  21.108  0.00  0.00    +0.000 A 
ATOM      4  C   UNL     1       0.586   8.702  22.427  0.00  0.00    +0.000 A 
ATOM      5  C   UNL     1      -0.193   9.728  22.958  0.00  0.00    +0.000 A 
ATOM      6  C   UNL     1      -0.486  10.854  22.188  0.00  0.00    +0.000 A 
ATOM      7  C   UNL     1      -1.349  11.955  22.730  0.00  0.00    +0.000 C 
ATOM      8  C   UNL     1       0.019  10.939  20.882  0.00  0.00    +0.000 A 
ATOM      9  C   UNL     1       0.780   9.922  20.320  0.00  0.00    +0.000 A 
ATOM     10  N   UNL     1       1.188  10.027  19.043  0.00  0.00    +0.000 NA
ATOM     11  C   UNL     1       1.816   8.963  18.516  0.00  0.00    +0.000 A 
ENDROOT
BRANCH  11  12
ATOM     12  O   UNL     1       2.106   9.124  17.201  0.00  0.00    +0.000 OA
ATOM     13  H   UNL     1       1.254   8.857  16.810  0.00  0.00    +0.000 HD
ENDBRANCH  11  12
BRANCH   1  14
ATOM     14  C   UNL     1       2.581   6.564  18.445  0.00  0.00    +0.000 C 
BRANCH  14  15
ATOM     15  N   UNL     1       3.013   5.380  19.183  0.00  0.00    +0.000 N 
ATOM     16  C   UNL     1       4.257   4.755  18.978  0.00  0.00    +0.000 C 
ATOM     17  O   UNL     1       4.626   3.787  19.645  0.00  0.00    +0.000 OA
BRANCH  16  18
ATOM     18  C   UNL     1       5.176   5.192  17.888  0.00  0.00    +0.000 A 
ATOM     19  C   UNL     1       4.958   4.931  16.536  0.00  0.00    +0.000 A 
ATOM     20  C   UNL     1       5.926   5.321  15.628  0.00  0.00    +0.000 A 
ATOM     21  N   UNL     1       7.038   6.005  15.968  0.00  0.00    +0.000 NA
ATOM     22  C   UNL     1       7.180   6.331  17.270  0.00  0.00    +0.000 A 
ATOM     23  C   UNL     1       6.291   5.949  18.256  0.00  0.00    +0.000 A 
ENDBRANCH  16  18
BRANCH  15  25
ATOM     24  C   UNL     1       1.085   4.007  19.917  0.00  0.00    +0.000 C 
ATOM     25  C   UNL     1       2.232   4.918  20.336  0.00  0.00    +0.000 C 
ENDBRANCH  15  25
ENDBRANCH  14  15
ENDBRANCH   1  14
TORSDOF 5
ENDMDL
MODEL 8
REMARK VINA RESULT:      -7.1      1.510      1.837
REMARK  Name = 
REMARK  7 active torsions:
REMARK  status: ('A' for Active; 'I' for Inactive)
REMARK    1  A    between atoms: C_1  and  C_2
REMARK    2  A    between atoms: C_2  and  N_3
REMARK    3  A    between atoms: N_3  and  C_4
REMARK    4  A    between atoms: C_4  and  C_5
REMARK    5  A    between atoms: C_10  and  C_11
REMARK    6  A    between atoms: C_15  and  O_16
REMARK    7  A    between atoms: C_17  and  C_19
REMARK                            x       y       z     vdW  Elec       q    Type
REMARK                         _______ _______ _______ _____ _____    ______ ____
ROOT
ATOM      1  C   UNL     1       2.401   7.004  19.067  0.00  0.00    +0.000 A 
ATOM      2  C   UNL     1       2.084   8.131  18.311  0.00  0.00    +0.000 A 
ATOM      3  C   UNL     1       1.447   9.219  18.921  0.00  0.00    +0.000 A 
ATOM      4  C   UNL     1       1.226  10.415  18.221  0.00  0.00    +0.000 A 
ATOM      5  C   UNL     1       0.678  11.518  18.871  0.00  0.00    +0.000 A 
ATOM      6  C   UNL     1       0.320  11.429  20.217  0.00  0.00    +0.000 A 
ATOM      7  C   UNL     1      -0.243  12.614  20.944  0.00  0.00    +0.000 C 
ATOM      8  C   UNL     1       0.516  10.218  20.898  0.00  0.00    +0.000 A 
ATOM      9  C   UNL     1       1.081   9.110  20.279  0.00  0.00    +0.000 A 
ATOM     10  N   UNL     1       1.301   7.993  20.994  0.00  0.00    +0.000 NA
ATOM     11  C   UNL     1       1.958   6.996  20.377  0.00  0.00    +0.000 A 
ENDROOT
BRANCH  11  12
ATOM     12  O   UNL     1       2.218   5.951  21.201  0.00  0.00    +0.000 OA
ATOM     13  H   UNL     1       2.996   5.574  20.751  0.00  0.00    +0.000 HD
ENDBRANCH  11  12
BRANCH   1  14
ATOM     14  C   UNL     1       3.338   5.960  18.542  0.00  0.00    +0.000 C 
BRANCH  14  15
ATOM     15  N   UNL     1       2.820   4.769  17.875  0.00  0.00    +0.000 N 
ATOM     16  C   UNL     1       3.636   3.864  17.170  0.00  0.00    +0.000 C 
ATOM     17  O   UNL     1       3.188   2.837  16.656  0.00  0.00    +0.000 OA
BRANCH  16  18
ATOM     18  C   UNL     1       5.085   4.135  16.947  0.00  0.00    +0.000 A 
ATOM     19  C   UNL     1       6.013   4.294  17.975  0.00  0.00    +0.000 A 
ATOM     20  C   UNL     1       7.314   4.622  17.639  0.00  0.00    +0.000 A 
ATOM     21  N   UNL     1       7.755   4.726  16.369  0.00  0.00    +0.000 NA
ATOM     22  C   UNL     1       6.861   4.473  15.390  0.00  0.00    +0.000 A 
ATOM     23  C   UNL     1       5.531   4.182  15.625  0.00  0.00    +0.000 A 
ENDBRANCH  16  18
BRANCH  15  25
ATOM     24  C   UNL     1       1.309   3.384  19.268  0.00  0.00    +0.000 C 
ATOM     25  C   UNL     1       1.430   4.357  18.101  0.00  0.00    +0.000 C 
ENDBRANCH  15  25
ENDBRANCH  14  15
ENDBRANCH   1  14
TORSDOF 5
ENDMDL
MODEL 9
REMARK VINA RESULT:      -7.1      2.170      4.471
REMARK  Name = 
REMARK  7 active torsions:
REMARK  status: ('A' for Active; 'I' for Inactive)
REMARK    1  A    between atoms: C_1  and  C_2
REMARK    2  A    between atoms: C_2  and  N_3
REMARK    3  A    between atoms: N_3  and  C_4
REMARK    4  A    between atoms: C_4  and  C_5
REMARK    5  A    between atoms: C_10  and  C_11
REMARK    6  A    between atoms: C_15  and  O_16
REMARK    7  A    between atoms: C_17  and  C_19
REMARK                            x       y       z     vdW  Elec       q    Type
REMARK                         _______ _______ _______ _____ _____    ______ ____
ROOT
ATOM      1  C   UNL     1       3.281   6.640  18.325  0.00  0.00    +0.000 A 
ATOM      2  C   UNL     1       2.664   6.655  19.575  0.00  0.00    +0.000 A 
ATOM      3  C   UNL     1       1.874   7.750  19.945  0.00  0.00    +0.000 A 
ATOM      4  C   UNL     1       1.140   7.741  21.141  0.00  0.00    +0.000 A 
ATOM      5  C   UNL     1       0.285   8.798  21.448  0.00  0.00    +0.000 A 
ATOM      6  C   UNL     1       0.176   9.883  20.577  0.00  0.00    +0.000 A 
ATOM      7  C   UNL     1      -0.761  11.016  20.873  0.00  0.00    +0.000 C 
ATOM      8  C   UNL     1       0.940   9.895  19.400  0.00  0.00    +0.000 A 
ATOM      9  C   UNL     1       1.783   8.845  19.060  0.00  0.00    +0.000 A 
ATOM     10  N   UNL     1       2.446   8.880  17.891  0.00  0.00    +0.000 NA
ATOM     11  C   UNL     1       3.152   7.785  17.561  0.00  0.00    +0.000 A 
ENDROOT
BRANCH  11  12
ATOM     12  O   UNL     1       3.708   7.873  16.326  0.00  0.00    +0.000 OA
ATOM     13  H   UNL     1       3.808   8.840  16.259  0.00  0.00    +0.000 HD
ENDBRANCH  11  12
BRANCH   1  14
ATOM     14  C   UNL     1       3.875   5.381  17.772  0.00  0.00    +0.000 C 
BRANCH  14  15
ATOM     15  N   UNL     1       4.808   4.591  18.569  0.00  0.00    +0.000 N 
ATOM     16  C   UNL     1       4.421   3.460  19.313  0.00  0.00    +0.000 C 
ATOM     17  O   UNL     1       5.232   2.775  19.940  0.00  0.00    +0.000 OA
BRANCH  16  18
ATOM     18  C   UNL     1       2.989   3.067  19.439  0.00  0.00    +0.000 A 
ATOM     19  C   UNL     1       2.259   2.451  18.423  0.00  0.00    +0.000 A 
ATOM     20  C   UNL     1       0.914   2.209  18.637  0.00  0.00    +0.000 A 
ATOM     21  N   UNL     1       0.282   2.468  19.800  0.00  0.00    +0.000 NA
ATOM     22  C   UNL     1       1.032   2.974  20.802  0.00  0.00    +0.000 A 
ATOM     23  C   UNL     1       2.370   3.291  20.671  0.00  0.00    +0.000 A 
ENDBRANCH  16  18
BRANCH  15  25
ATOM     24  C   UNL     1       6.736   4.670  17.013  0.00  0.00    +0.000 C 
ATOM     25  C   UNL     1       6.250   4.831  18.449  0.00  0.00    +0.000 C 
ENDBRANCH  15  25
ENDBRANCH  14  15
ENDBRANCH   1  14
TORSDOF 5
ENDMDL
