MODEL 1
REMARK VINA RESULT:      -7.6      0.000      0.000
REMARK  Name = 
REMARK  14 active torsions:
REMARK  status: ('A' for Active; 'I' for Inactive)
REMARK    1  A    between atoms: C_1  and  O_2
REMARK    2  A    between atoms: O_2  and  C_3
REMARK    3  A    between atoms: N_8  and  C_9
REMARK    4  A    between atoms: N_8  and  C_10
REMARK    5  A    between atoms: C_10  and  C_11
REMARK    6  A    between atoms: C_11  and  C_12
REMARK    7  A    between atoms: C_12  and  N_13
REMARK    8  A    between atoms: N_13  and  C_14
REMARK    9  A    between atoms: C_14  and  C_15
REMARK   10  A    between atoms: C_15  and  C_16
REMARK   11  A    between atoms: C_15  and  C_17
REMARK   12  A    between atoms: C_18  and  C_20
REMARK   13  A    between atoms: C_31  and  O_32
REMARK   14  A    between atoms: O_32  and  C_33
REMARK                            x       y       z     vdW  Elec       q    Type
REMARK                         _______ _______ _______ _____ _____    ______ ____
ROOT
ATOM      1  C   UNL     1       6.108   6.166  16.821  0.00  0.00    +0.000 A 
ATOM      2  C   UNL     1       5.015   6.233  17.693  0.00  0.00    +0.000 A 
ATOM      3  C   UNL     1       4.292   5.114  18.053  0.00  0.00    +0.000 A 
ATOM      4  N   UNL     1       3.308   5.237  18.946  0.00  0.00    +0.000 NA
ATOM      5  C   UNL     1       2.609   4.155  19.306  0.00  0.00    +0.000 A 
ATOM      6  N   UNL     1       1.570   4.305  20.221  0.00  0.00    +0.000 N 
ATOM      7  C   UNL     1       0.987   3.063  20.697  0.00  0.00    +0.000 C 
ATOM      8  N   UNL     1       2.873   2.934  18.799  0.00  0.00    +0.000 NA
ATOM      9  C   UNL     1       3.856   2.814  17.903  0.00  0.00    +0.000 A 
ATOM     10  N   UNL     1       4.095   1.509  17.446  0.00  0.00    +0.000 N 
ATOM     11  C   UNL     1       4.632   3.889  17.479  0.00  0.00    +0.000 A 
ATOM     12  C   UNL     1       5.708   3.808  16.559  0.00  0.00    +0.000 A 
ATOM     13  C   UNL     1       6.449   4.942  16.225  0.00  0.00    +0.000 A 
ATOM     14  H   UNL     1       3.376   0.922  17.865  0.00  0.00    +0.000 HD
ATOM     15  H   UNL     1       4.067   1.463  16.433  0.00  0.00    +0.000 HD
ENDROOT
BRANCH   1  17
ATOM     16  C   UNL     1       7.613   7.811  17.593  0.00  0.00    +0.000 C 
ATOM     17  O   UNL     1       6.867   7.268  16.503  0.00  0.00    +0.000 OA
ENDBRANCH   1  17
BRANCH  13  18
ATOM     18  O   UNL     1       7.516   4.934  15.363  0.00  0.00    +0.000 OA
ATOM     19  C   UNL     1       7.224   4.814  13.974  0.00  0.00    +0.000 C 
ENDBRANCH  13  18
BRANCH   6  20
ATOM     20  C   UNL     1       1.727   5.395  21.186  0.00  0.00    +0.000 C 
BRANCH  20  21
ATOM     21  C   UNL     1       1.079   6.702  20.714  0.00  0.00    +0.000 C 
BRANCH  21  22
ATOM     22  C   UNL     1       2.083   7.732  20.167  0.00  0.00    +0.000 C 
BRANCH  22  23
ATOM     23  N   UNL     1       1.541   9.112  20.170  0.00  0.00    +0.000 N 
ATOM     24  C   UNL     1       1.184   9.625  18.895  0.00  0.00    +0.000 C 
ATOM     25  O   UNL     1       1.320   8.952  17.868  0.00  0.00    +0.000 OA
BRANCH  24  26
ATOM     26  C   UNL     1       0.566  10.977  18.706  0.00  0.00    +0.000 A 
ATOM     27  C   UNL     1       1.264  12.188  18.758  0.00  0.00    +0.000 A 
ATOM     28  C   UNL     1       0.593  13.409  18.641  0.00  0.00    +0.000 A 
ATOM     29  C   UNL     1      -0.770  13.433  18.368  0.00  0.00    +0.000 A 
ATOM     30  C   UNL     1      -1.462  12.235  18.206  0.00  0.00    +0.000 A 
ATOM     31  C   UNL     1      -0.802  11.018  18.388  0.00  0.00    +0.000 A 
ENDBRANCH  24  26
BRANCH  23  32
ATOM     32  C   UNL     1       1.181   9.802  21.421  0.00  0.00    +0.000 C 
BRANCH  32  33
ATOM     33  C   UNL     1      -0.273   9.929  21.904  0.00  0.00    +0.000 C 
ATOM     34  C   UNL     1      -0.470   9.301  23.287  0.00  0.00    +0.000 C 
ATOM     35  C   UNL     1      -0.634  11.425  22.017  0.00  0.00    +0.000 C 
ENDBRANCH  32  33
ENDBRANCH  23  32
ENDBRANCH  22  23
ENDBRANCH  21  22
ENDBRANCH  20  21
ENDBRANCH   6  20
TORSDOF 9
ENDMDL
MODEL 2
REMARK VINA RESULT:      -7.3      1.625      2.613
REMARK  Name = 
REMARK  14 active torsions:
REMARK  status: ('A' for Active; 'I' for Inactive)
REMARK    1  A    between atoms: C_1  and  O_2
REMARK    2  A    between atoms: O_2  and  C_3
REMARK    3  A    between atoms: N_8  and  C_9
REMARK    4  A    between atoms: N_8  and  C_10
REMARK    5  A    between atoms: C_10  and  C_11
REMARK    6  A    between atoms: C_11  and  C_12
REMARK    7  A    between atoms: C_12  and  N_13
REMARK    8  A    between atoms: N_13  and  C_14
REMARK    9  A    between atoms: C_14  and  C_15
REMARK   10  A    between atoms: C_15  and  C_16
REMARK   11  A    between atoms: C_15  and  C_17
REMARK   12  A    between atoms: C_18  and  C_20
REMARK   13  A    between atoms: C_31  and  O_32
REMARK   14  A    between atoms: O_32  and  C_33
REMARK                            x       y       z     vdW  Elec       q    Type
REMARK                         _______ _______ _______ _____ _____    ______ ____
ROOT
ATOM      1  C   UNL     1       6.429   6.282  16.846  0.00  0.00    +0.000 A 
ATOM      2  C   UNL     1       5.311   6.529  17.651  0.00  0.00    +0.000 A 
ATOM      3  C   UNL     1       4.438   5.528  18.023  0.00  0.00    +0.000 A 
ATOM      4  N   UNL     1       3.433   5.819  18.852  0.00  0.00    +0.000 NA
ATOM      5  C   UNL     1       2.588   4.851  19.224  0.00  0.00    +0.000 A 
ATOM      6  N   UNL     1       1.530   5.178  20.070  0.00  0.00    +0.000 N 
ATOM      7  C   UNL     1       0.774   4.043  20.573  0.00  0.00    +0.000 C 
ATOM      8  N   UNL     1       2.723   3.582  18.794  0.00  0.00    +0.000 NA
ATOM      9  C   UNL     1       3.728   3.293  17.963  0.00  0.00    +0.000 A 
ATOM     10  N   UNL     1       3.827   1.946  17.586  0.00  0.00    +0.000 N 
ATOM     11  C   UNL     1       4.652   4.240  17.532  0.00  0.00    +0.000 A 
ATOM     12  C   UNL     1       5.754   3.979  16.679  0.00  0.00    +0.000 A 
ATOM     13  C   UNL     1       6.646   4.994  16.333  0.00  0.00    +0.000 A 
ATOM     14  H   UNL     1       3.020   1.474  17.992  0.00  0.00    +0.000 HD
ATOM     15  H   UNL     1       3.845   1.846  16.577  0.00  0.00    +0.000 HD
ENDROOT
BRANCH   1  17
ATOM     16  C   UNL     1       7.742   8.087  17.612  0.00  0.00    +0.000 C 
ATOM     17  O   UNL     1       7.335   7.265  16.518  0.00  0.00    +0.000 OA
ENDBRANCH   1  17
BRANCH  13  18
ATOM     18  O   UNL     1       7.746   4.809  15.534  0.00  0.00    +0.000 OA
ATOM     19  C   UNL     1       7.545   4.890  14.126  0.00  0.00    +0.000 C 
ENDBRANCH  13  18
BRANCH   6  20
ATOM     20  C   UNL     1       1.772   6.293  20.987  0.00  0.00    +0.000 C 
BRANCH  20  21
ATOM     21  C   UNL     1       0.610   7.294  21.022  0.00  0.00    +0.000 C 
BRANCH  21  22
ATOM     22  C   UNL     1       0.920   8.578  21.811  0.00  0.00    +0.000 C 
BRANCH  22  23
ATOM     23  N   UNL     1       0.227   9.766  21.258  0.00  0.00    +0.000 N 
ATOM     24  C   UNL     1      -0.267  10.682  22.223  0.00  0.00    +0.000 C 
ATOM     25  O   UNL     1      -0.118  10.487  23.433  0.00  0.00    +0.000 OA
BRANCH  24  26
ATOM     26  C   UNL     1      -0.943  11.968  21.852  0.00  0.00    +0.000 A 
ATOM     27  C   UNL     1      -2.318  12.116  21.643  0.00  0.00    +0.000 A 
ATOM     28  C   UNL     1      -2.853  13.340  21.229  0.00  0.00    +0.000 A 
ATOM     29  C   UNL     1      -2.034  14.459  21.119  0.00  0.00    +0.000 A 
ATOM     30  C   UNL     1      -0.680  14.355  21.428  0.00  0.00    +0.000 A 
ATOM     31  C   UNL     1      -0.137  13.117  21.777  0.00  0.00    +0.000 A 
ENDBRANCH  24  26
BRANCH  23  32
ATOM     32  C   UNL     1       0.262  10.085  19.819  0.00  0.00    +0.000 C 
BRANCH  32  33
ATOM     33  C   UNL     1       1.565  10.431  19.082  0.00  0.00    +0.000 C 
ATOM     34  C   UNL     1       1.769   9.552  17.844  0.00  0.00    +0.000 C 
ATOM     35  C   UNL     1       1.497  11.896  18.606  0.00  0.00    +0.000 C 
ENDBRANCH  32  33
ENDBRANCH  23  32
ENDBRANCH  22  23
ENDBRANCH  21  22
ENDBRANCH  20  21
ENDBRANCH   6  20
TORSDOF 9
ENDMDL
MODEL 3
REMARK VINA RESULT:      -7.2      2.645      9.238
REMARK  Name = 
REMARK  14 active torsions:
REMARK  status: ('A' for Active; 'I' for Inactive)
REMARK    1  A    between atoms: C_1  and  O_2
REMARK    2  A    between atoms: O_2  and  C_3
REMARK    3  A    between atoms: N_8  and  C_9
REMARK    4  A    between atoms: N_8  and  C_10
REMARK    5  A    between atoms: C_10  and  C_11
REMARK    6  A    between atoms: C_11  and  C_12
REMARK    7  A    between atoms: C_12  and  N_13
REMARK    8  A    between atoms: N_13  and  C_14
REMARK    9  A    between atoms: C_14  and  C_15
REMARK   10  A    between atoms: C_15  and  C_16
REMARK   11  A    between atoms: C_15  and  C_17
REMARK   12  A    between atoms: C_18  and  C_20
REMARK   13  A    between atoms: C_31  and  O_32
REMARK   14  A    between atoms: O_32  and  C_33
REMARK                            x       y       z     vdW  Elec       q    Type
REMARK                         _______ _______ _______ _____ _____    ______ ____
ROOT
ATOM      1  C   UNL     1      -3.184  10.408  16.929  0.00  0.00    +0.000 A 
ATOM      2  C   UNL     1      -2.116   9.800  17.598  0.00  0.00    +0.000 A 
ATOM      3  C   UNL     1      -1.631  10.280  18.797  0.00  0.00    +0.000 A 
ATOM      4  N   UNL     1      -0.659   9.609  19.419  0.00  0.00    +0.000 NA
ATOM      5  C   UNL     1      -0.191  10.064  20.587  0.00  0.00    +0.000 A 
ATOM      6  N   UNL     1       0.841   9.365  21.210  0.00  0.00    +0.000 N 
ATOM      7  C   UNL     1       1.162   9.815  22.553  0.00  0.00    +0.000 C 
ATOM      8  N   UNL     1      -0.677  11.180  21.164  0.00  0.00    +0.000 NA
ATOM      9  C   UNL     1      -1.648  11.851  20.539  0.00  0.00    +0.000 A 
ATOM     10  N   UNL     1      -2.127  12.982  21.216  0.00  0.00    +0.000 N 
ATOM     11  C   UNL     1      -2.192  11.443  19.325  0.00  0.00    +0.000 A 
ATOM     12  C   UNL     1      -3.245  12.099  18.639  0.00  0.00    +0.000 A 
ATOM     13  C   UNL     1      -3.745  11.588  17.441  0.00  0.00    +0.000 A 
ATOM     14  H   UNL     1      -1.544  13.090  22.044  0.00  0.00    +0.000 HD
ATOM     15  H   UNL     1      -2.090  13.807  20.627  0.00  0.00    +0.000 HD
ENDROOT
BRANCH   1  17
ATOM     16  C   UNL     1      -2.952  10.203  14.589  0.00  0.00    +0.000 C 
ATOM     17  O   UNL     1      -3.709   9.902  15.762  0.00  0.00    +0.000 OA
ENDBRANCH   1  17
BRANCH  13  18
ATOM     18  O   UNL     1      -4.777  12.155  16.736  0.00  0.00    +0.000 OA
ATOM     19  C   UNL     1      -6.058  12.165  17.360  0.00  0.00    +0.000 C 
ENDBRANCH  13  18
BRANCH   6  20
ATOM     20  C   UNL     1       0.880   7.925  20.948  0.00  0.00    +0.000 C 
BRANCH  20  21
ATOM     21  C   UNL     1       2.167   7.488  20.236  0.00  0.00    +0.000 C 
BRANCH  21  22
ATOM     22  C   UNL     1       1.958   7.088  18.765  0.00  0.00    +0.000 C 
BRANCH  22  23
ATOM     23  N   UNL     1       2.952   6.092  18.300  0.00  0.00    +0.000 N 
ATOM     24  C   UNL     1       4.055   6.626  17.583  0.00  0.00    +0.000 C 
ATOM     25  O   UNL     1       4.163   7.838  17.376  0.00  0.00    +0.000 OA
BRANCH  24  26
ATOM     26  C   UNL     1       5.188   5.780  17.086  0.00  0.00    +0.000 A 
ATOM     27  C   UNL     1       6.268   5.354  17.866  0.00  0.00    +0.000 A 
ATOM     28  C   UNL     1       7.319   4.626  17.300  0.00  0.00    +0.000 A 
ATOM     29  C   UNL     1       7.254   4.225  15.970  0.00  0.00    +0.000 A 
ATOM     30  C   UNL     1       6.135   4.548  15.206  0.00  0.00    +0.000 A 
ATOM     31  C   UNL     1       5.117   5.332  15.756  0.00  0.00    +0.000 A 
ENDBRANCH  24  26
BRANCH  23  32
ATOM     32  C   UNL     1       2.916   4.689  18.752  0.00  0.00    +0.000 C 
BRANCH  32  33
ATOM     33  C   UNL     1       2.348   3.556  17.883  0.00  0.00    +0.000 C 
ATOM     34  C   UNL     1       3.381   2.452  17.642  0.00  0.00    +0.000 C 
ATOM     35  C   UNL     1       1.148   2.919  18.613  0.00  0.00    +0.000 C 
ENDBRANCH  32  33
ENDBRANCH  23  32
ENDBRANCH  22  23
ENDBRANCH  21  22
ENDBRANCH  20  21
ENDBRANCH   6  20
TORSDOF 9
ENDMDL
MODEL 4
REMARK VINA RESULT:      -7.2      2.620      8.987
REMARK  Name = 
REMARK  14 active torsions:
REMARK  status: ('A' for Active; 'I' for Inactive)
REMARK    1  A    between atoms: C_1  and  O_2
REMARK    2  A    between atoms: O_2  and  C_3
REMARK    3  A    between atoms: N_8  and  C_9
REMARK    4  A    between atoms: N_8  and  C_10
REMARK    5  A    between atoms: C_10  and  C_11
REMARK    6  A    between atoms: C_11  and  C_12
REMARK    7  A    between atoms: C_12  and  N_13
REMARK    8  A    between atoms: N_13  and  C_14
REMARK    9  A    between atoms: C_14  and  C_15
REMARK   10  A    between atoms: C_15  and  C_16
REMARK   11  A    between atoms: C_15  and  C_17
REMARK   12  A    between atoms: C_18  and  C_20
REMARK   13  A    between atoms: C_31  and  O_32
REMARK   14  A    between atoms: O_32  and  C_33
REMARK                            x       y       z     vdW  Elec       q    Type
REMARK                         _______ _______ _______ _____ _____    ______ ____
ROOT
ATOM      1  C   UNL     1      -3.083  10.385  16.531  0.00  0.00    +0.000 A 
ATOM      2  C   UNL     1      -1.898   9.786  16.972  0.00  0.00    +0.000 A 
ATOM      3  C   UNL     1      -1.327  10.094  18.189  0.00  0.00    +0.000 A 
ATOM      4  N   UNL     1      -0.236   9.432  18.581  0.00  0.00    +0.000 NA
ATOM      5  C   UNL     1       0.317   9.721  19.765  0.00  0.00    +0.000 A 
ATOM      6  N   UNL     1       1.469   9.038  20.147  0.00  0.00    +0.000 N 
ATOM      7  C   UNL     1       1.896   9.273  21.515  0.00  0.00    +0.000 C 
ATOM      8  N   UNL     1      -0.199  10.658  20.584  0.00  0.00    +0.000 NA
ATOM      9  C   UNL     1      -1.290  11.320  20.189  0.00  0.00    +0.000 A 
ATOM     10  N   UNL     1      -1.789  12.254  21.108  0.00  0.00    +0.000 N 
ATOM     11  C   UNL     1      -1.927  11.078  18.976  0.00  0.00    +0.000 A 
ATOM     12  C   UNL     1      -3.104  11.729  18.526  0.00  0.00    +0.000 A 
ATOM     13  C   UNL     1      -3.686  11.387  17.305  0.00  0.00    +0.000 A 
ATOM     14  H   UNL     1      -1.130  12.276  21.884  0.00  0.00    +0.000 HD
ATOM     15  H   UNL     1      -1.891  13.170  20.684  0.00  0.00    +0.000 HD
ENDROOT
BRANCH   1  17
ATOM     16  C   UNL     1      -2.852  10.169  14.192  0.00  0.00    +0.000 C 
ATOM     17  O   UNL     1      -3.687  10.040  15.343  0.00  0.00    +0.000 OA
ENDBRANCH   1  17
BRANCH  13  18
ATOM     18  O   UNL     1      -4.837  11.956  16.819  0.00  0.00    +0.000 OA
ATOM     19  C   UNL     1      -5.967  11.974  17.686  0.00  0.00    +0.000 C 
ENDBRANCH  13  18
BRANCH   6  20
ATOM     20  C   UNL     1       1.607   7.680  19.617  0.00  0.00    +0.000 C 
BRANCH  20  21
ATOM     21  C   UNL     1       1.488   6.605  20.704  0.00  0.00    +0.000 C 
BRANCH  21  22
ATOM     22  C   UNL     1       2.424   5.402  20.494  0.00  0.00    +0.000 C 
BRANCH  22  23
ATOM     23  N   UNL     1       2.817   5.229  19.075  0.00  0.00    +0.000 N 
ATOM     24  C   UNL     1       4.184   5.488  18.789  0.00  0.00    +0.000 C 
ATOM     25  O   UNL     1       4.974   5.828  19.675  0.00  0.00    +0.000 OA
BRANCH  24  26
ATOM     26  C   UNL     1       4.777   5.310  17.424  0.00  0.00    +0.000 A 
ATOM     27  C   UNL     1       4.896   6.323  16.467  0.00  0.00    +0.000 A 
ATOM     28  C   UNL     1       5.398   6.049  15.191  0.00  0.00    +0.000 A 
ATOM     29  C   UNL     1       5.885   4.782  14.889  0.00  0.00    +0.000 A 
ATOM     30  C   UNL     1       5.873   3.789  15.865  0.00  0.00    +0.000 A 
ATOM     31  C   UNL     1       5.311   4.047  17.117  0.00  0.00    +0.000 A 
ENDBRANCH  24  26
BRANCH  23  32
ATOM     32  C   UNL     1       1.914   4.609  18.089  0.00  0.00    +0.000 C 
BRANCH  32  33
ATOM     33  C   UNL     1       1.681   3.091  18.024  0.00  0.00    +0.000 C 
ATOM     34  C   UNL     1       2.880   2.308  18.568  0.00  0.00    +0.000 C 
ATOM     35  C   UNL     1       0.459   2.735  18.896  0.00  0.00    +0.000 C 
ENDBRANCH  32  33
ENDBRANCH  23  32
ENDBRANCH  22  23
ENDBRANCH  21  22
ENDBRANCH  20  21
ENDBRANCH   6  20
TORSDOF 9
ENDMDL
MODEL 5
REMARK VINA RESULT:      -7.1      1.751      2.685
REMARK  Name = 
REMARK  14 active torsions:
REMARK  status: ('A' for Active; 'I' for Inactive)
REMARK    1  A    between atoms: C_1  and  O_2
REMARK    2  A    between atoms: O_2  and  C_3
REMARK    3  A    between atoms: N_8  and  C_9
REMARK    4  A    between atoms: N_8  and  C_10
REMARK    5  A    between atoms: C_10  and  C_11
REMARK    6  A    between atoms: C_11  and  C_12
REMARK    7  A    between atoms: C_12  and  N_13
REMARK    8  A    between atoms: N_13  and  C_14
REMARK    9  A    between atoms: C_14  and  C_15
REMARK   10  A    between atoms: C_15  and  C_16
REMARK   11  A    between atoms: C_15  and  C_17
REMARK   12  A    between atoms: C_18  and  C_20
REMARK   13  A    between atoms: C_31  and  O_32
REMARK   14  A    between atoms: O_32  and  C_33
REMARK                            x       y       z     vdW  Elec       q    Type
REMARK                         _______ _______ _______ _____ _____    ______ ____
ROOT
ATOM      1  C   UNL     1       6.616   6.379  16.868  0.00  0.00    +0.000 A 
ATOM      2  C   UNL     1       5.531   6.727  17.681  0.00  0.00    +0.000 A 
ATOM      3  C   UNL     1       4.516   5.839  17.970  0.00  0.00    +0.000 A 
ATOM      4  N   UNL     1       3.549   6.211  18.811  0.00  0.00    +0.000 NA
ATOM      5  C   UNL     1       2.565   5.352  19.103  0.00  0.00    +0.000 A 
ATOM      6  N   UNL     1       1.551   5.765  19.964  0.00  0.00    +0.000 N 
ATOM      7  C   UNL     1       0.630   4.719  20.373  0.00  0.00    +0.000 C 
ATOM      8  N   UNL     1       2.523   4.112  18.577  0.00  0.00    +0.000 NA
ATOM      9  C   UNL     1       3.490   3.742  17.734  0.00  0.00    +0.000 A 
ATOM     10  N   UNL     1       3.399   2.427  17.255  0.00  0.00    +0.000 N 
ATOM     11  C   UNL     1       4.549   4.574  17.382  0.00  0.00    +0.000 A 
ATOM     12  C   UNL     1       5.617   4.219  16.520  0.00  0.00    +0.000 A 
ATOM     13  C   UNL     1       6.653   5.116  16.259  0.00  0.00    +0.000 A 
ATOM     14  H   UNL     1       2.525   2.049  17.618  0.00  0.00    +0.000 HD
ATOM     15  H   UNL     1       3.420   2.402  16.241  0.00  0.00    +0.000 HD
ENDROOT
BRANCH   1  17
ATOM     16  C   UNL     1       7.823   8.272  17.597  0.00  0.00    +0.000 C 
ATOM     17  O   UNL     1       7.660   7.241  16.622  0.00  0.00    +0.000 OA
ENDBRANCH   1  17
BRANCH  13  18
ATOM     18  O   UNL     1       7.729   4.832  15.455  0.00  0.00    +0.000 OA
ATOM     19  C   UNL     1       7.485   4.746  14.054  0.00  0.00    +0.000 C 
ENDBRANCH  13  18
BRANCH   6  20
ATOM     20  C   UNL     1       1.936   6.761  20.965  0.00  0.00    +0.000 C 
BRANCH  20  21
ATOM     21  C   UNL     1       0.953   7.937  21.039  0.00  0.00    +0.000 C 
BRANCH  21  22
ATOM     22  C   UNL     1       1.573   9.231  21.595  0.00  0.00    +0.000 C 
BRANCH  22  23
ATOM     23  N   UNL     1       0.713  10.416  21.367  0.00  0.00    +0.000 N 
ATOM     24  C   UNL     1      -0.107  10.789  22.464  0.00  0.00    +0.000 C 
ATOM     25  O   UNL     1      -0.088  10.159  23.527  0.00  0.00    +0.000 OA
BRANCH  24  26
ATOM     26  C   UNL     1      -0.998  11.994  22.441  0.00  0.00    +0.000 A 
ATOM     27  C   UNL     1      -0.551  13.319  22.485  0.00  0.00    +0.000 A 
ATOM     28  C   UNL     1      -1.459  14.381  22.532  0.00  0.00    +0.000 A 
ATOM     29  C   UNL     1      -2.824  14.138  22.430  0.00  0.00    +0.000 A 
ATOM     30  C   UNL     1      -3.283  12.832  22.277  0.00  0.00    +0.000 A 
ATOM     31  C   UNL     1      -2.377  11.768  22.297  0.00  0.00    +0.000 A 
ENDBRANCH  24  26
BRANCH  23  32
ATOM     32  C   UNL     1       0.875  11.277  20.182  0.00  0.00    +0.000 C 
BRANCH  32  33
ATOM     33  C   UNL     1      -0.073  11.204  18.974  0.00  0.00    +0.000 C 
ATOM     34  C   UNL     1      -1.180  10.166  19.182  0.00  0.00    +0.000 C 
ATOM     35  C   UNL     1      -0.752  12.576  18.788  0.00  0.00    +0.000 C 
ENDBRANCH  32  33
ENDBRANCH  23  32
ENDBRANCH  22  23
ENDBRANCH  21  22
ENDBRANCH  20  21
ENDBRANCH   6  20
TORSDOF 9
ENDMDL
MODEL 6
REMARK VINA RESULT:      -7.1      0.817      1.151
REMARK  Name = 
REMARK  14 active torsions:
REMARK  status: ('A' for Active; 'I' for Inactive)
REMARK    1  A    between atoms: C_1  and  O_2
REMARK    2  A    between atoms: O_2  and  C_3
REMARK    3  A    between atoms: N_8  and  C_9
REMARK    4  A    between atoms: N_8  and  C_10
REMARK    5  A    between atoms: C_10  and  C_11
REMARK    6  A    between atoms: C_11  and  C_12
REMARK    7  A    between atoms: C_12  and  N_13
REMARK    8  A    between atoms: N_13  and  C_14
REMARK    9  A    between atoms: C_14  and  C_15
REMARK   10  A    between atoms: C_15  and  C_16
REMARK   11  A    between atoms: C_15  and  C_17
REMARK   12  A    between atoms: C_18  and  C_20
REMARK   13  A    between atoms: C_31  and  O_32
REMARK   14  A    between atoms: O_32  and  C_33
REMARK                            x       y       z     vdW  Elec       q    Type
REMARK                         _______ _______ _______ _____ _____    ______ ____
ROOT
ATOM      1  C   UNL     1       6.573   6.135  16.835  0.00  0.00    +0.000 A 
ATOM      2  C   UNL     1       5.511   6.272  17.736  0.00  0.00    +0.000 A 
ATOM      3  C   UNL     1       4.653   5.230  18.024  0.00  0.00    +0.000 A 
ATOM      4  N   UNL     1       3.706   5.406  18.948  0.00  0.00    +0.000 NA
ATOM      5  C   UNL     1       2.877   4.398  19.238  0.00  0.00    +0.000 A 
ATOM      6  N   UNL     1       1.878   4.607  20.187  0.00  0.00    +0.000 N 
ATOM      7  C   UNL     1       1.145   3.415  20.579  0.00  0.00    +0.000 C 
ATOM      8  N   UNL     1       2.972   3.199  18.631  0.00  0.00    +0.000 NA
ATOM      9  C   UNL     1       3.919   3.025  17.706  0.00  0.00    +0.000 A 
ATOM     10  N   UNL     1       3.979   1.742  17.142  0.00  0.00    +0.000 N 
ATOM     11  C   UNL     1       4.823   4.022  17.349  0.00  0.00    +0.000 A 
ATOM     12  C   UNL     1       5.866   3.878  16.399  0.00  0.00    +0.000 A 
ATOM     13  C   UNL     1       6.743   4.930  16.138  0.00  0.00    +0.000 A 
ATOM     14  H   UNL     1       3.195   1.221  17.531  0.00  0.00    +0.000 HD
ATOM     15  H   UNL     1       3.932   1.782  16.130  0.00  0.00    +0.000 HD
ENDROOT
BRANCH   1  17
ATOM     16  C   UNL     1       7.702   8.021  17.695  0.00  0.00    +0.000 C 
ATOM     17  O   UNL     1       7.466   7.153  16.586  0.00  0.00    +0.000 OA
ENDBRANCH   1  17
BRANCH  13  18
ATOM     18  O   UNL     1       7.789   4.854  15.252  0.00  0.00    +0.000 OA
ATOM     19  C   UNL     1       7.463   4.856  13.865  0.00  0.00    +0.000 C 
ENDBRANCH  13  18
BRANCH   6  20
ATOM     20  C   UNL     1       2.190   5.585  21.231  0.00  0.00    +0.000 C 
BRANCH  20  21
ATOM     21  C   UNL     1       1.222   6.776  21.233  0.00  0.00    +0.000 C 
BRANCH  21  22
ATOM     22  C   UNL     1       1.804   8.051  20.598  0.00  0.00    +0.000 C 
BRANCH  22  23
ATOM     23  N   UNL     1       0.758   9.041  20.249  0.00  0.00    +0.000 N 
ATOM     24  C   UNL     1       0.657   9.355  18.868  0.00  0.00    +0.000 C 
ATOM     25  O   UNL     1       1.396   8.827  18.031  0.00  0.00    +0.000 OA
BRANCH  24  26
ATOM     26  C   UNL     1      -0.379  10.289  18.320  0.00  0.00    +0.000 A 
ATOM     27  C   UNL     1      -0.375  11.677  18.495  0.00  0.00    +0.000 A 
ATOM     28  C   UNL     1      -1.422  12.465  18.008  0.00  0.00    +0.000 A 
ATOM     29  C   UNL     1      -2.435  11.888  17.250  0.00  0.00    +0.000 A 
ATOM     30  C   UNL     1      -2.399  10.523  16.974  0.00  0.00    +0.000 A 
ATOM     31  C   UNL     1      -1.386   9.729  17.517  0.00  0.00    +0.000 A 
ENDBRANCH  24  26
BRANCH  23  32
ATOM     32  C   UNL     1      -0.252   9.482  21.229  0.00  0.00    +0.000 C 
BRANCH  32  33
ATOM     33  C   UNL     1       0.018  10.605  22.243  0.00  0.00    +0.000 C 
ATOM     34  C   UNL     1       0.575  11.860  21.566  0.00  0.00    +0.000 C 
ATOM     35  C   UNL     1      -1.310  10.994  22.923  0.00  0.00    +0.000 C 
ENDBRANCH  32  33
ENDBRANCH  23  32
ENDBRANCH  22  23
ENDBRANCH  21  22
ENDBRANCH  20  21
ENDBRANCH   6  20
TORSDOF 9
ENDMDL
MODEL 7
REMARK VINA RESULT:      -7.1      2.792      9.314
REMARK  Name = 
REMARK  14 active torsions:
REMARK  status: ('A' for Active; 'I' for Inactive)
REMARK    1  A    between atoms: C_1  and  O_2
REMARK    2  A    between atoms: O_2  and  C_3
REMARK    3  A    between atoms: N_8  and  C_9
REMARK    4  A    between atoms: N_8  and  C_10
REMARK    5  A    between atoms: C_10  and  C_11
REMARK    6  A    between atoms: C_11  and  C_12
REMARK    7  A    between atoms: C_12  and  N_13
REMARK    8  A    between atoms: N_13  and  C_14
REMARK    9  A    between atoms: C_14  and  C_15
REMARK   10  A    between atoms: C_15  and  C_16
REMARK   11  A    between atoms: C_15  and  C_17
REMARK   12  A    between atoms: C_18  and  C_20
REMARK   13  A    between atoms: C_31  and  O_32
REMARK   14  A    between atoms: O_32  and  C_33
REMARK                            x       y       z     vdW  Elec       q    Type
REMARK                         _______ _______ _______ _____ _____    ______ ____
ROOT
ATOM      1  C   UNL     1      -3.426  10.522  16.782  0.00  0.00    +0.000 A 
ATOM      2  C   UNL     1      -2.363   9.963  17.502  0.00  0.00    +0.000 A 
ATOM      3  C   UNL     1      -1.969  10.453  18.729  0.00  0.00    +0.000 A 
ATOM      4  N   UNL     1      -0.995   9.828  19.395  0.00  0.00    +0.000 NA
ATOM      5  C   UNL     1      -0.614  10.293  20.590  0.00  0.00    +0.000 A 
ATOM      6  N   UNL     1       0.420   9.643  21.261  0.00  0.00    +0.000 N 
ATOM      7  C   UNL     1       0.645  10.093  22.624  0.00  0.00    +0.000 C 
ATOM      8  N   UNL     1      -1.190  11.374  21.152  0.00  0.00    +0.000 NA
ATOM      9  C   UNL     1      -2.162  12.000  20.483  0.00  0.00    +0.000 A 
ATOM     10  N   UNL     1      -2.737  13.094  21.145  0.00  0.00    +0.000 N 
ATOM     11  C   UNL     1      -2.619  11.578  19.238  0.00  0.00    +0.000 A 
ATOM     12  C   UNL     1      -3.669  12.185  18.503  0.00  0.00    +0.000 A 
ATOM     13  C   UNL     1      -4.076  11.662  17.276  0.00  0.00    +0.000 A 
ATOM     14  H   UNL     1      -2.205  13.223  22.003  0.00  0.00    +0.000 HD
ATOM     15  H   UNL     1      -2.714  13.928  20.567  0.00  0.00    +0.000 HD
ENDROOT
BRANCH   1  17
ATOM     16  C   UNL     1      -2.933  10.138  14.507  0.00  0.00    +0.000 C 
ATOM     17  O   UNL     1      -3.860  10.002  15.584  0.00  0.00    +0.000 OA
ENDBRANCH   1  17
BRANCH  13  18
ATOM     18  O   UNL     1      -5.100  12.182  16.523  0.00  0.00    +0.000 OA
ATOM     19  C   UNL     1      -6.223  12.701  17.228  0.00  0.00    +0.000 C 
ENDBRANCH  13  18
BRANCH   6  20
ATOM     20  C   UNL     1       0.551   8.211  20.987  0.00  0.00    +0.000 C 
BRANCH  20  21
ATOM     21  C   UNL     1       1.965   7.822  20.537  0.00  0.00    +0.000 C 
BRANCH  21  22
ATOM     22  C   UNL     1       2.096   7.603  19.020  0.00  0.00    +0.000 C 
BRANCH  22  23
ATOM     23  N   UNL     1       3.105   6.571  18.679  0.00  0.00    +0.000 N 
ATOM     24  C   UNL     1       3.894   6.852  17.532  0.00  0.00    +0.000 C 
ATOM     25  O   UNL     1       3.738   7.889  16.880  0.00  0.00    +0.000 OA
BRANCH  24  26
ATOM     26  C   UNL     1       5.002   5.955  17.069  0.00  0.00    +0.000 A 
ATOM     27  C   UNL     1       4.856   4.923  16.136  0.00  0.00    +0.000 A 
ATOM     28  C   UNL     1       5.931   4.089  15.815  0.00  0.00    +0.000 A 
ATOM     29  C   UNL     1       7.192   4.340  16.344  0.00  0.00    +0.000 A 
ATOM     30  C   UNL     1       7.380   5.429  17.192  0.00  0.00    +0.000 A 
ATOM     31  C   UNL     1       6.290   6.221  17.562  0.00  0.00    +0.000 A 
ENDBRANCH  24  26
BRANCH  23  32
ATOM     32  C   UNL     1       3.421   5.461  19.596  0.00  0.00    +0.000 C 
BRANCH  32  33
ATOM     33  C   UNL     1       2.809   4.060  19.436  0.00  0.00    +0.000 C 
ATOM     34  C   UNL     1       1.865   3.985  18.232  0.00  0.00    +0.000 C 
ATOM     35  C   UNL     1       3.943   3.042  19.202  0.00  0.00    +0.000 C 
ENDBRANCH  32  33
ENDBRANCH  23  32
ENDBRANCH  22  23
ENDBRANCH  21  22
ENDBRANCH  20  21
ENDBRANCH   6  20
TORSDOF 9
ENDMDL
MODEL 8
REMARK VINA RESULT:      -7.0      2.964      5.028
REMARK  Name = 
REMARK  14 active torsions:
REMARK  status: ('A' for Active; 'I' for Inactive)
REMARK    1  A    between atoms: C_1  and  O_2
REMARK    2  A    between atoms: O_2  and  C_3
REMARK    3  A    between atoms: N_8  and  C_9
REMARK    4  A    between atoms: N_8  and  C_10
REMARK    5  A    between atoms: C_10  and  C_11
REMARK    6  A    between atoms: C_11  and  C_12
REMARK    7  A    between atoms: C_12  and  N_13
REMARK    8  A    between atoms: N_13  and  C_14
REMARK    9  A    between atoms: C_14  and  C_15
REMARK   10  A    between atoms: C_15  and  C_16
REMARK   11  A    between atoms: C_15  and  C_17
REMARK   12  A    between atoms: C_18  and  C_20
REMARK   13  A    between atoms: C_31  and  O_32
REMARK   14  A    between atoms: O_32  and  C_33
REMARK                            x       y       z     vdW  Elec       q    Type
REMARK                         _______ _______ _______ _____ _____    ______ ____
ROOT
ATOM      1  C   UNL     1       2.865   3.907  20.635  0.00  0.00    +0.000 A 
ATOM      2  C   UNL     1       2.314   5.186  20.767  0.00  0.00    +0.000 A 
ATOM      3  C   UNL     1       2.530   6.179  19.834  0.00  0.00    +0.000 A 
ATOM      4  N   UNL     1       1.915   7.355  19.983  0.00  0.00    +0.000 NA
ATOM      5  C   UNL     1       2.113   8.318  19.077  0.00  0.00    +0.000 A 
ATOM      6  N   UNL     1       1.482   9.547  19.261  0.00  0.00    +0.000 N 
ATOM      7  C   UNL     1       1.598  10.469  18.144  0.00  0.00    +0.000 C 
ATOM      8  N   UNL     1       2.911   8.138  18.007  0.00  0.00    +0.000 NA
ATOM      9  C   UNL     1       3.527   6.962  17.861  0.00  0.00    +0.000 A 
ATOM     10  N   UNL     1       4.313   6.836  16.706  0.00  0.00    +0.000 N 
ATOM     11  C   UNL     1       3.372   5.908  18.755  0.00  0.00    +0.000 A 
ATOM     12  C   UNL     1       3.975   4.631  18.628  0.00  0.00    +0.000 A 
ATOM     13  C   UNL     1       3.726   3.627  19.564  0.00  0.00    +0.000 A 
ATOM     14  H   UNL     1       4.300   7.746  16.248  0.00  0.00    +0.000 HD
ATOM     15  H   UNL     1       5.260   6.551  16.934  0.00  0.00    +0.000 HD
ENDROOT
BRANCH   1  17
ATOM     16  C   UNL     1       1.228   2.550  21.659  0.00  0.00    +0.000 C 
ATOM     17  O   UNL     1       2.608   2.896  21.533  0.00  0.00    +0.000 OA
ENDBRANCH   1  17
BRANCH  13  18
ATOM     18  O   UNL     1       4.255   2.363  19.491  0.00  0.00    +0.000 OA
ATOM     19  C   UNL     1       3.701   1.485  18.514  0.00  0.00    +0.000 C 
ENDBRANCH  13  18
BRANCH   6  20
ATOM     20  C   UNL     1       0.206   9.504  19.977  0.00  0.00    +0.000 C 
BRANCH  20  21
ATOM     21  C   UNL     1       0.050  10.656  20.978  0.00  0.00    +0.000 C 
BRANCH  21  22
ATOM     22  C   UNL     1      -0.874  11.784  20.487  0.00  0.00    +0.000 C 
BRANCH  22  23
ATOM     23  N   UNL     1      -0.182  13.094  20.414  0.00  0.00    +0.000 N 
ATOM     24  C   UNL     1      -0.163  13.697  19.129  0.00  0.00    +0.000 C 
ATOM     25  O   UNL     1      -0.694  13.155  18.154  0.00  0.00    +0.000 OA
BRANCH  24  26
ATOM     26  C   UNL     1       0.438  15.046  18.872  0.00  0.00    +0.000 A 
ATOM     27  C   UNL     1       1.801  15.287  18.666  0.00  0.00    +0.000 A 
ATOM     28  C   UNL     1       2.283  16.589  18.505  0.00  0.00    +0.000 A 
ATOM     29  C   UNL     1       1.397  17.659  18.445  0.00  0.00    +0.000 A 
ATOM     30  C   UNL     1       0.027  17.427  18.542  0.00  0.00    +0.000 A 
ATOM     31  C   UNL     1      -0.446  16.132  18.768  0.00  0.00    +0.000 A 
ENDBRANCH  24  26
BRANCH  23  32
ATOM     32  C   UNL     1       0.240  13.818  21.626  0.00  0.00    +0.000 C 
BRANCH  32  33
ATOM     33  C   UNL     1      -0.681  14.804  22.361  0.00  0.00    +0.000 C 
ATOM     34  C   UNL     1      -1.242  14.202  23.653  0.00  0.00    +0.000 C 
ATOM     35  C   UNL     1       0.132  16.056  22.747  0.00  0.00    +0.000 C 
ENDBRANCH  32  33
ENDBRANCH  23  32
ENDBRANCH  22  23
ENDBRANCH  21  22
ENDBRANCH  20  21
ENDBRANCH   6  20
TORSDOF 9
ENDMDL
MODEL 9
REMARK VINA RESULT:      -6.9      1.603      2.635
REMARK  Name = 
REMARK  14 active torsions:
REMARK  status: ('A' for Active; 'I' for Inactive)
REMARK    1  A    between atoms: C_1  and  O_2
REMARK    2  A    between atoms: O_2  and  C_3
REMARK    3  A    between atoms: N_8  and  C_9
REMARK    4  A    between atoms: N_8  and  C_10
REMARK    5  A    between atoms: C_10  and  C_11
REMARK    6  A    between atoms: C_11  and  C_12
REMARK    7  A    between atoms: C_12  and  N_13
REMARK    8  A    between atoms: N_13  and  C_14
REMARK    9  A    between atoms: C_14  and  C_15
REMARK   10  A    between atoms: C_15  and  C_16
REMARK   11  A    between atoms: C_15  and  C_17
REMARK   12  A    between atoms: C_18  and  C_20
REMARK   13  A    between atoms: C_31  and  O_32
REMARK   14  A    between atoms: O_32  and  C_33
REMARK                            x       y       z     vdW  Elec       q    Type
REMARK                         _______ _______ _______ _____ _____    ______ ____
ROOT
ATOM      1  C   UNL     1       6.337   6.315  16.834  0.00  0.00    +0.000 A 
ATOM      2  C   UNL     1       5.257   6.587  17.681  0.00  0.00    +0.000 A 
ATOM      3  C   UNL     1       4.330   5.624  18.023  0.00  0.00    +0.000 A 
ATOM      4  N   UNL     1       3.366   5.931  18.894  0.00  0.00    +0.000 NA
ATOM      5  C   UNL     1       2.470   4.999  19.236  0.00  0.00    +0.000 A 
ATOM      6  N   UNL     1       1.456   5.343  20.127  0.00  0.00    +0.000 N 
ATOM      7  C   UNL     1       0.642   4.232  20.589  0.00  0.00    +0.000 C 
ATOM      8  N   UNL     1       2.513   3.749  18.734  0.00  0.00    +0.000 NA
ATOM      9  C   UNL     1       3.477   3.445  17.861  0.00  0.00    +0.000 A 
ATOM     10  N   UNL     1       3.479   2.117  17.408  0.00  0.00    +0.000 N 
ATOM     11  C   UNL     1       4.449   4.355  17.456  0.00  0.00    +0.000 A 
ATOM     12  C   UNL     1       5.511   4.072  16.560  0.00  0.00    +0.000 A 
ATOM     13  C   UNL     1       6.457   5.048  16.245  0.00  0.00    +0.000 A 
ATOM     14  H   UNL     1       2.653   1.676  17.810  0.00  0.00    +0.000 HD
ATOM     15  H   UNL     1       3.466   2.074  16.395  0.00  0.00    +0.000 HD
ENDROOT
BRANCH   1  17
ATOM     16  C   UNL     1       7.919   7.852  17.672  0.00  0.00    +0.000 C 
ATOM     17  O   UNL     1       7.296   7.256  16.534  0.00  0.00    +0.000 OA
ENDBRANCH   1  17
BRANCH  13  18
ATOM     18  O   UNL     1       7.524   4.839  15.407  0.00  0.00    +0.000 OA
ATOM     19  C   UNL     1       7.258   4.845  14.007  0.00  0.00    +0.000 C 
ENDBRANCH  13  18
BRANCH   6  20
ATOM     20  C   UNL     1       1.792   6.387  21.097  0.00  0.00    +0.000 C 
BRANCH  20  21
ATOM     21  C   UNL     1       1.042   7.700  20.837  0.00  0.00    +0.000 C 
BRANCH  21  22
ATOM     22  C   UNL     1       1.417   8.833  21.809  0.00  0.00    +0.000 C 
BRANCH  22  23
ATOM     23  N   UNL     1       0.743  10.112  21.478  0.00  0.00    +0.000 N 
ATOM     24  C   UNL     1      -0.425  10.393  22.233  0.00  0.00    +0.000 C 
ATOM     25  O   UNL     1      -0.834   9.617  23.103  0.00  0.00    +0.000 OA
BRANCH  24  26
ATOM     26  C   UNL     1      -1.206  11.664  22.081  0.00  0.00    +0.000 A 
ATOM     27  C   UNL     1      -1.126  12.759  22.947  0.00  0.00    +0.000 A 
ATOM     28  C   UNL     1      -1.945  13.877  22.768  0.00  0.00    +0.000 A 
ATOM     29  C   UNL     1      -2.781  13.960  21.660  0.00  0.00    +0.000 A 
ATOM     30  C   UNL     1      -2.795  12.925  20.728  0.00  0.00    +0.000 A 
ATOM     31  C   UNL     1      -2.024  11.781  20.945  0.00  0.00    +0.000 A 
ENDBRANCH  24  26
BRANCH  23  32
ATOM     32  C   UNL     1       1.372  11.117  20.603  0.00  0.00    +0.000 C 
BRANCH  32  33
ATOM     33  C   UNL     1       0.941  11.324  19.142  0.00  0.00    +0.000 C 
ATOM     34  C   UNL     1       1.411  12.676  18.597  0.00  0.00    +0.000 C 
ATOM     35  C   UNL     1       1.581  10.224  18.271  0.00  0.00    +0.000 C 
ENDBRANCH  32  33
ENDBRANCH  23  32
ENDBRANCH  22  23
ENDBRANCH  21  22
ENDBRANCH  20  21
ENDBRANCH   6  20
TORSDOF 9
ENDMDL
