MODEL 1
REMARK VINA RESULT:      -9.5      0.000      0.000
REMARK  Name = 
REMARK  9 active torsions:
REMARK  status: ('A' for Active; 'I' for Inactive)
REMARK    1  A    between atoms: C_1  and  C_2
REMARK    2  A    between atoms: C_2  and  C_3
REMARK    3  A    between atoms: N_18  and  C_19
REMARK    4  A    between atoms: C_19  and  C_20
REMARK    5  A    between atoms: C_20  and  N_21
REMARK    6  A    between atoms: N_21  and  C_22
REMARK    7  A    between atoms: N_21  and  C_29
REMARK    8  A    between atoms: C_22  and  C_23
REMARK    9  A    between atoms: C_29  and  C_30
REMARK                            x       y       z     vdW  Elec       q    Type
REMARK                         _______ _______ _______ _____ _____    ______ ____
ROOT
ATOM      1  C   UNL     1       0.592   2.862  19.551  0.00  0.00    +0.000 C 
ATOM      2  C   UNL     1       1.651   3.166  20.635  0.00  0.00    +0.000 C 
ATOM      3  C   UNL     1       1.170   2.545  21.956  0.00  0.00    +0.000 C 
ATOM      4  C   UNL     1       3.006   2.516  20.250  0.00  0.00    +0.000 C 
ATOM      5  C   UNL     1       3.583   3.112  18.972  0.00  0.00    +0.000 C 
ATOM      6  N   UNL     1       4.212   2.319  18.167  0.00  0.00    +0.000 NA
ATOM      7  N   UNL     1       4.824   2.636  17.000  0.00  0.00    +0.000 N 
ATOM      8  C   UNL     1       5.149   3.791  16.320  0.00  0.00    +0.000 C 
ATOM      9  O   UNL     1       5.833   3.671  15.297  0.00  0.00    +0.000 OA
ATOM     10  C   UNL     1       4.724   5.147  16.710  0.00  0.00    +0.000 A 
ATOM     11  C   UNL     1       5.131   6.249  15.939  0.00  0.00    +0.000 A 
ATOM     12  C   UNL     1       4.712   7.541  16.259  0.00  0.00    +0.000 A 
ATOM     13  C   UNL     1       3.865   7.773  17.345  0.00  0.00    +0.000 A 
ATOM     14  C   UNL     1       3.465   6.674  18.123  0.00  0.00    +0.000 A 
ATOM     15  C   UNL     1       3.905   5.376  17.817  0.00  0.00    +0.000 A 
ATOM     16  C   UNL     1       3.393   4.525  18.797  0.00  0.00    +0.000 A 
ATOM     17  C   UNL     1       2.600   5.268  19.652  0.00  0.00    +0.000 A 
ATOM     18  N   UNL     1       2.654   6.584  19.248  0.00  0.00    +0.000 N 
ATOM     19  C   UNL     1       1.830   4.709  20.811  0.00  0.00    +0.000 C 
ATOM     20  H   UNL     1       5.211   1.819  16.533  0.00  0.00    +0.000 HD
ENDROOT
BRANCH  18  21
ATOM     21  C   UNL     1       2.062   7.718  19.962  0.00  0.00    +0.000 C 
BRANCH  21  22
ATOM     22  C   UNL     1       1.473   8.804  19.035  0.00  0.00    +0.000 C 
BRANCH  22  23
ATOM     23  N   UNL     1       0.439   9.689  19.659  0.00  0.00    +0.000 NA
BRANCH  23  24
ATOM     24  C   UNL     1       0.933  10.264  20.932  0.00  0.00    +0.000 C 
BRANCH  24  25
ATOM     25  C   UNL     1      -0.018  11.209  21.649  0.00  0.00    +0.000 A 
ATOM     26  C   UNL     1      -1.015  10.722  22.508  0.00  0.00    +0.000 A 
ATOM     27  C   UNL     1      -1.808  11.602  23.248  0.00  0.00    +0.000 A 
ATOM     28  C   UNL     1      -1.618  12.980  23.136  0.00  0.00    +0.000 A 
ATOM     29  C   UNL     1      -0.646  13.477  22.273  0.00  0.00    +0.000 A 
ATOM     30  C   UNL     1       0.151  12.598  21.535  0.00  0.00    +0.000 A 
ENDBRANCH  24  25
ENDBRANCH  23  24
BRANCH  23  31
ATOM     31  C   UNL     1       0.085  10.793  18.731  0.00  0.00    +0.000 C 
BRANCH  31  32
ATOM     32  C   UNL     1      -1.350  10.767  18.242  0.00  0.00    +0.000 A 
ATOM     33  C   UNL     1      -1.740   9.894  17.216  0.00  0.00    +0.000 A 
ATOM     34  C   UNL     1      -3.064   9.869  16.773  0.00  0.00    +0.000 A 
ATOM     35  C   UNL     1      -4.010  10.711  17.353  0.00  0.00    +0.000 A 
ATOM     36  C   UNL     1      -3.638  11.574  18.382  0.00  0.00    +0.000 A 
ATOM     37  C   UNL     1      -2.315  11.600  18.827  0.00  0.00    +0.000 A 
ENDBRANCH  31  32
ENDBRANCH  23  31
ENDBRANCH  22  23
ENDBRANCH  21  22
ENDBRANCH  18  21
TORSDOF 7
ENDMDL
MODEL 2
REMARK VINA RESULT:      -9.1      2.076      4.455
REMARK  Name = 
REMARK  9 active torsions:
REMARK  status: ('A' for Active; 'I' for Inactive)
REMARK    1  A    between atoms: C_1  and  C_2
REMARK    2  A    between atoms: C_2  and  C_3
REMARK    3  A    between atoms: N_18  and  C_19
REMARK    4  A    between atoms: C_19  and  C_20
REMARK    5  A    between atoms: C_20  and  N_21
REMARK    6  A    between atoms: N_21  and  C_22
REMARK    7  A    between atoms: N_21  and  C_29
REMARK    8  A    between atoms: C_22  and  C_23
REMARK    9  A    between atoms: C_29  and  C_30
REMARK                            x       y       z     vdW  Elec       q    Type
REMARK                         _______ _______ _______ _____ _____    ______ ____
ROOT
ATOM      1  C   UNL     1       6.945   4.893  17.021  0.00  0.00    +0.000 C 
ATOM      2  C   UNL     1       5.846   5.018  15.942  0.00  0.00    +0.000 C 
ATOM      3  C   UNL     1       6.537   5.151  14.575  0.00  0.00    +0.000 C 
ATOM      4  C   UNL     1       4.968   3.739  15.928  0.00  0.00    +0.000 C 
ATOM      5  C   UNL     1       4.204   3.556  17.234  0.00  0.00    +0.000 C 
ATOM      6  N   UNL     1       4.042   2.352  17.674  0.00  0.00    +0.000 NA
ATOM      7  N   UNL     1       3.376   1.957  18.787  0.00  0.00    +0.000 N 
ATOM      8  C   UNL     1       2.558   2.547  19.727  0.00  0.00    +0.000 C 
ATOM      9  O   UNL     1       2.034   1.804  20.564  0.00  0.00    +0.000 OA
ATOM     10  C   UNL     1       2.283   3.992  19.818  0.00  0.00    +0.000 A 
ATOM     11  C   UNL     1       1.419   4.471  20.816  0.00  0.00    +0.000 A 
ATOM     12  C   UNL     1       1.171   5.837  20.954  0.00  0.00    +0.000 A 
ATOM     13  C   UNL     1       1.784   6.767  20.112  0.00  0.00    +0.000 A 
ATOM     14  C   UNL     1       2.640   6.289  19.106  0.00  0.00    +0.000 A 
ATOM     15  C   UNL     1       2.873   4.914  18.951  0.00  0.00    +0.000 A 
ATOM     16  C   UNL     1       3.707   4.758  17.843  0.00  0.00    +0.000 A 
ATOM     17  C   UNL     1       4.037   6.012  17.363  0.00  0.00    +0.000 A 
ATOM     18  N   UNL     1       3.374   6.948  18.127  0.00  0.00    +0.000 N 
ATOM     19  C   UNL     1       4.956   6.274  16.207  0.00  0.00    +0.000 C 
ATOM     20  H   UNL     1       3.432   0.952  18.934  0.00  0.00    +0.000 HD
ENDROOT
BRANCH  18  21
ATOM     21  C   UNL     1       3.345   8.390  17.869  0.00  0.00    +0.000 C 
BRANCH  21  22
ATOM     22  C   UNL     1       1.921   8.979  17.759  0.00  0.00    +0.000 C 
BRANCH  22  23
ATOM     23  N   UNL     1       1.623  10.115  18.686  0.00  0.00    +0.000 NA
BRANCH  23  24
ATOM     24  C   UNL     1       2.096  11.400  18.119  0.00  0.00    +0.000 C 
BRANCH  24  25
ATOM     25  C   UNL     1       1.654  12.655  18.854  0.00  0.00    +0.000 A 
ATOM     26  C   UNL     1       0.612  13.455  18.362  0.00  0.00    +0.000 A 
ATOM     27  C   UNL     1       0.138  14.540  19.104  0.00  0.00    +0.000 A 
ATOM     28  C   UNL     1       0.703  14.843  20.342  0.00  0.00    +0.000 A 
ATOM     29  C   UNL     1       1.751  14.070  20.834  0.00  0.00    +0.000 A 
ATOM     30  C   UNL     1       2.224  12.981  20.096  0.00  0.00    +0.000 A 
ENDBRANCH  24  25
ENDBRANCH  23  24
BRANCH  23  31
ATOM     31  C   UNL     1       0.161  10.202  18.935  0.00  0.00    +0.000 C 
BRANCH  31  32
ATOM     32  C   UNL     1      -0.222  10.329  20.396  0.00  0.00    +0.000 A 
ATOM     33  C   UNL     1      -0.961  11.431  20.849  0.00  0.00    +0.000 A 
ATOM     34  C   UNL     1      -1.316  11.540  22.195  0.00  0.00    +0.000 A 
ATOM     35  C   UNL     1      -0.942  10.548  23.098  0.00  0.00    +0.000 A 
ATOM     36  C   UNL     1      -0.219   9.441  22.658  0.00  0.00    +0.000 A 
ATOM     37  C   UNL     1       0.137   9.329  21.313  0.00  0.00    +0.000 A 
ENDBRANCH  31  32
ENDBRANCH  23  31
ENDBRANCH  22  23
ENDBRANCH  21  22
ENDBRANCH  18  21
TORSDOF 7
ENDMDL
MODEL 3
REMARK VINA RESULT:      -9.0      3.148      9.445
REMARK  Name = 
REMARK  9 active torsions:
REMARK  status: ('A' for Active; 'I' for Inactive)
REMARK    1  A    between atoms: C_1  and  C_2
REMARK    2  A    between atoms: C_2  and  C_3
REMARK    3  A    between atoms: N_18  and  C_19
REMARK    4  A    between atoms: C_19  and  C_20
REMARK    5  A    between atoms: C_20  and  N_21
REMARK    6  A    between atoms: N_21  and  C_22
REMARK    7  A    between atoms: N_21  and  C_29
REMARK    8  A    between atoms: C_22  and  C_23
REMARK    9  A    between atoms: C_29  and  C_30
REMARK                            x       y       z     vdW  Elec       q    Type
REMARK                         _______ _______ _______ _____ _____    ______ ____
ROOT
ATOM      1  C   UNL     1       1.703  14.523  18.797  0.00  0.00    +0.000 C 
ATOM      2  C   UNL     1       1.885  13.544  19.978  0.00  0.00    +0.000 C 
ATOM      3  C   UNL     1       3.177  13.926  20.717  0.00  0.00    +0.000 C 
ATOM      4  C   UNL     1       0.696  13.676  20.965  0.00  0.00    +0.000 C 
ATOM      5  C   UNL     1      -0.625  13.265  20.326  0.00  0.00    +0.000 C 
ATOM      6  N   UNL     1      -1.687  13.925  20.657  0.00  0.00    +0.000 NA
ATOM      7  N   UNL     1      -2.959  13.715  20.239  0.00  0.00    +0.000 N 
ATOM      8  C   UNL     1      -3.629  12.755  19.510  0.00  0.00    +0.000 C 
ATOM      9  O   UNL     1      -4.858  12.862  19.432  0.00  0.00    +0.000 OA
ATOM     10  C   UNL     1      -2.987  11.632  18.805  0.00  0.00    +0.000 A 
ATOM     11  C   UNL     1      -3.783  10.709  18.105  0.00  0.00    +0.000 A 
ATOM     12  C   UNL     1      -3.202   9.658  17.394  0.00  0.00    +0.000 A 
ATOM     13  C   UNL     1      -1.815   9.501  17.347  0.00  0.00    +0.000 A 
ATOM     14  C   UNL     1      -1.019  10.417  18.056  0.00  0.00    +0.000 A 
ATOM     15  C   UNL     1      -1.602  11.461  18.791  0.00  0.00    +0.000 A 
ATOM     16  C   UNL     1      -0.566  12.149  19.423  0.00  0.00    +0.000 A 
ATOM     17  C   UNL     1       0.636  11.585  19.036  0.00  0.00    +0.000 A 
ATOM     18  N   UNL     1       0.359  10.518  18.210  0.00  0.00    +0.000 N 
ATOM     19  C   UNL     1       1.989  12.072  19.461  0.00  0.00    +0.000 C 
ATOM     20  H   UNL     1      -3.607  14.403  20.617  0.00  0.00    +0.000 HD
ENDROOT
BRANCH  18  21
ATOM     21  C   UNL     1       1.344   9.568  17.687  0.00  0.00    +0.000 C 
BRANCH  21  22
ATOM     22  C   UNL     1       1.869   8.566  18.738  0.00  0.00    +0.000 C 
BRANCH  22  23
ATOM     23  N   UNL     1       2.634   7.402  18.189  0.00  0.00    +0.000 NA
BRANCH  23  24
ATOM     24  C   UNL     1       3.812   7.859  17.415  0.00  0.00    +0.000 C 
BRANCH  24  25
ATOM     25  C   UNL     1       4.885   6.815  17.158  0.00  0.00    +0.000 A 
ATOM     26  C   UNL     1       4.601   5.643  16.441  0.00  0.00    +0.000 A 
ATOM     27  C   UNL     1       5.620   4.745  16.112  0.00  0.00    +0.000 A 
ATOM     28  C   UNL     1       6.934   5.004  16.499  0.00  0.00    +0.000 A 
ATOM     29  C   UNL     1       7.228   6.153  17.228  0.00  0.00    +0.000 A 
ATOM     30  C   UNL     1       6.211   7.055  17.554  0.00  0.00    +0.000 A 
ENDBRANCH  24  25
ENDBRANCH  23  24
BRANCH  23  31
ATOM     31  C   UNL     1       3.090   6.522  19.296  0.00  0.00    +0.000 C 
BRANCH  31  32
ATOM     32  C   UNL     1       2.297   5.239  19.445  0.00  0.00    +0.000 A 
ATOM     33  C   UNL     1       1.974   4.742  20.716  0.00  0.00    +0.000 A 
ATOM     34  C   UNL     1       1.239   3.562  20.849  0.00  0.00    +0.000 A 
ATOM     35  C   UNL     1       0.815   2.872  19.716  0.00  0.00    +0.000 A 
ATOM     36  C   UNL     1       1.119   3.362  18.447  0.00  0.00    +0.000 A 
ATOM     37  C   UNL     1       1.853   4.542  18.311  0.00  0.00    +0.000 A 
ENDBRANCH  31  32
ENDBRANCH  23  31
ENDBRANCH  22  23
ENDBRANCH  21  22
ENDBRANCH  18  21
TORSDOF 7
ENDMDL
MODEL 4
REMARK VINA RESULT:      -8.8      2.039      4.428
REMARK  Name = 
REMARK  9 active torsions:
REMARK  status: ('A' for Active; 'I' for Inactive)
REMARK    1  A    between atoms: C_1  and  C_2
REMARK    2  A    between atoms: C_2  and  C_3
REMARK    3  A    between atoms: N_18  and  C_19
REMARK    4  A    between atoms: C_19  and  C_20
REMARK    5  A    between atoms: C_20  and  N_21
REMARK    6  A    between atoms: N_21  and  C_22
REMARK    7  A    between atoms: N_21  and  C_29
REMARK    8  A    between atoms: C_22  and  C_23
REMARK    9  A    between atoms: C_29  and  C_30
REMARK                            x       y       z     vdW  Elec       q    Type
REMARK                         _______ _______ _______ _____ _____    ______ ____
ROOT
ATOM      1  C   UNL     1       7.105   5.633  17.131  0.00  0.00    +0.000 C 
ATOM      2  C   UNL     1       5.984   5.440  16.085  0.00  0.00    +0.000 C 
ATOM      3  C   UNL     1       6.625   5.480  14.689  0.00  0.00    +0.000 C 
ATOM      4  C   UNL     1       5.311   4.055  16.279  0.00  0.00    +0.000 C 
ATOM      5  C   UNL     1       4.604   3.947  17.624  0.00  0.00    +0.000 C 
ATOM      6  N   UNL     1       4.634   2.806  18.231  0.00  0.00    +0.000 NA
ATOM      7  N   UNL     1       4.053   2.478  19.412  0.00  0.00    +0.000 N 
ATOM      8  C   UNL     1       3.169   3.066  20.291  0.00  0.00    +0.000 C 
ATOM      9  O   UNL     1       2.776   2.379  21.241  0.00  0.00    +0.000 OA
ATOM     10  C   UNL     1       2.678   4.452  20.192  0.00  0.00    +0.000 A 
ATOM     11  C   UNL     1       1.766   4.933  21.146  0.00  0.00    +0.000 A 
ATOM     12  C   UNL     1       1.314   6.252  21.104  0.00  0.00    +0.000 A 
ATOM     13  C   UNL     1       1.766   7.135  20.121  0.00  0.00    +0.000 A 
ATOM     14  C   UNL     1       2.669   6.653  19.160  0.00  0.00    +0.000 A 
ATOM     15  C   UNL     1       3.107   5.319  19.187  0.00  0.00    +0.000 A 
ATOM     16  C   UNL     1       3.938   5.135  18.081  0.00  0.00    +0.000 A 
ATOM     17  C   UNL     1       4.065   6.344  17.421  0.00  0.00    +0.000 A 
ATOM     18  N   UNL     1       3.279   7.269  18.073  0.00  0.00    +0.000 N 
ATOM     19  C   UNL     1       4.916   6.574  16.208  0.00  0.00    +0.000 C 
ATOM     20  H   UNL     1       4.264   1.523  19.692  0.00  0.00    +0.000 HD
ENDROOT
BRANCH  18  21
ATOM     21  C   UNL     1       3.026   8.639  17.621  0.00  0.00    +0.000 C 
BRANCH  21  22
ATOM     22  C   UNL     1       1.563   9.100  17.802  0.00  0.00    +0.000 C 
BRANCH  22  23
ATOM     23  N   UNL     1       1.360  10.235  18.756  0.00  0.00    +0.000 NA
BRANCH  23  24
ATOM     24  C   UNL     1       2.012  11.469  18.257  0.00  0.00    +0.000 C 
BRANCH  24  25
ATOM     25  C   UNL     1       1.734  12.735  19.050  0.00  0.00    +0.000 A 
ATOM     26  C   UNL     1       2.293  12.933  20.321  0.00  0.00    +0.000 A 
ATOM     27  C   UNL     1       2.124  14.147  20.992  0.00  0.00    +0.000 A 
ATOM     28  C   UNL     1       1.392  15.177  20.402  0.00  0.00    +0.000 A 
ATOM     29  C   UNL     1       0.815  14.989  19.149  0.00  0.00    +0.000 A 
ATOM     30  C   UNL     1       0.986  13.776  18.475  0.00  0.00    +0.000 A 
ENDBRANCH  24  25
ENDBRANCH  23  24
BRANCH  23  31
ATOM     31  C   UNL     1      -0.090  10.492  18.944  0.00  0.00    +0.000 C 
BRANCH  31  32
ATOM     32  C   UNL     1      -0.510  10.703  20.385  0.00  0.00    +0.000 A 
ATOM     33  C   UNL     1      -0.068   9.835  21.393  0.00  0.00    +0.000 A 
ATOM     34  C   UNL     1      -0.453  10.037  22.720  0.00  0.00    +0.000 A 
ATOM     35  C   UNL     1      -1.276  11.110  23.053  0.00  0.00    +0.000 A 
ATOM     36  C   UNL     1      -1.711  11.988  22.062  0.00  0.00    +0.000 A 
ATOM     37  C   UNL     1      -1.328  11.789  20.735  0.00  0.00    +0.000 A 
ENDBRANCH  31  32
ENDBRANCH  23  31
ENDBRANCH  22  23
ENDBRANCH  21  22
ENDBRANCH  18  21
TORSDOF 7
ENDMDL
MODEL 5
REMARK VINA RESULT:      -8.8      0.475      3.316
REMARK  Name = 
REMARK  9 active torsions:
REMARK  status: ('A' for Active; 'I' for Inactive)
REMARK    1  A    between atoms: C_1  and  C_2
REMARK    2  A    between atoms: C_2  and  C_3
REMARK    3  A    between atoms: N_18  and  C_19
REMARK    4  A    between atoms: C_19  and  C_20
REMARK    5  A    between atoms: C_20  and  N_21
REMARK    6  A    between atoms: N_21  and  C_22
REMARK    7  A    between atoms: N_21  and  C_29
REMARK    8  A    between atoms: C_22  and  C_23
REMARK    9  A    between atoms: C_29  and  C_30
REMARK                            x       y       z     vdW  Elec       q    Type
REMARK                         _______ _______ _______ _____ _____    ______ ____
ROOT
ATOM      1  C   UNL     1       0.590   2.949  19.532  0.00  0.00    +0.000 C 
ATOM      2  C   UNL     1       1.624   3.308  20.622  0.00  0.00    +0.000 C 
ATOM      3  C   UNL     1       1.119   2.744  21.960  0.00  0.00    +0.000 C 
ATOM      4  C   UNL     1       2.990   2.649  20.295  0.00  0.00    +0.000 C 
ATOM      5  C   UNL     1       3.591   3.191  19.004  0.00  0.00    +0.000 C 
ATOM      6  N   UNL     1       4.240   2.366  18.249  0.00  0.00    +0.000 NA
ATOM      7  N   UNL     1       4.876   2.634  17.081  0.00  0.00    +0.000 N 
ATOM      8  C   UNL     1       5.208   3.759  16.357  0.00  0.00    +0.000 C 
ATOM      9  O   UNL     1       5.915   3.596  15.355  0.00  0.00    +0.000 OA
ATOM     10  C   UNL     1       4.768   5.128  16.676  0.00  0.00    +0.000 A 
ATOM     11  C   UNL     1       5.186   6.197  15.865  0.00  0.00    +0.000 A 
ATOM     12  C   UNL     1       4.754   7.499  16.118  0.00  0.00    +0.000 A 
ATOM     13  C   UNL     1       3.883   7.775  17.174  0.00  0.00    +0.000 A 
ATOM     14  C   UNL     1       3.473   6.710  17.992  0.00  0.00    +0.000 A 
ATOM     15  C   UNL     1       3.926   5.402  17.755  0.00  0.00    +0.000 A 
ATOM     16  C   UNL     1       3.398   4.593  18.761  0.00  0.00    +0.000 A 
ATOM     17  C   UNL     1       2.583   5.368  19.566  0.00  0.00    +0.000 A 
ATOM     18  N   UNL     1       2.639   6.665  19.104  0.00  0.00    +0.000 N 
ATOM     19  C   UNL     1       1.792   4.858  20.732  0.00  0.00    +0.000 C 
ATOM     20  H   UNL     1       5.276   1.799  16.660  0.00  0.00    +0.000 HD
ENDROOT
BRANCH  18  21
ATOM     21  C   UNL     1       2.027   7.827  19.753  0.00  0.00    +0.000 C 
BRANCH  21  22
ATOM     22  C   UNL     1       1.342   8.806  18.773  0.00  0.00    +0.000 C 
BRANCH  22  23
ATOM     23  N   UNL     1       0.533   9.891  19.410  0.00  0.00    +0.000 NA
BRANCH  23  24
ATOM     24  C   UNL     1      -0.909   9.548  19.408  0.00  0.00    +0.000 C 
BRANCH  24  25
ATOM     25  C   UNL     1      -1.741  10.178  18.302  0.00  0.00    +0.000 A 
ATOM     26  C   UNL     1      -1.670   9.707  16.983  0.00  0.00    +0.000 A 
ATOM     27  C   UNL     1      -2.521  10.216  15.999  0.00  0.00    +0.000 A 
ATOM     28  C   UNL     1      -3.451  11.204  16.320  0.00  0.00    +0.000 A 
ATOM     29  C   UNL     1      -3.520  11.695  17.621  0.00  0.00    +0.000 A 
ATOM     30  C   UNL     1      -2.672  11.184  18.608  0.00  0.00    +0.000 A 
ENDBRANCH  24  25
ENDBRANCH  23  24
BRANCH  23  31
ATOM     31  C   UNL     1       0.980  10.108  20.810  0.00  0.00    +0.000 C 
BRANCH  31  32
ATOM     32  C   UNL     1       0.124  11.078  21.600  0.00  0.00    +0.000 A 
ATOM     33  C   UNL     1       0.202  12.458  21.361  0.00  0.00    +0.000 A 
ATOM     34  C   UNL     1      -0.592  13.348  22.087  0.00  0.00    +0.000 A 
ATOM     35  C   UNL     1      -1.474  12.869  23.053  0.00  0.00    +0.000 A 
ATOM     36  C   UNL     1      -1.570  11.499  23.291  0.00  0.00    +0.000 A 
ATOM     37  C   UNL     1      -0.778  10.607  22.566  0.00  0.00    +0.000 A 
ENDBRANCH  31  32
ENDBRANCH  23  31
ENDBRANCH  22  23
ENDBRANCH  21  22
ENDBRANCH  18  21
TORSDOF 7
ENDMDL
MODEL 6
REMARK VINA RESULT:      -8.8      1.368      2.602
REMARK  Name = 
REMARK  9 active torsions:
REMARK  status: ('A' for Active; 'I' for Inactive)
REMARK    1  A    between atoms: C_1  and  C_2
REMARK    2  A    between atoms: C_2  and  C_3
REMARK    3  A    between atoms: N_18  and  C_19
REMARK    4  A    between atoms: C_19  and  C_20
REMARK    5  A    between atoms: C_20  and  N_21
REMARK    6  A    between atoms: N_21  and  C_22
REMARK    7  A    between atoms: N_21  and  C_29
REMARK    8  A    between atoms: C_22  and  C_23
REMARK    9  A    between atoms: C_29  and  C_30
REMARK                            x       y       z     vdW  Elec       q    Type
REMARK                         _______ _______ _______ _____ _____    ______ ____
ROOT
ATOM      1  C   UNL     1       0.575   2.932  19.585  0.00  0.00    +0.000 C 
ATOM      2  C   UNL     1       1.628   3.265  20.666  0.00  0.00    +0.000 C 
ATOM      3  C   UNL     1       1.126   2.705  22.006  0.00  0.00    +0.000 C 
ATOM      4  C   UNL     1       2.977   2.581  20.321  0.00  0.00    +0.000 C 
ATOM      5  C   UNL     1       3.574   3.117  19.025  0.00  0.00    +0.000 C 
ATOM      6  N   UNL     1       4.199   2.284  18.260  0.00  0.00    +0.000 NA
ATOM      7  N   UNL     1       4.827   2.545  17.086  0.00  0.00    +0.000 N 
ATOM      8  C   UNL     1       5.174   3.666  16.364  0.00  0.00    +0.000 C 
ATOM      9  O   UNL     1       5.866   3.495  15.354  0.00  0.00    +0.000 OA
ATOM     10  C   UNL     1       4.764   5.043  16.694  0.00  0.00    +0.000 A 
ATOM     11  C   UNL     1       5.195   6.106  15.884  0.00  0.00    +0.000 A 
ATOM     12  C   UNL     1       4.791   7.416  16.147  0.00  0.00    +0.000 A 
ATOM     13  C   UNL     1       3.937   7.704  17.214  0.00  0.00    +0.000 A 
ATOM     14  C   UNL     1       3.515   6.643  18.032  0.00  0.00    +0.000 A 
ATOM     15  C   UNL     1       3.939   5.328  17.783  0.00  0.00    +0.000 A 
ATOM     16  C   UNL     1       3.406   4.525  18.792  0.00  0.00    +0.000 A 
ATOM     17  C   UNL     1       2.615   5.312  19.609  0.00  0.00    +0.000 A 
ATOM     18  N   UNL     1       2.692   6.610  19.152  0.00  0.00    +0.000 N 
ATOM     19  C   UNL     1       1.827   4.811  20.781  0.00  0.00    +0.000 C 
ATOM     20  H   UNL     1       5.206   1.703  16.657  0.00  0.00    +0.000 HD
ENDROOT
BRANCH  18  21
ATOM     21  C   UNL     1       2.110   7.780  19.813  0.00  0.00    +0.000 C 
BRANCH  21  22
ATOM     22  C   UNL     1       1.391   8.751  18.852  0.00  0.00    +0.000 C 
BRANCH  22  23
ATOM     23  N   UNL     1       1.039  10.086  19.431  0.00  0.00    +0.000 NA
BRANCH  23  24
ATOM     24  C   UNL     1       1.658  11.182  18.650  0.00  0.00    +0.000 C 
BRANCH  24  25
ATOM     25  C   UNL     1       1.475  12.583  19.210  0.00  0.00    +0.000 A 
ATOM     26  C   UNL     1       0.748  13.557  18.507  0.00  0.00    +0.000 A 
ATOM     27  C   UNL     1       0.490  14.804  19.082  0.00  0.00    +0.000 A 
ATOM     28  C   UNL     1       0.958  15.096  20.363  0.00  0.00    +0.000 A 
ATOM     29  C   UNL     1       1.697  14.147  21.064  0.00  0.00    +0.000 A 
ATOM     30  C   UNL     1       1.953  12.897  20.493  0.00  0.00    +0.000 A 
ENDBRANCH  24  25
ENDBRANCH  23  24
BRANCH  23  31
ATOM     31  C   UNL     1      -0.435  10.266  19.440  0.00  0.00    +0.000 C 
BRANCH  31  32
ATOM     32  C   UNL     1      -0.975  10.973  20.668  0.00  0.00    +0.000 A 
ATOM     33  C   UNL     1      -1.883  12.034  20.541  0.00  0.00    +0.000 A 
ATOM     34  C   UNL     1      -2.381  12.678  21.675  0.00  0.00    +0.000 A 
ATOM     35  C   UNL     1      -1.983  12.265  22.945  0.00  0.00    +0.000 A 
ATOM     36  C   UNL     1      -1.091  11.203  23.084  0.00  0.00    +0.000 A 
ATOM     37  C   UNL     1      -0.592  10.557  21.952  0.00  0.00    +0.000 A 
ENDBRANCH  31  32
ENDBRANCH  23  31
ENDBRANCH  22  23
ENDBRANCH  21  22
ENDBRANCH  18  21
TORSDOF 7
ENDMDL
MODEL 7
REMARK VINA RESULT:      -8.8      3.176      9.457
REMARK  Name = 
REMARK  9 active torsions:
REMARK  status: ('A' for Active; 'I' for Inactive)
REMARK    1  A    between atoms: C_1  and  C_2
REMARK    2  A    between atoms: C_2  and  C_3
REMARK    3  A    between atoms: N_18  and  C_19
REMARK    4  A    between atoms: C_19  and  C_20
REMARK    5  A    between atoms: C_20  and  N_21
REMARK    6  A    between atoms: N_21  and  C_22
REMARK    7  A    between atoms: N_21  and  C_29
REMARK    8  A    between atoms: C_22  and  C_23
REMARK    9  A    between atoms: C_29  and  C_30
REMARK                            x       y       z     vdW  Elec       q    Type
REMARK                         _______ _______ _______ _____ _____    ______ ____
ROOT
ATOM      1  C   UNL     1       1.730  14.620  18.908  0.00  0.00    +0.000 C 
ATOM      2  C   UNL     1       1.882  13.657  20.108  0.00  0.00    +0.000 C 
ATOM      3  C   UNL     1       3.154  14.053  20.875  0.00  0.00    +0.000 C 
ATOM      4  C   UNL     1       0.667  13.802  21.061  0.00  0.00    +0.000 C 
ATOM      5  C   UNL     1      -0.636  13.380  20.393  0.00  0.00    +0.000 C 
ATOM      6  N   UNL     1      -1.707  14.043  20.688  0.00  0.00    +0.000 NA
ATOM      7  N   UNL     1      -2.968  13.825  20.239  0.00  0.00    +0.000 N 
ATOM      8  C   UNL     1      -3.617  12.853  19.507  0.00  0.00    +0.000 C 
ATOM      9  O   UNL     1      -4.844  12.957  19.395  0.00  0.00    +0.000 OA
ATOM     10  C   UNL     1      -2.956  11.721  18.835  0.00  0.00    +0.000 A 
ATOM     11  C   UNL     1      -3.731  10.787  18.128  0.00  0.00    +0.000 A 
ATOM     12  C   UNL     1      -3.130   9.727  17.447  0.00  0.00    +0.000 A 
ATOM     13  C   UNL     1      -1.743   9.572  17.439  0.00  0.00    +0.000 A 
ATOM     14  C   UNL     1      -0.967  10.499  18.155  0.00  0.00    +0.000 A 
ATOM     15  C   UNL     1      -1.570  11.552  18.860  0.00  0.00    +0.000 A 
ATOM     16  C   UNL     1      -0.552  12.251  19.509  0.00  0.00    +0.000 A 
ATOM     17  C   UNL     1       0.661  11.684  19.161  0.00  0.00    +0.000 A 
ATOM     18  N   UNL     1       0.406  10.604  18.344  0.00  0.00    +0.000 N 
ATOM     19  C   UNL     1       2.001  12.179  19.614  0.00  0.00    +0.000 C 
ATOM     20  H   UNL     1      -3.626  14.516  20.590  0.00  0.00    +0.000 HD
ENDROOT
BRANCH  18  21
ATOM     21  C   UNL     1       1.406   9.649  17.860  0.00  0.00    +0.000 C 
BRANCH  21  22
ATOM     22  C   UNL     1       1.756   8.538  18.875  0.00  0.00    +0.000 C 
BRANCH  22  23
ATOM     23  N   UNL     1       2.561   7.401  18.329  0.00  0.00    +0.000 NA
BRANCH  23  24
ATOM     24  C   UNL     1       3.831   7.886  17.739  0.00  0.00    +0.000 C 
BRANCH  24  25
ATOM     25  C   UNL     1       4.787   6.814  17.242  0.00  0.00    +0.000 A 
ATOM     26  C   UNL     1       5.657   6.153  18.122  0.00  0.00    +0.000 A 
ATOM     27  C   UNL     1       6.448   5.091  17.676  0.00  0.00    +0.000 A 
ATOM     28  C   UNL     1       6.384   4.680  16.344  0.00  0.00    +0.000 A 
ATOM     29  C   UNL     1       5.540   5.340  15.455  0.00  0.00    +0.000 A 
ATOM     30  C   UNL     1       4.744   6.399  15.901  0.00  0.00    +0.000 A 
ENDBRANCH  24  25
ENDBRANCH  23  24
BRANCH  23  31
ATOM     31  C   UNL     1       2.867   6.427  19.408  0.00  0.00    +0.000 C 
BRANCH  31  32
ATOM     32  C   UNL     1       2.184   5.083  19.254  0.00  0.00    +0.000 A 
ATOM     33  C   UNL     1       2.269   4.372  18.048  0.00  0.00    +0.000 A 
ATOM     34  C   UNL     1       1.643   3.131  17.913  0.00  0.00    +0.000 A 
ATOM     35  C   UNL     1       0.933   2.587  18.981  0.00  0.00    +0.000 A 
ATOM     36  C   UNL     1       0.852   3.278  20.188  0.00  0.00    +0.000 A 
ATOM     37  C   UNL     1       1.477   4.518  20.326  0.00  0.00    +0.000 A 
ENDBRANCH  31  32
ENDBRANCH  23  31
ENDBRANCH  22  23
ENDBRANCH  21  22
ENDBRANCH  18  21
TORSDOF 7
ENDMDL
MODEL 8
REMARK VINA RESULT:      -8.7      1.467      3.803
REMARK  Name = 
REMARK  9 active torsions:
REMARK  status: ('A' for Active; 'I' for Inactive)
REMARK    1  A    between atoms: C_1  and  C_2
REMARK    2  A    between atoms: C_2  and  C_3
REMARK    3  A    between atoms: N_18  and  C_19
REMARK    4  A    between atoms: C_19  and  C_20
REMARK    5  A    between atoms: C_20  and  N_21
REMARK    6  A    between atoms: N_21  and  C_22
REMARK    7  A    between atoms: N_21  and  C_29
REMARK    8  A    between atoms: C_22  and  C_23
REMARK    9  A    between atoms: C_29  and  C_30
REMARK                            x       y       z     vdW  Elec       q    Type
REMARK                         _______ _______ _______ _____ _____    ______ ____
ROOT
ATOM      1  C   UNL     1       6.994   5.673  16.996  0.00  0.00    +0.000 C 
ATOM      2  C   UNL     1       5.869   5.666  15.937  0.00  0.00    +0.000 C 
ATOM      3  C   UNL     1       6.504   5.952  14.567  0.00  0.00    +0.000 C 
ATOM      4  C   UNL     1       5.197   4.268  15.886  0.00  0.00    +0.000 C 
ATOM      5  C   UNL     1       4.496   3.923  17.194  0.00  0.00    +0.000 C 
ATOM      6  N   UNL     1       4.529   2.693  17.590  0.00  0.00    +0.000 NA
ATOM      7  N   UNL     1       3.954   2.161  18.697  0.00  0.00    +0.000 N 
ATOM      8  C   UNL     1       3.073   2.584  19.670  0.00  0.00    +0.000 C 
ATOM      9  O   UNL     1       2.685   1.740  20.486  0.00  0.00    +0.000 OA
ATOM     10  C   UNL     1       2.582   3.965  19.820  0.00  0.00    +0.000 A 
ATOM     11  C   UNL     1       1.674   4.269  20.848  0.00  0.00    +0.000 A 
ATOM     12  C   UNL     1       1.222   5.575  21.041  0.00  0.00    +0.000 A 
ATOM     13  C   UNL     1       1.669   6.618  20.227  0.00  0.00    +0.000 A 
ATOM     14  C   UNL     1       2.568   6.314  19.192  0.00  0.00    +0.000 A 
ATOM     15  C   UNL     1       3.006   4.997  18.981  0.00  0.00    +0.000 A 
ATOM     16  C   UNL     1       3.832   5.012  17.857  0.00  0.00    +0.000 A 
ATOM     17  C   UNL     1       3.956   6.318  17.420  0.00  0.00    +0.000 A 
ATOM     18  N   UNL     1       3.173   7.113  18.228  0.00  0.00    +0.000 N 
ATOM     19  C   UNL     1       4.801   6.760  16.263  0.00  0.00    +0.000 C 
ATOM     20  H   UNL     1       4.166   1.172  18.804  0.00  0.00    +0.000 HD
ENDROOT
BRANCH  18  21
ATOM     21  C   UNL     1       2.917   8.541  18.026  0.00  0.00    +0.000 C 
BRANCH  21  22
ATOM     22  C   UNL     1       1.484   8.861  17.548  0.00  0.00    +0.000 C 
BRANCH  22  23
ATOM     23  N   UNL     1       0.623   9.582  18.537  0.00  0.00    +0.000 NA
BRANCH  23  24
ATOM     24  C   UNL     1       1.413  10.008  19.716  0.00  0.00    +0.000 C 
BRANCH  24  25
ATOM     25  C   UNL     1       0.614  10.377  20.955  0.00  0.00    +0.000 A 
ATOM     26  C   UNL     1       0.281  11.711  21.233  0.00  0.00    +0.000 A 
ATOM     27  C   UNL     1      -0.550  12.027  22.311  0.00  0.00    +0.000 A 
ATOM     28  C   UNL     1      -1.055  11.015  23.127  0.00  0.00    +0.000 A 
ATOM     29  C   UNL     1      -0.718   9.688  22.874  0.00  0.00    +0.000 A 
ATOM     30  C   UNL     1       0.110   9.370  21.794  0.00  0.00    +0.000 A 
ENDBRANCH  24  25
ENDBRANCH  23  24
BRANCH  23  31
ATOM     31  C   UNL     1       0.010  10.778  17.904  0.00  0.00    +0.000 C 
BRANCH  31  32
ATOM     32  C   UNL     1      -1.506  10.770  17.882  0.00  0.00    +0.000 A 
ATOM     33  C   UNL     1      -2.237  11.700  18.635  0.00  0.00    +0.000 A 
ATOM     34  C   UNL     1      -3.633  11.692  18.607  0.00  0.00    +0.000 A 
ATOM     35  C   UNL     1      -4.311  10.761  17.824  0.00  0.00    +0.000 A 
ATOM     36  C   UNL     1      -3.595   9.840  17.061  0.00  0.00    +0.000 A 
ATOM     37  C   UNL     1      -2.200   9.845  17.087  0.00  0.00    +0.000 A 
ENDBRANCH  31  32
ENDBRANCH  23  31
ENDBRANCH  22  23
ENDBRANCH  21  22
ENDBRANCH  18  21
TORSDOF 7
ENDMDL
MODEL 9
REMARK VINA RESULT:      -8.5      1.558      2.924
REMARK  Name = 
REMARK  9 active torsions:
REMARK  status: ('A' for Active; 'I' for Inactive)
REMARK    1  A    between atoms: C_1  and  C_2
REMARK    2  A    between atoms: C_2  and  C_3
REMARK    3  A    between atoms: N_18  and  C_19
REMARK    4  A    between atoms: C_19  and  C_20
REMARK    5  A    between atoms: C_20  and  N_21
REMARK    6  A    between atoms: N_21  and  C_22
REMARK    7  A    between atoms: N_21  and  C_29
REMARK    8  A    between atoms: C_22  and  C_23
REMARK    9  A    between atoms: C_29  and  C_30
REMARK                            x       y       z     vdW  Elec       q    Type
REMARK                         _______ _______ _______ _____ _____    ______ ____
ROOT
ATOM      1  C   UNL     1       0.589   2.921  19.599  0.00  0.00    +0.000 C 
ATOM      2  C   UNL     1       1.642   3.245  20.682  0.00  0.00    +0.000 C 
ATOM      3  C   UNL     1       1.155   2.647  22.011  0.00  0.00    +0.000 C 
ATOM      4  C   UNL     1       2.999   2.588  20.315  0.00  0.00    +0.000 C 
ATOM      5  C   UNL     1       3.582   3.161  19.029  0.00  0.00    +0.000 C 
ATOM      6  N   UNL     1       4.214   2.354  18.242  0.00  0.00    +0.000 NA
ATOM      7  N   UNL     1       4.833   2.650  17.071  0.00  0.00    +0.000 N 
ATOM      8  C   UNL     1       5.160   3.793  16.373  0.00  0.00    +0.000 C 
ATOM      9  O   UNL     1       5.850   3.654  15.356  0.00  0.00    +0.000 OA
ATOM     10  C   UNL     1       4.734   5.155  16.737  0.00  0.00    +0.000 A 
ATOM     11  C   UNL     1       5.145   6.243  15.949  0.00  0.00    +0.000 A 
ATOM     12  C   UNL     1       4.724   7.541  16.244  0.00  0.00    +0.000 A 
ATOM     13  C   UNL     1       3.872   7.792  17.321  0.00  0.00    +0.000 A 
ATOM     14  C   UNL     1       3.469   6.707  18.116  0.00  0.00    +0.000 A 
ATOM     15  C   UNL     1       3.910   5.404  17.836  0.00  0.00    +0.000 A 
ATOM     16  C   UNL     1       3.393   4.571  18.828  0.00  0.00    +0.000 A 
ATOM     17  C   UNL     1       2.596   5.328  19.666  0.00  0.00    +0.000 A 
ATOM     18  N   UNL     1       2.652   6.637  19.239  0.00  0.00    +0.000 N 
ATOM     19  C   UNL     1       1.820   4.790  20.831  0.00  0.00    +0.000 C 
ATOM     20  H   UNL     1       5.221   1.825  16.621  0.00  0.00    +0.000 HD
ENDROOT
BRANCH  18  21
ATOM     21  C   UNL     1       2.057   7.784  19.930  0.00  0.00    +0.000 C 
BRANCH  21  22
ATOM     22  C   UNL     1       1.452   8.843  18.981  0.00  0.00    +0.000 C 
BRANCH  22  23
ATOM     23  N   UNL     1       0.956  10.090  19.644  0.00  0.00    +0.000 NA
BRANCH  23  24
ATOM     24  C   UNL     1       0.986  11.236  18.705  0.00  0.00    +0.000 C 
BRANCH  24  25
ATOM     25  C   UNL     1       1.914  12.380  19.081  0.00  0.00    +0.000 A 
ATOM     26  C   UNL     1       2.681  13.041  18.110  0.00  0.00    +0.000 A 
ATOM     27  C   UNL     1       3.443  14.163  18.448  0.00  0.00    +0.000 A 
ATOM     28  C   UNL     1       3.451  14.635  19.760  0.00  0.00    +0.000 A 
ATOM     29  C   UNL     1       2.710  13.977  20.738  0.00  0.00    +0.000 A 
ATOM     30  C   UNL     1       1.945  12.857  20.401  0.00  0.00    +0.000 A 
ENDBRANCH  24  25
ENDBRANCH  23  24
BRANCH  23  31
ATOM     31  C   UNL     1      -0.434   9.894  20.128  0.00  0.00    +0.000 C 
BRANCH  31  32
ATOM     32  C   UNL     1      -0.996  11.061  20.915  0.00  0.00    +0.000 A 
ATOM     33  C   UNL     1      -0.700  11.214  22.277  0.00  0.00    +0.000 A 
ATOM     34  C   UNL     1      -1.215  12.294  22.996  0.00  0.00    +0.000 A 
ATOM     35  C   UNL     1      -2.025  13.234  22.361  0.00  0.00    +0.000 A 
ATOM     36  C   UNL     1      -2.316  13.099  21.005  0.00  0.00    +0.000 A 
ATOM     37  C   UNL     1      -1.801  12.021  20.284  0.00  0.00    +0.000 A 
ENDBRANCH  31  32
ENDBRANCH  23  31
ENDBRANCH  22  23
ENDBRANCH  21  22
ENDBRANCH  18  21
TORSDOF 7
ENDMDL
