MODEL 1
REMARK VINA RESULT:      -7.6      0.000      0.000
REMARK  Name = 
REMARK  11 active torsions:
REMARK  status: ('A' for Active; 'I' for Inactive)
REMARK    1  A    between atoms: C_1  and  C_2
REMARK    2  A    between atoms: C_2  and  O_3
REMARK    3  A    between atoms: O_3  and  C_4
REMARK    4  A    between atoms: C_4  and  C_6
REMARK    5  A    between atoms: C_6  and  C_7
REMARK    6  A    between atoms: C_6  and  S_8
REMARK    7  A    between atoms: S_8  and  C_9
REMARK    8  A    between atoms: N_18  and  C_19
REMARK    9  A    between atoms: N_20  and  C_21
REMARK   10  A    between atoms: C_21  and  C_22
REMARK   11  A    between atoms: C_22  and  C_23
REMARK                            x       y       z     vdW  Elec       q    Type
REMARK                         _______ _______ _______ _____ _____    ______ ____
ROOT
ATOM      1  C   UNL     1       2.161   6.521  20.142  0.00  0.00    +0.000 A 
ATOM      2  N   UNL     1       1.459   7.147  21.060  0.00  0.00    +0.000 NA
ATOM      3  C   UNL     1       1.238   8.379  20.532  0.00  0.00    +0.000 A 
ATOM      4  C   UNL     1       1.757   8.513  19.265  0.00  0.00    +0.000 A 
ATOM      5  C   UNL     1       1.572   9.737  18.537  0.00  0.00    +0.000 A 
ATOM      6  O   UNL     1       1.912   9.986  17.387  0.00  0.00    +0.000 OA
ATOM      7  N   UNL     1       0.918  10.711  19.249  0.00  0.00    +0.000 N 
ATOM      8  C   UNL     1       0.382  10.609  20.508  0.00  0.00    +0.000 A 
ATOM      9  O   UNL     1      -0.215  11.575  20.975  0.00  0.00    +0.000 OA
ATOM     10  N   UNL     1       0.549   9.400  21.165  0.00  0.00    +0.000 N 
ATOM     11  C   UNL     1       0.016   9.232  22.501  0.00  0.00    +0.000 C 
ATOM     12  N   UNL     1       2.382   7.301  19.011  0.00  0.00    +0.000 N 
ATOM     13  H   UNL     1       0.771  11.587  18.774  0.00  0.00    +0.000 HD
ENDROOT
BRANCH   1  14
ATOM     14  S   UNL     1       2.772   4.902  20.343  0.00  0.00    +0.000 S 
BRANCH  14  15
ATOM     15  C   UNL     1       1.222   3.927  20.397  0.00  0.00    +0.000 C 
ATOM     16  C   UNL     1       1.286   2.918  21.536  0.00  0.00    +0.000 C 
BRANCH  15  17
ATOM     17  C   UNL     1       1.003   3.200  19.080  0.00  0.00    +0.000 C 
ATOM     18  O   UNL     1       0.211   2.285  18.890  0.00  0.00    +0.000 OA
BRANCH  17  19
ATOM     19  O   UNL     1       1.863   3.690  18.141  0.00  0.00    +0.000 OA
BRANCH  19  21
ATOM     20  C   UNL     1       3.997   2.777  17.595  0.00  0.00    +0.000 C 
ATOM     21  C   UNL     1       2.504   2.697  17.329  0.00  0.00    +0.000 C 
ENDBRANCH  19  21
ENDBRANCH  17  19
ENDBRANCH  15  17
ENDBRANCH  14  15
ENDBRANCH   1  14
BRANCH  12  22
ATOM     22  C   UNL     1       3.060   6.822  17.808  0.00  0.00    +0.000 C 
BRANCH  22  23
ATOM     23  C   UNL     1       4.542   7.149  17.666  0.00  0.00    +0.000 C 
BRANCH  23  24
ATOM     24  C   UNL     1       5.418   6.203  16.882  0.00  0.00    +0.000 A 
ATOM     25  C   UNL     1       6.456   5.558  17.583  0.00  0.00    +0.000 A 
ATOM     26  C   UNL     1       7.301   4.654  16.949  0.00  0.00    +0.000 A 
ATOM     27  C   UNL     1       7.113   4.369  15.602  0.00  0.00    +0.000 A 
ATOM     28  C   UNL     1       6.081   4.989  14.896  0.00  0.00    +0.000 A 
ATOM     29  C   UNL     1       5.233   5.900  15.532  0.00  0.00    +0.000 A 
ENDBRANCH  23  24
ENDBRANCH  22  23
ENDBRANCH  12  22
TORSDOF 8
ENDMDL
MODEL 2
REMARK VINA RESULT:      -7.5      2.960      6.620
REMARK  Name = 
REMARK  11 active torsions:
REMARK  status: ('A' for Active; 'I' for Inactive)
REMARK    1  A    between atoms: C_1  and  C_2
REMARK    2  A    between atoms: C_2  and  O_3
REMARK    3  A    between atoms: O_3  and  C_4
REMARK    4  A    between atoms: C_4  and  C_6
REMARK    5  A    between atoms: C_6  and  C_7
REMARK    6  A    between atoms: C_6  and  S_8
REMARK    7  A    between atoms: S_8  and  C_9
REMARK    8  A    between atoms: N_18  and  C_19
REMARK    9  A    between atoms: N_20  and  C_21
REMARK   10  A    between atoms: C_21  and  C_22
REMARK   11  A    between atoms: C_22  and  C_23
REMARK                            x       y       z     vdW  Elec       q    Type
REMARK                         _______ _______ _______ _____ _____    ______ ____
ROOT
ATOM      1  C   UNL     1       4.247   5.829  17.589  0.00  0.00    +0.000 A 
ATOM      2  N   UNL     1       4.261   4.617  18.095  0.00  0.00    +0.000 NA
ATOM      3  C   UNL     1       3.488   4.709  19.209  0.00  0.00    +0.000 A 
ATOM      4  C   UNL     1       2.948   5.964  19.376  0.00  0.00    +0.000 A 
ATOM      5  C   UNL     1       2.064   6.225  20.477  0.00  0.00    +0.000 A 
ATOM      6  O   UNL     1       1.457   7.259  20.724  0.00  0.00    +0.000 OA
ATOM      7  N   UNL     1       1.897   5.154  21.320  0.00  0.00    +0.000 N 
ATOM      8  C   UNL     1       2.413   3.891  21.178  0.00  0.00    +0.000 A 
ATOM      9  O   UNL     1       2.119   3.037  22.010  0.00  0.00    +0.000 OA
ATOM     10  N   UNL     1       3.233   3.666  20.083  0.00  0.00    +0.000 N 
ATOM     11  C   UNL     1       3.817   2.356  19.884  0.00  0.00    +0.000 C 
ATOM     12  N   UNL     1       3.460   6.709  18.325  0.00  0.00    +0.000 N 
ATOM     13  H   UNL     1       1.286   5.299  22.108  0.00  0.00    +0.000 HD
ENDROOT
BRANCH   1  14
ATOM     14  S   UNL     1       5.146   6.284  16.168  0.00  0.00    +0.000 S 
BRANCH  14  15
ATOM     15  C   UNL     1       6.199   4.807  15.910  0.00  0.00    +0.000 C 
ATOM     16  C   UNL     1       7.402   4.860  16.843  0.00  0.00    +0.000 C 
BRANCH  15  17
ATOM     17  C   UNL     1       6.673   4.735  14.468  0.00  0.00    +0.000 C 
ATOM     18  O   UNL     1       7.709   5.222  14.029  0.00  0.00    +0.000 OA
BRANCH  17  19
ATOM     19  O   UNL     1       5.741   4.084  13.713  0.00  0.00    +0.000 OA
BRANCH  19  21
ATOM     20  C   UNL     1       5.053   3.051  11.677  0.00  0.00    +0.000 C 
ATOM     21  C   UNL     1       6.245   3.482  12.513  0.00  0.00    +0.000 C 
ENDBRANCH  19  21
ENDBRANCH  17  19
ENDBRANCH  15  17
ENDBRANCH  14  15
ENDBRANCH   1  14
BRANCH  12  22
ATOM     22  C   UNL     1       3.202   8.095  17.937  0.00  0.00    +0.000 C 
BRANCH  22  23
ATOM     23  C   UNL     1       1.754   8.483  17.662  0.00  0.00    +0.000 C 
BRANCH  23  24
ATOM     24  C   UNL     1       1.282   9.854  18.080  0.00  0.00    +0.000 A 
ATOM     25  C   UNL     1      -0.083   9.995  18.398  0.00  0.00    +0.000 A 
ATOM     26  C   UNL     1      -0.605  11.215  18.814  0.00  0.00    +0.000 A 
ATOM     27  C   UNL     1       0.237  12.316  18.931  0.00  0.00    +0.000 A 
ATOM     28  C   UNL     1       1.593  12.190  18.633  0.00  0.00    +0.000 A 
ATOM     29  C   UNL     1       2.119  10.964  18.213  0.00  0.00    +0.000 A 
ENDBRANCH  23  24
ENDBRANCH  22  23
ENDBRANCH  12  22
TORSDOF 8
ENDMDL
MODEL 3
REMARK VINA RESULT:      -7.5      0.604      1.168
REMARK  Name = 
REMARK  11 active torsions:
REMARK  status: ('A' for Active; 'I' for Inactive)
REMARK    1  A    between atoms: C_1  and  C_2
REMARK    2  A    between atoms: C_2  and  O_3
REMARK    3  A    between atoms: O_3  and  C_4
REMARK    4  A    between atoms: C_4  and  C_6
REMARK    5  A    between atoms: C_6  and  C_7
REMARK    6  A    between atoms: C_6  and  S_8
REMARK    7  A    between atoms: S_8  and  C_9
REMARK    8  A    between atoms: N_18  and  C_19
REMARK    9  A    between atoms: N_20  and  C_21
REMARK   10  A    between atoms: C_21  and  C_22
REMARK   11  A    between atoms: C_22  and  C_23
REMARK                            x       y       z     vdW  Elec       q    Type
REMARK                         _______ _______ _______ _____ _____    ______ ____
ROOT
ATOM      1  C   UNL     1       2.128   6.626  20.149  0.00  0.00    +0.000 A 
ATOM      2  N   UNL     1       1.492   7.280  21.094  0.00  0.00    +0.000 NA
ATOM      3  C   UNL     1       1.284   8.515  20.568  0.00  0.00    +0.000 A 
ATOM      4  C   UNL     1       1.745   8.624  19.276  0.00  0.00    +0.000 A 
ATOM      5  C   UNL     1       1.562   9.848  18.549  0.00  0.00    +0.000 A 
ATOM      6  O   UNL     1       1.853  10.080  17.382  0.00  0.00    +0.000 OA
ATOM      7  N   UNL     1       0.974  10.847  19.285  0.00  0.00    +0.000 N 
ATOM      8  C   UNL     1       0.498  10.770  20.569  0.00  0.00    +0.000 A 
ATOM      9  O   UNL     1      -0.045  11.758  21.057  0.00  0.00    +0.000 OA
ATOM     10  N   UNL     1       0.660   9.560  21.227  0.00  0.00    +0.000 N 
ATOM     11  C   UNL     1       0.188   9.418  22.588  0.00  0.00    +0.000 C 
ATOM     12  N   UNL     1       2.318   7.391  19.002  0.00  0.00    +0.000 N 
ATOM     13  H   UNL     1       0.832  11.725  18.810  0.00  0.00    +0.000 HD
ENDROOT
BRANCH   1  14
ATOM     14  S   UNL     1       2.697   4.990  20.332  0.00  0.00    +0.000 S 
BRANCH  14  15
ATOM     15  C   UNL     1       1.206   4.028  19.878  0.00  0.00    +0.000 C 
ATOM     16  C   UNL     1       0.992   2.902  20.880  0.00  0.00    +0.000 C 
BRANCH  15  17
ATOM     17  C   UNL     1       1.350   3.449  18.480  0.00  0.00    +0.000 C 
ATOM     18  O   UNL     1       1.098   4.032  17.432  0.00  0.00    +0.000 OA
BRANCH  17  19
ATOM     19  O   UNL     1       1.761   2.149  18.566  0.00  0.00    +0.000 OA
BRANCH  19  21
ATOM     20  C   UNL     1       4.069   1.812  19.059  0.00  0.00    +0.000 C 
ATOM     21  C   UNL     1       3.028   1.873  17.955  0.00  0.00    +0.000 C 
ENDBRANCH  19  21
ENDBRANCH  17  19
ENDBRANCH  15  17
ENDBRANCH  14  15
ENDBRANCH   1  14
BRANCH  12  22
ATOM     22  C   UNL     1       2.920   6.883  17.771  0.00  0.00    +0.000 C 
BRANCH  22  23
ATOM     23  C   UNL     1       4.354   7.306  17.471  0.00  0.00    +0.000 C 
BRANCH  23  24
ATOM     24  C   UNL     1       5.320   6.267  16.958  0.00  0.00    +0.000 A 
ATOM     25  C   UNL     1       5.279   5.975  15.581  0.00  0.00    +0.000 A 
ATOM     26  C   UNL     1       6.146   5.047  15.013  0.00  0.00    +0.000 A 
ATOM     27  C   UNL     1       7.081   4.402  15.816  0.00  0.00    +0.000 A 
ATOM     28  C   UNL     1       7.144   4.690  17.180  0.00  0.00    +0.000 A 
ATOM     29  C   UNL     1       6.271   5.621  17.751  0.00  0.00    +0.000 A 
ENDBRANCH  23  24
ENDBRANCH  22  23
ENDBRANCH  12  22
TORSDOF 8
ENDMDL
MODEL 4
REMARK VINA RESULT:      -7.3      2.973      6.811
REMARK  Name = 
REMARK  11 active torsions:
REMARK  status: ('A' for Active; 'I' for Inactive)
REMARK    1  A    between atoms: C_1  and  C_2
REMARK    2  A    between atoms: C_2  and  O_3
REMARK    3  A    between atoms: O_3  and  C_4
REMARK    4  A    between atoms: C_4  and  C_6
REMARK    5  A    between atoms: C_6  and  C_7
REMARK    6  A    between atoms: C_6  and  S_8
REMARK    7  A    between atoms: S_8  and  C_9
REMARK    8  A    between atoms: N_18  and  C_19
REMARK    9  A    between atoms: N_20  and  C_21
REMARK   10  A    between atoms: C_21  and  C_22
REMARK   11  A    between atoms: C_22  and  C_23
REMARK                            x       y       z     vdW  Elec       q    Type
REMARK                         _______ _______ _______ _____ _____    ______ ____
ROOT
ATOM      1  C   UNL     1       4.179   5.211  17.779  0.00  0.00    +0.000 A 
ATOM      2  N   UNL     1       4.478   4.065  18.346  0.00  0.00    +0.000 NA
ATOM      3  C   UNL     1       3.622   3.975  19.397  0.00  0.00    +0.000 A 
ATOM      4  C   UNL     1       2.753   5.040  19.464  0.00  0.00    +0.000 A 
ATOM      5  C   UNL     1       1.745   5.083  20.486  0.00  0.00    +0.000 A 
ATOM      6  O   UNL     1       0.864   5.920  20.638  0.00  0.00    +0.000 OA
ATOM      7  N   UNL     1       1.806   4.033  21.368  0.00  0.00    +0.000 N 
ATOM      8  C   UNL     1       2.653   2.954  21.326  0.00  0.00    +0.000 A 
ATOM      9  O   UNL     1       2.534   2.077  22.178  0.00  0.00    +0.000 OA
ATOM     10  N   UNL     1       3.588   2.929  20.303  0.00  0.00    +0.000 N 
ATOM     11  C   UNL     1       4.518   1.823  20.211  0.00  0.00    +0.000 C 
ATOM     12  N   UNL     1       3.127   5.865  18.414  0.00  0.00    +0.000 N 
ATOM     13  H   UNL     1       1.117   4.029  22.103  0.00  0.00    +0.000 HD
ENDROOT
BRANCH   1  14
ATOM     14  S   UNL     1       5.033   5.851  16.403  0.00  0.00    +0.000 S 
BRANCH  14  15
ATOM     15  C   UNL     1       6.276   4.540  16.098  0.00  0.00    +0.000 C 
ATOM     16  C   UNL     1       7.448   4.707  17.055  0.00  0.00    +0.000 C 
BRANCH  15  17
ATOM     17  C   UNL     1       6.773   4.600  14.663  0.00  0.00    +0.000 C 
ATOM     18  O   UNL     1       7.635   5.360  14.235  0.00  0.00    +0.000 OA
BRANCH  17  19
ATOM     19  O   UNL     1       6.077   3.707  13.901  0.00  0.00    +0.000 OA
BRANCH  19  21
ATOM     20  C   UNL     1       5.882   2.448  11.885  0.00  0.00    +0.000 C 
ATOM     21  C   UNL     1       6.370   3.749  12.498  0.00  0.00    +0.000 C 
ENDBRANCH  19  21
ENDBRANCH  17  19
ENDBRANCH  15  17
ENDBRANCH  14  15
ENDBRANCH   1  14
BRANCH  12  22
ATOM     22  C   UNL     1       2.537   7.116  17.940  0.00  0.00    +0.000 C 
BRANCH  22  23
ATOM     23  C   UNL     1       2.569   8.306  18.893  0.00  0.00    +0.000 C 
BRANCH  23  24
ATOM     24  C   UNL     1       1.307   9.111  19.085  0.00  0.00    +0.000 A 
ATOM     25  C   UNL     1       0.887   9.340  20.409  0.00  0.00    +0.000 A 
ATOM     26  C   UNL     1      -0.253  10.089  20.685  0.00  0.00    +0.000 A 
ATOM     27  C   UNL     1      -0.986  10.633  19.636  0.00  0.00    +0.000 A 
ATOM     28  C   UNL     1      -0.575  10.426  18.319  0.00  0.00    +0.000 A 
ATOM     29  C   UNL     1       0.569   9.672  18.041  0.00  0.00    +0.000 A 
ENDBRANCH  23  24
ENDBRANCH  22  23
ENDBRANCH  12  22
TORSDOF 8
ENDMDL
MODEL 5
REMARK VINA RESULT:      -7.2      2.796      6.847
REMARK  Name = 
REMARK  11 active torsions:
REMARK  status: ('A' for Active; 'I' for Inactive)
REMARK    1  A    between atoms: C_1  and  C_2
REMARK    2  A    between atoms: C_2  and  O_3
REMARK    3  A    between atoms: O_3  and  C_4
REMARK    4  A    between atoms: C_4  and  C_6
REMARK    5  A    between atoms: C_6  and  C_7
REMARK    6  A    between atoms: C_6  and  S_8
REMARK    7  A    between atoms: S_8  and  C_9
REMARK    8  A    between atoms: N_18  and  C_19
REMARK    9  A    between atoms: N_20  and  C_21
REMARK   10  A    between atoms: C_21  and  C_22
REMARK   11  A    between atoms: C_22  and  C_23
REMARK                            x       y       z     vdW  Elec       q    Type
REMARK                         _______ _______ _______ _____ _____    ______ ____
ROOT
ATOM      1  C   UNL     1       4.133   5.760  18.156  0.00  0.00    +0.000 A 
ATOM      2  N   UNL     1       4.488   4.582  18.618  0.00  0.00    +0.000 NA
ATOM      3  C   UNL     1       3.541   4.285  19.545  0.00  0.00    +0.000 A 
ATOM      4  C   UNL     1       2.564   5.250  19.633  0.00  0.00    +0.000 A 
ATOM      5  C   UNL     1       1.457   5.073  20.529  0.00  0.00    +0.000 A 
ATOM      6  O   UNL     1       0.482   5.801  20.673  0.00  0.00    +0.000 OA
ATOM      7  N   UNL     1       1.533   3.929  21.285  0.00  0.00    +0.000 N 
ATOM      8  C   UNL     1       2.486   2.945  21.218  0.00  0.00    +0.000 A 
ATOM      9  O   UNL     1       2.370   1.961  21.943  0.00  0.00    +0.000 OA
ATOM     10  N   UNL     1       3.521   3.134  20.315  0.00  0.00    +0.000 N 
ATOM     11  C   UNL     1       4.565   2.136  20.203  0.00  0.00    +0.000 C 
ATOM     12  N   UNL     1       2.959   6.231  18.736  0.00  0.00    +0.000 N 
ATOM     13  H   UNL     1       0.775   3.771  21.930  0.00  0.00    +0.000 HD
ENDROOT
BRANCH   1  14
ATOM     14  S   UNL     1       5.056   6.643  16.972  0.00  0.00    +0.000 S 
BRANCH  14  15
ATOM     15  C   UNL     1       6.773   6.292  17.506  0.00  0.00    +0.000 C 
ATOM     16  C   UNL     1       7.593   7.575  17.482  0.00  0.00    +0.000 C 
BRANCH  15  17
ATOM     17  C   UNL     1       7.413   5.257  16.595  0.00  0.00    +0.000 C 
ATOM     18  O   UNL     1       7.990   4.240  16.961  0.00  0.00    +0.000 OA
BRANCH  17  19
ATOM     19  O   UNL     1       7.293   5.657  15.296  0.00  0.00    +0.000 OA
BRANCH  19  21
ATOM     20  C   UNL     1       5.639   4.253  14.307  0.00  0.00    +0.000 C 
ATOM     21  C   UNL     1       7.118   4.596  14.348  0.00  0.00    +0.000 C 
ENDBRANCH  19  21
ENDBRANCH  17  19
ENDBRANCH  15  17
ENDBRANCH  14  15
ENDBRANCH   1  14
BRANCH  12  22
ATOM     22  C   UNL     1       2.296   7.474  18.345  0.00  0.00    +0.000 C 
BRANCH  22  23
ATOM     23  C   UNL     1       2.113   8.535  19.423  0.00  0.00    +0.000 C 
BRANCH  23  24
ATOM     24  C   UNL     1       0.903   9.435  19.353  0.00  0.00    +0.000 A 
ATOM     25  C   UNL     1       0.406   9.940  20.570  0.00  0.00    +0.000 A 
ATOM     26  C   UNL     1      -0.692  10.793  20.603  0.00  0.00    +0.000 A 
ATOM     27  C   UNL     1      -1.305  11.167  19.412  0.00  0.00    +0.000 A 
ATOM     28  C   UNL     1      -0.817  10.686  18.197  0.00  0.00    +0.000 A 
ATOM     29  C   UNL     1       0.285   9.826  18.164  0.00  0.00    +0.000 A 
ENDBRANCH  23  24
ENDBRANCH  22  23
ENDBRANCH  12  22
TORSDOF 8
ENDMDL
MODEL 6
REMARK VINA RESULT:      -7.2      2.944      6.879
REMARK  Name = 
REMARK  11 active torsions:
REMARK  status: ('A' for Active; 'I' for Inactive)
REMARK    1  A    between atoms: C_1  and  C_2
REMARK    2  A    between atoms: C_2  and  O_3
REMARK    3  A    between atoms: O_3  and  C_4
REMARK    4  A    between atoms: C_4  and  C_6
REMARK    5  A    between atoms: C_6  and  C_7
REMARK    6  A    between atoms: C_6  and  S_8
REMARK    7  A    between atoms: S_8  and  C_9
REMARK    8  A    between atoms: N_18  and  C_19
REMARK    9  A    between atoms: N_20  and  C_21
REMARK   10  A    between atoms: C_21  and  C_22
REMARK   11  A    between atoms: C_22  and  C_23
REMARK                            x       y       z     vdW  Elec       q    Type
REMARK                         _______ _______ _______ _____ _____    ______ ____
ROOT
ATOM      1  C   UNL     1       4.044   5.427  17.693  0.00  0.00    +0.000 A 
ATOM      2  N   UNL     1       4.374   4.266  18.212  0.00  0.00    +0.000 NA
ATOM      3  C   UNL     1       3.585   4.153  19.312  0.00  0.00    +0.000 A 
ATOM      4  C   UNL     1       2.726   5.217  19.459  0.00  0.00    +0.000 A 
ATOM      5  C   UNL     1       1.784   5.237  20.543  0.00  0.00    +0.000 A 
ATOM      6  O   UNL     1       0.917   6.071  20.770  0.00  0.00    +0.000 OA
ATOM      7  N   UNL     1       1.897   4.165  21.393  0.00  0.00    +0.000 N 
ATOM      8  C   UNL     1       2.735   3.086  21.273  0.00  0.00    +0.000 A 
ATOM      9  O   UNL     1       2.667   2.189  22.109  0.00  0.00    +0.000 OA
ATOM     10  N   UNL     1       3.605   3.085  20.193  0.00  0.00    +0.000 N 
ATOM     11  C   UNL     1       4.523   1.979  20.016  0.00  0.00    +0.000 C 
ATOM     12  N   UNL     1       3.037   6.067  18.408  0.00  0.00    +0.000 N 
ATOM     13  H   UNL     1       1.255   4.145  22.170  0.00  0.00    +0.000 HD
ENDROOT
BRANCH   1  14
ATOM     14  S   UNL     1       4.813   6.099  16.282  0.00  0.00    +0.000 S 
BRANCH  14  15
ATOM     15  C   UNL     1       6.402   5.187  16.259  0.00  0.00    +0.000 C 
ATOM     16  C   UNL     1       7.462   5.977  17.017  0.00  0.00    +0.000 C 
BRANCH  15  17
ATOM     17  C   UNL     1       6.863   4.955  14.830  0.00  0.00    +0.000 C 
ATOM     18  O   UNL     1       7.880   5.411  14.321  0.00  0.00    +0.000 OA
BRANCH  17  19
ATOM     19  O   UNL     1       5.941   4.193  14.172  0.00  0.00    +0.000 OA
BRANCH  19  21
ATOM     20  C   UNL     1       5.134   3.397  12.074  0.00  0.00    +0.000 C 
ATOM     21  C   UNL     1       6.373   3.675  12.906  0.00  0.00    +0.000 C 
ENDBRANCH  19  21
ENDBRANCH  17  19
ENDBRANCH  15  17
ENDBRANCH  14  15
ENDBRANCH   1  14
BRANCH  12  22
ATOM     22  C   UNL     1       2.423   7.330  18.003  0.00  0.00    +0.000 C 
BRANCH  22  23
ATOM     23  C   UNL     1       2.370   8.444  19.042  0.00  0.00    +0.000 C 
BRANCH  23  24
ATOM     24  C   UNL     1       1.122   9.288  19.133  0.00  0.00    +0.000 A 
ATOM     25  C   UNL     1       0.401   9.499  17.943  0.00  0.00    +0.000 A 
ATOM     26  C   UNL     1      -0.773  10.246  17.933  0.00  0.00    +0.000 A 
ATOM     27  C   UNL     1      -1.252  10.785  19.121  0.00  0.00    +0.000 A 
ATOM     28  C   UNL     1      -0.556  10.574  20.312  0.00  0.00    +0.000 A 
ATOM     29  C   UNL     1       0.625   9.825  20.322  0.00  0.00    +0.000 A 
ENDBRANCH  23  24
ENDBRANCH  22  23
ENDBRANCH  12  22
TORSDOF 8
ENDMDL
MODEL 7
REMARK VINA RESULT:      -7.1      2.719      6.751
REMARK  Name = 
REMARK  11 active torsions:
REMARK  status: ('A' for Active; 'I' for Inactive)
REMARK    1  A    between atoms: C_1  and  C_2
REMARK    2  A    between atoms: C_2  and  O_3
REMARK    3  A    between atoms: O_3  and  C_4
REMARK    4  A    between atoms: C_4  and  C_6
REMARK    5  A    between atoms: C_6  and  C_7
REMARK    6  A    between atoms: C_6  and  S_8
REMARK    7  A    between atoms: S_8  and  C_9
REMARK    8  A    between atoms: N_18  and  C_19
REMARK    9  A    between atoms: N_20  and  C_21
REMARK   10  A    between atoms: C_21  and  C_22
REMARK   11  A    between atoms: C_22  and  C_23
REMARK                            x       y       z     vdW  Elec       q    Type
REMARK                         _______ _______ _______ _____ _____    ______ ____
ROOT
ATOM      1  C   UNL     1       4.042   5.850  17.768  0.00  0.00    +0.000 A 
ATOM      2  N   UNL     1       4.007   4.557  17.999  0.00  0.00    +0.000 NA
ATOM      3  C   UNL     1       3.144   4.425  19.040  0.00  0.00    +0.000 A 
ATOM      4  C   UNL     1       2.599   5.626  19.432  0.00  0.00    +0.000 A 
ATOM      5  C   UNL     1       1.627   5.665  20.488  0.00  0.00    +0.000 A 
ATOM      6  O   UNL     1       1.006   6.635  20.903  0.00  0.00    +0.000 OA
ATOM      7  N   UNL     1       1.385   4.442  21.062  0.00  0.00    +0.000 N 
ATOM      8  C   UNL     1       1.904   3.227  20.693  0.00  0.00    +0.000 A 
ATOM      9  O   UNL     1       1.537   2.221  21.294  0.00  0.00    +0.000 OA
ATOM     10  N   UNL     1       2.812   3.224  19.645  0.00  0.00    +0.000 N 
ATOM     11  C   UNL     1       3.404   1.975  19.214  0.00  0.00    +0.000 C 
ATOM     12  N   UNL     1       3.200   6.569  18.611  0.00  0.00    +0.000 N 
ATOM     13  H   UNL     1       0.711   4.427  21.811  0.00  0.00    +0.000 HD
ENDROOT
BRANCH   1  14
ATOM     14  S   UNL     1       5.059   6.579  16.556  0.00  0.00    +0.000 S 
BRANCH  14  15
ATOM     15  C   UNL     1       6.730   6.247  17.229  0.00  0.00    +0.000 C 
ATOM     16  C   UNL     1       7.621   7.465  17.024  0.00  0.00    +0.000 C 
BRANCH  15  17
ATOM     17  C   UNL     1       7.350   5.039  16.546  0.00  0.00    +0.000 C 
ATOM     18  O   UNL     1       8.126   4.244  17.062  0.00  0.00    +0.000 OA
BRANCH  17  19
ATOM     19  O   UNL     1       6.947   4.997  15.242  0.00  0.00    +0.000 OA
BRANCH  19  21
ATOM     20  C   UNL     1       6.046   3.849  13.357  0.00  0.00    +0.000 C 
ATOM     21  C   UNL     1       6.250   3.804  14.861  0.00  0.00    +0.000 C 
ENDBRANCH  19  21
ENDBRANCH  17  19
ENDBRANCH  15  17
ENDBRANCH  14  15
ENDBRANCH   1  14
BRANCH  12  22
ATOM     22  C   UNL     1       2.983   8.011  18.514  0.00  0.00    +0.000 C 
BRANCH  22  23
ATOM     23  C   UNL     1       1.709   8.478  17.819  0.00  0.00    +0.000 C 
BRANCH  23  24
ATOM     24  C   UNL     1       0.795   9.431  18.550  0.00  0.00    +0.000 A 
ATOM     25  C   UNL     1      -0.327   9.911  17.848  0.00  0.00    +0.000 A 
ATOM     26  C   UNL     1      -1.237  10.777  18.446  0.00  0.00    +0.000 A 
ATOM     27  C   UNL     1      -1.044  11.168  19.767  0.00  0.00    +0.000 A 
ATOM     28  C   UNL     1       0.056  10.690  20.480  0.00  0.00    +0.000 A 
ATOM     29  C   UNL     1       0.972   9.822  19.879  0.00  0.00    +0.000 A 
ENDBRANCH  23  24
ENDBRANCH  22  23
ENDBRANCH  12  22
TORSDOF 8
ENDMDL
MODEL 8
REMARK VINA RESULT:      -7.1      1.213      1.614
REMARK  Name = 
REMARK  11 active torsions:
REMARK  status: ('A' for Active; 'I' for Inactive)
REMARK    1  A    between atoms: C_1  and  C_2
REMARK    2  A    between atoms: C_2  and  O_3
REMARK    3  A    between atoms: O_3  and  C_4
REMARK    4  A    between atoms: C_4  and  C_6
REMARK    5  A    between atoms: C_6  and  C_7
REMARK    6  A    between atoms: C_6  and  S_8
REMARK    7  A    between atoms: S_8  and  C_9
REMARK    8  A    between atoms: N_18  and  C_19
REMARK    9  A    between atoms: N_20  and  C_21
REMARK   10  A    between atoms: C_21  and  C_22
REMARK   11  A    between atoms: C_22  and  C_23
REMARK                            x       y       z     vdW  Elec       q    Type
REMARK                         _______ _______ _______ _____ _____    ______ ____
ROOT
ATOM      1  C   UNL     1       2.278   6.334  20.003  0.00  0.00    +0.000 A 
ATOM      2  N   UNL     1       1.613   6.981  20.933  0.00  0.00    +0.000 NA
ATOM      3  C   UNL     1       1.416   8.219  20.407  0.00  0.00    +0.000 A 
ATOM      4  C   UNL     1       1.912   8.335  19.129  0.00  0.00    +0.000 A 
ATOM      5  C   UNL     1       1.746   9.563  18.402  0.00  0.00    +0.000 A 
ATOM      6  O   UNL     1       2.069   9.801  17.245  0.00  0.00    +0.000 OA
ATOM      7  N   UNL     1       1.134  10.556  19.126  0.00  0.00    +0.000 N 
ATOM      8  C   UNL     1       0.622  10.471  20.396  0.00  0.00    +0.000 A 
ATOM      9  O   UNL     1       0.062  11.454  20.873  0.00  0.00    +0.000 OA
ATOM     10  N   UNL     1       0.769   9.259  21.052  0.00  0.00    +0.000 N 
ATOM     11  C   UNL     1       0.259   9.108  22.399  0.00  0.00    +0.000 C 
ATOM     12  N   UNL     1       2.497   7.106  18.865  0.00  0.00    +0.000 N 
ATOM     13  H   UNL     1       1.002  11.435  18.651  0.00  0.00    +0.000 HD
ENDROOT
BRANCH   1  14
ATOM     14  S   UNL     1       2.847   4.700  20.194  0.00  0.00    +0.000 S 
BRANCH  14  15
ATOM     15  C   UNL     1       1.272   3.772  20.309  0.00  0.00    +0.000 C 
ATOM     16  C   UNL     1       1.321   2.817  21.495  0.00  0.00    +0.000 C 
BRANCH  15  17
ATOM     17  C   UNL     1       1.020   2.989  19.031  0.00  0.00    +0.000 C 
ATOM     18  O   UNL     1       0.120   2.176  18.854  0.00  0.00    +0.000 OA
BRANCH  17  19
ATOM     19  O   UNL     1       1.984   3.291  18.114  0.00  0.00    +0.000 OA
BRANCH  19  21
ATOM     20  C   UNL     1       3.545   1.523  18.469  0.00  0.00    +0.000 C 
ATOM     21  C   UNL     1       2.589   2.159  17.475  0.00  0.00    +0.000 C 
ENDBRANCH  19  21
ENDBRANCH  17  19
ENDBRANCH  15  17
ENDBRANCH  14  15
ENDBRANCH   1  14
BRANCH  12  22
ATOM     22  C   UNL     1       3.136   6.606  17.649  0.00  0.00    +0.000 C 
BRANCH  22  23
ATOM     23  C   UNL     1       4.223   5.550  17.817  0.00  0.00    +0.000 C 
BRANCH  23  24
ATOM     24  C   UNL     1       5.638   6.005  18.074  0.00  0.00    +0.000 A 
ATOM     25  C   UNL     1       6.112   7.092  17.314  0.00  0.00    +0.000 A 
ATOM     26  C   UNL     1       7.397   7.594  17.496  0.00  0.00    +0.000 A 
ATOM     27  C   UNL     1       8.226   7.024  18.456  0.00  0.00    +0.000 A 
ATOM     28  C   UNL     1       7.766   5.956  19.227  0.00  0.00    +0.000 A 
ATOM     29  C   UNL     1       6.477   5.448  19.042  0.00  0.00    +0.000 A 
ENDBRANCH  23  24
ENDBRANCH  22  23
ENDBRANCH  12  22
TORSDOF 8
ENDMDL
MODEL 9
REMARK VINA RESULT:      -7.1      0.924      1.108
REMARK  Name = 
REMARK  11 active torsions:
REMARK  status: ('A' for Active; 'I' for Inactive)
REMARK    1  A    between atoms: C_1  and  C_2
REMARK    2  A    between atoms: C_2  and  O_3
REMARK    3  A    between atoms: O_3  and  C_4
REMARK    4  A    between atoms: C_4  and  C_6
REMARK    5  A    between atoms: C_6  and  C_7
REMARK    6  A    between atoms: C_6  and  S_8
REMARK    7  A    between atoms: S_8  and  C_9
REMARK    8  A    between atoms: N_18  and  C_19
REMARK    9  A    between atoms: N_20  and  C_21
REMARK   10  A    between atoms: C_21  and  C_22
REMARK   11  A    between atoms: C_22  and  C_23
REMARK                            x       y       z     vdW  Elec       q    Type
REMARK                         _______ _______ _______ _____ _____    ______ ____
ROOT
ATOM      1  C   UNL     1       2.187   6.678  19.970  0.00  0.00    +0.000 A 
ATOM      2  N   UNL     1       1.517   7.249  20.945  0.00  0.00    +0.000 NA
ATOM      3  C   UNL     1       1.269   8.506  20.494  0.00  0.00    +0.000 A 
ATOM      4  C   UNL     1       1.738   8.711  19.217  0.00  0.00    +0.000 A 
ATOM      5  C   UNL     1       1.518   9.971  18.564  0.00  0.00    +0.000 A 
ATOM      6  O   UNL     1       1.812  10.285  17.417  0.00  0.00    +0.000 OA
ATOM      7  N   UNL     1       0.886  10.900  19.353  0.00  0.00    +0.000 N 
ATOM      8  C   UNL     1       0.400  10.726  20.623  0.00  0.00    +0.000 A 
ATOM      9  O   UNL     1      -0.184  11.661  21.165  0.00  0.00    +0.000 OA
ATOM     10  N   UNL     1       0.600   9.485  21.208  0.00  0.00    +0.000 N 
ATOM     11  C   UNL     1       0.119   9.241  22.552  0.00  0.00    +0.000 C 
ATOM     12  N   UNL     1       2.360   7.519  18.875  0.00  0.00    +0.000 N 
ATOM     13  H   UNL     1       0.716  11.800  18.931  0.00  0.00    +0.000 HD
ENDROOT
BRANCH   1  14
ATOM     14  S   UNL     1       2.814   5.056  20.059  0.00  0.00    +0.000 S 
BRANCH  14  15
ATOM     15  C   UNL     1       1.427   4.085  19.359  0.00  0.00    +0.000 C 
ATOM     16  C   UNL     1       0.789   3.236  20.451  0.00  0.00    +0.000 C 
BRANCH  15  17
ATOM     17  C   UNL     1       1.917   3.189  18.234  0.00  0.00    +0.000 C 
ATOM     18  O   UNL     1       2.018   3.509  17.055  0.00  0.00    +0.000 OA
BRANCH  17  19
ATOM     19  O   UNL     1       2.185   1.944  18.726  0.00  0.00    +0.000 OA
BRANCH  19  21
ATOM     20  C   UNL     1       4.387   1.867  19.638  0.00  0.00    +0.000 C 
ATOM     21  C   UNL     1       3.510   1.462  18.466  0.00  0.00    +0.000 C 
ENDBRANCH  19  21
ENDBRANCH  17  19
ENDBRANCH  15  17
ENDBRANCH  14  15
ENDBRANCH   1  14
BRANCH  12  22
ATOM     22  C   UNL     1       2.993   7.111  17.622  0.00  0.00    +0.000 C 
BRANCH  22  23
ATOM     23  C   UNL     1       4.492   6.836  17.657  0.00  0.00    +0.000 C 
BRANCH  23  24
ATOM     24  C   UNL     1       5.067   5.842  16.678  0.00  0.00    +0.000 A 
ATOM     25  C   UNL     1       5.308   4.538  17.152  0.00  0.00    +0.000 A 
ATOM     26  C   UNL     1       5.816   3.548  16.317  0.00  0.00    +0.000 A 
ATOM     27  C   UNL     1       6.080   3.845  14.985  0.00  0.00    +0.000 A 
ATOM     28  C   UNL     1       5.834   5.128  14.496  0.00  0.00    +0.000 A 
ATOM     29  C   UNL     1       5.325   6.124  15.335  0.00  0.00    +0.000 A 
ENDBRANCH  23  24
ENDBRANCH  22  23
ENDBRANCH  12  22
TORSDOF 8
ENDMDL
