MODEL 1
REMARK VINA RESULT:      -8.8      0.000      0.000
REMARK  Name = 
REMARK  7 active torsions:
REMARK  status: ('A' for Active; 'I' for Inactive)
REMARK    1  A    between atoms: C_1  and  C_2
REMARK    2  A    between atoms: C_5  and  C_6
REMARK    3  A    between atoms: C_7  and  C_8
REMARK    4  A    between atoms: C_8  and  N_9
REMARK    5  A    between atoms: C_16  and  C_17
REMARK    6  A    between atoms: N_19  and  C_20
REMARK    7  A    between atoms: C_20  and  C_21
REMARK                            x       y       z     vdW  Elec       q    Type
REMARK                         _______ _______ _______ _____ _____    ______ ____
ROOT
ATOM      1  N   UNL     1       4.428   3.678  17.574  0.00  0.00    +0.000 NA
ATOM      2  C   UNL     1       4.074   2.263  17.674  0.00  0.00    +0.000 C 
ATOM      3  C   UNL     1       2.582   2.004  17.843  0.00  0.00    +0.000 C 
ATOM      4  C   UNL     1       1.951   2.839  18.949  0.00  0.00    +0.000 C 
ATOM      5  O   UNL     1       2.324   2.308  20.225  0.00  0.00    +0.000 OA
ATOM      6  C   UNL     1       1.610   2.917  21.299  0.00  0.00    +0.000 C 
ATOM      7  C   UNL     1       1.953   4.396  21.385  0.00  0.00    +0.000 C 
ATOM      8  C   UNL     1       1.668   5.060  20.038  0.00  0.00    +0.000 C 
ATOM      9  C   UNL     1       2.306   4.327  18.824  0.00  0.00    +0.000 C 
ATOM     10  C   UNL     1       3.832   4.494  18.654  0.00  0.00    +0.000 C 
ENDROOT
BRANCH   8  11
ATOM     11  C   UNL     1       1.935   6.552  20.059  0.00  0.00    +0.000 C 
ATOM     12  O   UNL     1       2.443   7.166  19.128  0.00  0.00    +0.000 OA
ATOM     13  N   UNL     1       1.524   7.128  21.244  0.00  0.00    +0.000 N 
ATOM     14  H   UNL     1       1.021   6.566  21.917  0.00  0.00    +0.000 HD
BRANCH  13  15
ATOM     15  C   UNL     1       1.504   8.554  21.450  0.00  0.00    +0.000 C 
BRANCH  15  16
ATOM     16  C   UNL     1       0.113   8.956  21.805  0.00  0.00    +0.000 C 
ATOM     17  C   UNL     1      -0.186   9.577  23.154  0.00  0.00    +0.000 C 
ATOM     18  C   UNL     1      -0.304  10.399  21.901  0.00  0.00    +0.000 C 
ENDBRANCH  15  16
ENDBRANCH  13  15
ENDBRANCH   8  11
BRANCH   1  19
ATOM     19  C   UNL     1       4.367   4.214  16.211  0.00  0.00    +0.000 C 
BRANCH  19  26
ATOM     20  C   UNL     1       5.979   7.009  17.350  0.00  0.00    +0.000 C 
ATOM     21  C   UNL     1       6.400   5.959  16.392  0.00  0.00    +0.000 A 
ATOM     22  N   UNL     1       7.626   6.075  15.857  0.00  0.00    +0.000 NA
ATOM     23  O   UNL     1       7.646   5.207  14.791  0.00  0.00    +0.000 OA
ATOM     24  C   UNL     1       6.458   4.562  14.720  0.00  0.00    +0.000 A 
ATOM     25  C   UNL     1       6.200   3.836  13.464  0.00  0.00    +0.000 C 
ATOM     26  C   UNL     1       5.680   4.855  15.827  0.00  0.00    +0.000 A 
ENDBRANCH  19  26
ENDBRANCH   1  19
TORSDOF 5
ENDMDL
MODEL 2
REMARK VINA RESULT:      -8.6      0.536      1.607
REMARK  Name = 
REMARK  7 active torsions:
REMARK  status: ('A' for Active; 'I' for Inactive)
REMARK    1  A    between atoms: C_1  and  C_2
REMARK    2  A    between atoms: C_5  and  C_6
REMARK    3  A    between atoms: C_7  and  C_8
REMARK    4  A    between atoms: C_8  and  N_9
REMARK    5  A    between atoms: C_16  and  C_17
REMARK    6  A    between atoms: N_19  and  C_20
REMARK    7  A    between atoms: C_20  and  C_21
REMARK                            x       y       z     vdW  Elec       q    Type
REMARK                         _______ _______ _______ _____ _____    ______ ____
ROOT
ATOM      1  N   UNL     1       4.479   3.891  17.553  0.00  0.00    +0.000 NA
ATOM      2  C   UNL     1       4.179   2.462  17.628  0.00  0.00    +0.000 C 
ATOM      3  C   UNL     1       2.700   2.145  17.808  0.00  0.00    +0.000 C 
ATOM      4  C   UNL     1       2.052   2.933  18.938  0.00  0.00    +0.000 C 
ATOM      5  O   UNL     1       2.459   2.392  20.199  0.00  0.00    +0.000 OA
ATOM      6  C   UNL     1       1.735   2.952  21.293  0.00  0.00    +0.000 C 
ATOM      7  C   UNL     1       2.025   4.441  21.405  0.00  0.00    +0.000 C 
ATOM      8  C   UNL     1       1.700   5.120  20.075  0.00  0.00    +0.000 C 
ATOM      9  C   UNL     1       2.349   4.436  18.839  0.00  0.00    +0.000 C 
ATOM     10  C   UNL     1       3.867   4.662  18.656  0.00  0.00    +0.000 C 
ENDROOT
BRANCH   8  11
ATOM     11  C   UNL     1       1.912   6.621  20.124  0.00  0.00    +0.000 C 
ATOM     12  O   UNL     1       2.336   7.279  19.181  0.00  0.00    +0.000 OA
ATOM     13  N   UNL     1       1.556   7.148  21.348  0.00  0.00    +0.000 N 
ATOM     14  H   UNL     1       1.119   6.548  22.035  0.00  0.00    +0.000 HD
BRANCH  13  15
ATOM     15  C   UNL     1       1.497   8.566  21.598  0.00  0.00    +0.000 C 
BRANCH  15  16
ATOM     16  C   UNL     1       0.079   8.933  21.874  0.00  0.00    +0.000 C 
ATOM     17  C   UNL     1      -0.289   9.676  23.141  0.00  0.00    +0.000 C 
ATOM     18  C   UNL     1      -0.408  10.355  21.805  0.00  0.00    +0.000 C 
ENDBRANCH  15  16
ENDBRANCH  13  15
ENDBRANCH   8  11
BRANCH   1  19
ATOM     19  C   UNL     1       4.382   4.451  16.202  0.00  0.00    +0.000 C 
BRANCH  19  26
ATOM     20  C   UNL     1       6.174   3.646  13.401  0.00  0.00    +0.000 C 
ATOM     21  C   UNL     1       6.429   4.636  14.473  0.00  0.00    +0.000 A 
ATOM     22  N   UNL     1       7.541   5.381  14.367  0.00  0.00    +0.000 NA
ATOM     23  O   UNL     1       7.719   5.955  15.602  0.00  0.00    +0.000 OA
ATOM     24  C   UNL     1       6.704   5.582  16.417  0.00  0.00    +0.000 A 
ATOM     25  C   UNL     1       6.905   5.851  17.852  0.00  0.00    +0.000 C 
ATOM     26  C   UNL     1       5.740   4.890  15.705  0.00  0.00    +0.000 A 
ENDBRANCH  19  26
ENDBRANCH   1  19
TORSDOF 5
ENDMDL
MODEL 3
REMARK VINA RESULT:      -8.1      1.460      1.719
REMARK  Name = 
REMARK  7 active torsions:
REMARK  status: ('A' for Active; 'I' for Inactive)
REMARK    1  A    between atoms: C_1  and  C_2
REMARK    2  A    between atoms: C_5  and  C_6
REMARK    3  A    between atoms: C_7  and  C_8
REMARK    4  A    between atoms: C_8  and  N_9
REMARK    5  A    between atoms: C_16  and  C_17
REMARK    6  A    between atoms: N_19  and  C_20
REMARK    7  A    between atoms: C_20  and  C_21
REMARK                            x       y       z     vdW  Elec       q    Type
REMARK                         _______ _______ _______ _____ _____    ______ ____
ROOT
ATOM      1  N   UNL     1       4.433   3.584  17.519  0.00  0.00    +0.000 NA
ATOM      2  C   UNL     1       4.070   2.175  17.666  0.00  0.00    +0.000 C 
ATOM      3  C   UNL     1       2.576   1.932  17.842  0.00  0.00    +0.000 C 
ATOM      4  C   UNL     1       1.949   2.808  18.918  0.00  0.00    +0.000 C 
ATOM      5  O   UNL     1       2.317   2.320  20.211  0.00  0.00    +0.000 OA
ATOM      6  C   UNL     1       1.605   2.969  21.263  0.00  0.00    +0.000 C 
ATOM      7  C   UNL     1       1.957   4.448  21.299  0.00  0.00    +0.000 C 
ATOM      8  C   UNL     1       1.679   5.068  19.929  0.00  0.00    +0.000 C 
ATOM      9  C   UNL     1       2.313   4.290  18.742  0.00  0.00    +0.000 C 
ATOM     10  C   UNL     1       3.841   4.440  18.569  0.00  0.00    +0.000 C 
ENDROOT
BRANCH   8  11
ATOM     11  C   UNL     1       1.956   6.558  19.900  0.00  0.00    +0.000 C 
ATOM     12  O   UNL     1       1.981   7.265  20.901  0.00  0.00    +0.000 OA
ATOM     13  N   UNL     1       2.191   7.009  18.617  0.00  0.00    +0.000 N 
ATOM     14  H   UNL     1       2.253   6.339  17.863  0.00  0.00    +0.000 HD
BRANCH  13  15
ATOM     15  C   UNL     1       2.648   8.346  18.334  0.00  0.00    +0.000 C 
BRANCH  15  16
ATOM     16  C   UNL     1       1.456   9.202  18.075  0.00  0.00    +0.000 C 
ATOM     17  C   UNL     1       0.879  10.069  19.174  0.00  0.00    +0.000 C 
ATOM     18  C   UNL     1       1.551  10.701  17.987  0.00  0.00    +0.000 C 
ENDBRANCH  15  16
ENDBRANCH  13  15
ENDBRANCH   8  11
BRANCH   1  19
ATOM     19  C   UNL     1       4.378   4.074  16.138  0.00  0.00    +0.000 C 
BRANCH  19  26
ATOM     20  C   UNL     1       5.927   6.894  17.299  0.00  0.00    +0.000 C 
ATOM     21  C   UNL     1       6.370   5.865  16.329  0.00  0.00    +0.000 A 
ATOM     22  N   UNL     1       7.590   6.015  15.791  0.00  0.00    +0.000 NA
ATOM     23  O   UNL     1       7.627   5.159  14.716  0.00  0.00    +0.000 OA
ATOM     24  C   UNL     1       6.454   4.486  14.643  0.00  0.00    +0.000 A 
ATOM     25  C   UNL     1       6.208   3.767  13.381  0.00  0.00    +0.000 C 
ATOM     26  C   UNL     1       5.674   4.749  15.756  0.00  0.00    +0.000 A 
ENDBRANCH  19  26
ENDBRANCH   1  19
TORSDOF 5
ENDMDL
MODEL 4
REMARK VINA RESULT:      -8.0      1.905      6.440
REMARK  Name = 
REMARK  7 active torsions:
REMARK  status: ('A' for Active; 'I' for Inactive)
REMARK    1  A    between atoms: C_1  and  C_2
REMARK    2  A    between atoms: C_5  and  C_6
REMARK    3  A    between atoms: C_7  and  C_8
REMARK    4  A    between atoms: C_8  and  N_9
REMARK    5  A    between atoms: C_16  and  C_17
REMARK    6  A    between atoms: N_19  and  C_20
REMARK    7  A    between atoms: C_20  and  C_21
REMARK                            x       y       z     vdW  Elec       q    Type
REMARK                         _______ _______ _______ _____ _____    ______ ____
ROOT
ATOM      1  N   UNL     1       1.677   5.680  19.968  0.00  0.00    +0.000 NA
ATOM      2  C   UNL     1       1.221   4.597  20.839  0.00  0.00    +0.000 C 
ATOM      3  C   UNL     1       2.327   3.649  21.287  0.00  0.00    +0.000 C 
ATOM      4  C   UNL     1       3.185   3.144  20.135  0.00  0.00    +0.000 C 
ATOM      5  O   UNL     1       2.460   2.161  19.389  0.00  0.00    +0.000 OA
ATOM      6  C   UNL     1       3.274   1.502  18.420  0.00  0.00    +0.000 C 
ATOM      7  C   UNL     1       3.754   2.497  17.375  0.00  0.00    +0.000 C 
ATOM      8  C   UNL     1       4.482   3.648  18.070  0.00  0.00    +0.000 C 
ATOM      9  C   UNL     1       3.683   4.288  19.240  0.00  0.00    +0.000 C 
ATOM     10  C   UNL     1       2.499   5.197  18.838  0.00  0.00    +0.000 C 
ENDROOT
BRANCH   8  11
ATOM     11  C   UNL     1       5.040   4.658  17.087  0.00  0.00    +0.000 C 
ATOM     12  O   UNL     1       5.027   4.503  15.872  0.00  0.00    +0.000 OA
ATOM     13  N   UNL     1       5.544   5.771  17.729  0.00  0.00    +0.000 N 
ATOM     14  H   UNL     1       5.421   5.862  18.728  0.00  0.00    +0.000 HD
BRANCH  13  15
ATOM     15  C   UNL     1       5.973   6.950  17.021  0.00  0.00    +0.000 C 
BRANCH  15  16
ATOM     16  C   UNL     1       7.443   7.102  17.213  0.00  0.00    +0.000 C 
ATOM     17  C   UNL     1       8.010   8.357  17.843  0.00  0.00    +0.000 C 
ATOM     18  C   UNL     1       8.082   7.046  18.575  0.00  0.00    +0.000 C 
ENDBRANCH  15  16
ENDBRANCH  13  15
ENDBRANCH   8  11
BRANCH   1  19
ATOM     19  C   UNL     1       2.151   6.866  20.689  0.00  0.00    +0.000 C 
BRANCH  19  26
ATOM     20  C   UNL     1       2.559   8.599  17.768  0.00  0.00    +0.000 C 
ATOM     21  C   UNL     1       1.591   8.767  18.877  0.00  0.00    +0.000 A 
ATOM     22  N   UNL     1       0.688   9.753  18.758  0.00  0.00    +0.000 NA
ATOM     23  O   UNL     1       0.149   9.913  20.012  0.00  0.00    +0.000 OA
ATOM     24  C   UNL     1       0.703   9.009  20.853  0.00  0.00    +0.000 A 
ATOM     25  C   UNL     1       0.473   9.247  22.289  0.00  0.00    +0.000 C 
ATOM     26  C   UNL     1       1.496   8.116  20.152  0.00  0.00    +0.000 A 
ENDBRANCH  19  26
ENDBRANCH   1  19
TORSDOF 5
ENDMDL
MODEL 5
REMARK VINA RESULT:      -7.9      1.891      7.108
REMARK  Name = 
REMARK  7 active torsions:
REMARK  status: ('A' for Active; 'I' for Inactive)
REMARK    1  A    between atoms: C_1  and  C_2
REMARK    2  A    between atoms: C_5  and  C_6
REMARK    3  A    between atoms: C_7  and  C_8
REMARK    4  A    between atoms: C_8  and  N_9
REMARK    5  A    between atoms: C_16  and  C_17
REMARK    6  A    between atoms: N_19  and  C_20
REMARK    7  A    between atoms: C_20  and  C_21
REMARK                            x       y       z     vdW  Elec       q    Type
REMARK                         _______ _______ _______ _____ _____    ______ ____
ROOT
ATOM      1  N   UNL     1       1.735   5.800  19.835  0.00  0.00    +0.000 NA
ATOM      2  C   UNL     1       0.911   4.760  20.448  0.00  0.00    +0.000 C 
ATOM      3  C   UNL     1       1.708   3.667  21.150  0.00  0.00    +0.000 C 
ATOM      4  C   UNL     1       2.821   3.090  20.288  0.00  0.00    +0.000 C 
ATOM      5  O   UNL     1       2.262   2.229  19.291  0.00  0.00    +0.000 OA
ATOM      6  C   UNL     1       3.258   1.500  18.577  0.00  0.00    +0.000 C 
ATOM      7  C   UNL     1       4.150   2.455  17.799  0.00  0.00    +0.000 C 
ATOM      8  C   UNL     1       4.747   3.483  18.759  0.00  0.00    +0.000 C 
ATOM      9  C   UNL     1       3.699   4.186  19.667  0.00  0.00    +0.000 C 
ATOM     10  C   UNL     1       2.810   5.249  18.982  0.00  0.00    +0.000 C 
ENDROOT
BRANCH   8  11
ATOM     11  C   UNL     1       5.695   4.442  18.065  0.00  0.00    +0.000 C 
ATOM     12  O   UNL     1       6.146   5.452  18.591  0.00  0.00    +0.000 OA
ATOM     13  N   UNL     1       5.993   4.028  16.783  0.00  0.00    +0.000 N 
ATOM     14  H   UNL     1       5.657   3.129  16.465  0.00  0.00    +0.000 HD
BRANCH  13  15
ATOM     15  C   UNL     1       7.000   4.665  15.974  0.00  0.00    +0.000 C 
BRANCH  15  16
ATOM     16  C   UNL     1       6.405   4.973  14.643  0.00  0.00    +0.000 C 
ATOM     17  C   UNL     1       7.156   4.644  13.370  0.00  0.00    +0.000 C 
ATOM     18  C   UNL     1       5.901   3.895  13.722  0.00  0.00    +0.000 C 
ENDBRANCH  15  16
ENDBRANCH  13  15
ENDBRANCH   8  11
BRANCH   1  19
ATOM     19  C   UNL     1       2.089   6.896  20.743  0.00  0.00    +0.000 C 
BRANCH  19  26
ATOM     20  C   UNL     1       2.319   8.713  17.854  0.00  0.00    +0.000 C 
ATOM     21  C   UNL     1       1.455   8.878  19.046  0.00  0.00    +0.000 A 
ATOM     22  N   UNL     1       0.584   9.900  19.035  0.00  0.00    +0.000 NA
ATOM     23  O   UNL     1       0.160  10.037  20.335  0.00  0.00    +0.000 OA
ATOM     24  C   UNL     1       0.746   9.084  21.097  0.00  0.00    +0.000 A 
ATOM     25  C   UNL     1       0.646   9.280  22.554  0.00  0.00    +0.000 C 
ATOM     26  C   UNL     1       1.442   8.188  20.303  0.00  0.00    +0.000 A 
ENDBRANCH  19  26
ENDBRANCH   1  19
TORSDOF 5
ENDMDL
MODEL 6
REMARK VINA RESULT:      -7.9      1.123      1.540
REMARK  Name = 
REMARK  7 active torsions:
REMARK  status: ('A' for Active; 'I' for Inactive)
REMARK    1  A    between atoms: C_1  and  C_2
REMARK    2  A    between atoms: C_5  and  C_6
REMARK    3  A    between atoms: C_7  and  C_8
REMARK    4  A    between atoms: C_8  and  N_9
REMARK    5  A    between atoms: C_16  and  C_17
REMARK    6  A    between atoms: N_19  and  C_20
REMARK    7  A    between atoms: C_20  and  C_21
REMARK                            x       y       z     vdW  Elec       q    Type
REMARK                         _______ _______ _______ _____ _____    ______ ____
ROOT
ATOM      1  N   UNL     1       4.543   3.481  17.861  0.00  0.00    +0.000 NA
ATOM      2  C   UNL     1       4.039   2.110  17.805  0.00  0.00    +0.000 C 
ATOM      3  C   UNL     1       2.520   2.008  17.737  0.00  0.00    +0.000 C 
ATOM      4  C   UNL     1       1.815   2.842  18.798  0.00  0.00    +0.000 C 
ATOM      5  O   UNL     1       1.935   2.203  20.072  0.00  0.00    +0.000 OA
ATOM      6  C   UNL     1       1.131   2.824  21.073  0.00  0.00    +0.000 C 
ATOM      7  C   UNL     1       1.603   4.249  21.315  0.00  0.00    +0.000 C 
ATOM      8  C   UNL     1       1.594   5.016  19.993  0.00  0.00    +0.000 C 
ATOM      9  C   UNL     1       2.332   4.288  18.834  0.00  0.00    +0.000 C 
ATOM     10  C   UNL     1       3.875   4.295  18.899  0.00  0.00    +0.000 C 
ENDROOT
BRANCH   8  11
ATOM     11  C   UNL     1       2.003   6.466  20.161  0.00  0.00    +0.000 C 
ATOM     12  O   UNL     1       2.789   7.041  19.418  0.00  0.00    +0.000 OA
ATOM     13  N   UNL     1       1.371   7.054  21.238  0.00  0.00    +0.000 N 
ATOM     14  H   UNL     1       0.660   6.535  21.735  0.00  0.00    +0.000 HD
BRANCH  13  15
ATOM     15  C   UNL     1       1.451   8.466  21.511  0.00  0.00    +0.000 C 
BRANCH  15  16
ATOM     16  C   UNL     1       0.085   8.953  21.856  0.00  0.00    +0.000 C 
ATOM     17  C   UNL     1      -0.196   9.556  23.216  0.00  0.00    +0.000 C 
ATOM     18  C   UNL     1      -0.234  10.418  21.985  0.00  0.00    +0.000 C 
ENDBRANCH  15  16
ENDBRANCH  13  15
ENDBRANCH   8  11
BRANCH   1  19
ATOM     19  C   UNL     1       4.744   4.098  16.546  0.00  0.00    +0.000 C 
BRANCH  19  26
ATOM     20  C   UNL     1       7.951   4.422  17.692  0.00  0.00    +0.000 C 
ATOM     21  C   UNL     1       7.051   5.388  17.019  0.00  0.00    +0.000 A 
ATOM     22  N   UNL     1       7.537   6.618  16.787  0.00  0.00    +0.000 NA
ATOM     23  O   UNL     1       6.445   7.393  16.478  0.00  0.00    +0.000 OA
ATOM     24  C   UNL     1       5.332   6.621  16.494  0.00  0.00    +0.000 A 
ATOM     25  C   UNL     1       4.051   7.348  16.494  0.00  0.00    +0.000 C 
ATOM     26  C   UNL     1       5.670   5.287  16.646  0.00  0.00    +0.000 A 
ENDBRANCH  19  26
ENDBRANCH   1  19
TORSDOF 5
ENDMDL
MODEL 7
REMARK VINA RESULT:      -7.8      1.787      7.198
REMARK  Name = 
REMARK  7 active torsions:
REMARK  status: ('A' for Active; 'I' for Inactive)
REMARK    1  A    between atoms: C_1  and  C_2
REMARK    2  A    between atoms: C_5  and  C_6
REMARK    3  A    between atoms: C_7  and  C_8
REMARK    4  A    between atoms: C_8  and  N_9
REMARK    5  A    between atoms: C_16  and  C_17
REMARK    6  A    between atoms: N_19  and  C_20
REMARK    7  A    between atoms: C_20  and  C_21
REMARK                            x       y       z     vdW  Elec       q    Type
REMARK                         _______ _______ _______ _____ _____    ______ ____
ROOT
ATOM      1  N   UNL     1       1.808   6.048  19.764  0.00  0.00    +0.000 NA
ATOM      2  C   UNL     1       1.233   5.044  20.658  0.00  0.00    +0.000 C 
ATOM      3  C   UNL     1       2.248   4.059  21.223  0.00  0.00    +0.000 C 
ATOM      4  C   UNL     1       3.142   3.441  20.156  0.00  0.00    +0.000 C 
ATOM      5  O   UNL     1       2.403   2.463  19.417  0.00  0.00    +0.000 OA
ATOM      6  C   UNL     1       3.231   1.705  18.537  0.00  0.00    +0.000 C 
ATOM      7  C   UNL     1       3.834   2.610  17.475  0.00  0.00    +0.000 C 
ATOM      8  C   UNL     1       4.589   3.752  18.154  0.00  0.00    +0.000 C 
ATOM      9  C   UNL     1       3.762   4.502  19.236  0.00  0.00    +0.000 C 
ATOM     10  C   UNL     1       2.664   5.456  18.715  0.00  0.00    +0.000 C 
ENDROOT
BRANCH   8  11
ATOM     11  C   UNL     1       5.267   4.672  17.158  0.00  0.00    +0.000 C 
ATOM     12  O   UNL     1       5.967   5.626  17.480  0.00  0.00    +0.000 OA
ATOM     13  N   UNL     1       5.012   4.294  15.856  0.00  0.00    +0.000 N 
ATOM     14  H   UNL     1       4.508   3.434  15.683  0.00  0.00    +0.000 HD
BRANCH  13  15
ATOM     15  C   UNL     1       5.675   4.893  14.726  0.00  0.00    +0.000 C 
BRANCH  15  16
ATOM     16  C   UNL     1       6.196   3.801  13.857  0.00  0.00    +0.000 C 
ATOM     17  C   UNL     1       5.514   3.472  12.545  0.00  0.00    +0.000 C 
ATOM     18  C   UNL     1       6.890   4.079  12.551  0.00  0.00    +0.000 C 
ENDBRANCH  15  16
ENDBRANCH  13  15
ENDBRANCH   8  11
BRANCH   1  19
ATOM     19  C   UNL     1       2.310   7.242  20.451  0.00  0.00    +0.000 C 
BRANCH  19  26
ATOM     20  C   UNL     1      -0.452   8.532  22.004  0.00  0.00    +0.000 C 
ATOM     21  C   UNL     1       0.358   9.038  20.872  0.00  0.00    +0.000 A 
ATOM     22  N   UNL     1      -0.009  10.211  20.332  0.00  0.00    +0.000 NA
ATOM     23  O   UNL     1       0.660  10.291  19.134  0.00  0.00    +0.000 OA
ATOM     24  C   UNL     1       1.441   9.195  18.986  0.00  0.00    +0.000 A 
ATOM     25  C   UNL     1       1.978   8.972  17.632  0.00  0.00    +0.000 C 
ATOM     26  C   UNL     1       1.442   8.441  20.147  0.00  0.00    +0.000 A 
ENDBRANCH  19  26
ENDBRANCH   1  19
TORSDOF 5
ENDMDL
MODEL 8
REMARK VINA RESULT:      -7.8      2.010      6.369
REMARK  Name = 
REMARK  7 active torsions:
REMARK  status: ('A' for Active; 'I' for Inactive)
REMARK    1  A    between atoms: C_1  and  C_2
REMARK    2  A    between atoms: C_5  and  C_6
REMARK    3  A    between atoms: C_7  and  C_8
REMARK    4  A    between atoms: C_8  and  N_9
REMARK    5  A    between atoms: C_16  and  C_17
REMARK    6  A    between atoms: N_19  and  C_20
REMARK    7  A    between atoms: C_20  and  C_21
REMARK                            x       y       z     vdW  Elec       q    Type
REMARK                         _______ _______ _______ _____ _____    ______ ____
ROOT
ATOM      1  N   UNL     1       1.751   5.857  19.732  0.00  0.00    +0.000 NA
ATOM      2  C   UNL     1       0.904   4.923  20.473  0.00  0.00    +0.000 C 
ATOM      3  C   UNL     1       1.671   3.808  21.172  0.00  0.00    +0.000 C 
ATOM      4  C   UNL     1       2.658   3.095  20.257  0.00  0.00    +0.000 C 
ATOM      5  O   UNL     1       1.949   2.231  19.364  0.00  0.00    +0.000 OA
ATOM      6  C   UNL     1       2.820   1.384  18.617  0.00  0.00    +0.000 C 
ATOM      7  C   UNL     1       3.713   2.220  17.712  0.00  0.00    +0.000 C 
ATOM      8  C   UNL     1       4.469   3.245  18.555  0.00  0.00    +0.000 C 
ATOM      9  C   UNL     1       3.561   4.080  19.502  0.00  0.00    +0.000 C 
ATOM     10  C   UNL     1       2.702   5.174  18.830  0.00  0.00    +0.000 C 
ENDROOT
BRANCH   8  11
ATOM     11  C   UNL     1       5.424   4.084  17.729  0.00  0.00    +0.000 C 
ATOM     12  O   UNL     1       5.150   4.536  16.624  0.00  0.00    +0.000 OA
ATOM     13  N   UNL     1       6.623   4.285  18.382  0.00  0.00    +0.000 N 
ATOM     14  H   UNL     1       6.726   3.963  19.334  0.00  0.00    +0.000 HD
BRANCH  13  15
ATOM     15  C   UNL     1       7.634   5.189  17.892  0.00  0.00    +0.000 C 
BRANCH  15  16
ATOM     16  C   UNL     1       7.264   6.572  18.306  0.00  0.00    +0.000 C 
ATOM     17  C   UNL     1       8.315   7.660  18.378  0.00  0.00    +0.000 C 
ATOM     18  C   UNL     1       7.236   7.719  17.333  0.00  0.00    +0.000 C 
ENDBRANCH  15  16
ENDBRANCH  13  15
ENDBRANCH   8  11
BRANCH   1  19
ATOM     19  C   UNL     1       2.266   6.967  20.541  0.00  0.00    +0.000 C 
BRANCH  19  26
ATOM     20  C   UNL     1      -0.349   8.594  22.031  0.00  0.00    +0.000 C 
ATOM     21  C   UNL     1       0.531   8.985  20.904  0.00  0.00    +0.000 A 
ATOM     22  N   UNL     1       0.310  10.183  20.341  0.00  0.00    +0.000 NA
ATOM     23  O   UNL     1       1.001  10.165  19.153  0.00  0.00    +0.000 OA
ATOM     24  C   UNL     1       1.651   8.983  19.034  0.00  0.00    +0.000 A 
ATOM     25  C   UNL     1       2.177   8.677  17.692  0.00  0.00    +0.000 C 
ATOM     26  C   UNL     1       1.548   8.253  20.205  0.00  0.00    +0.000 A 
ENDBRANCH  19  26
ENDBRANCH   1  19
TORSDOF 5
ENDMDL
MODEL 9
REMARK VINA RESULT:      -7.6      1.458      2.220
REMARK  Name = 
REMARK  7 active torsions:
REMARK  status: ('A' for Active; 'I' for Inactive)
REMARK    1  A    between atoms: C_1  and  C_2
REMARK    2  A    between atoms: C_5  and  C_6
REMARK    3  A    between atoms: C_7  and  C_8
REMARK    4  A    between atoms: C_8  and  N_9
REMARK    5  A    between atoms: C_16  and  C_17
REMARK    6  A    between atoms: N_19  and  C_20
REMARK    7  A    between atoms: C_20  and  C_21
REMARK                            x       y       z     vdW  Elec       q    Type
REMARK                         _______ _______ _______ _____ _____    ______ ____
ROOT
ATOM      1  N   UNL     1       4.482   3.893  17.546  0.00  0.00    +0.000 NA
ATOM      2  C   UNL     1       4.204   2.459  17.628  0.00  0.00    +0.000 C 
ATOM      3  C   UNL     1       2.729   2.121  17.804  0.00  0.00    +0.000 C 
ATOM      4  C   UNL     1       2.064   2.905  18.926  0.00  0.00    +0.000 C 
ATOM      5  O   UNL     1       2.474   2.378  20.191  0.00  0.00    +0.000 OA
ATOM      6  C   UNL     1       1.737   2.933  21.279  0.00  0.00    +0.000 C 
ATOM      7  C   UNL     1       2.002   4.427  21.384  0.00  0.00    +0.000 C 
ATOM      8  C   UNL     1       1.673   5.094  20.048  0.00  0.00    +0.000 C 
ATOM      9  C   UNL     1       2.339   4.412  18.819  0.00  0.00    +0.000 C 
ATOM     10  C   UNL     1       3.853   4.661  18.641  0.00  0.00    +0.000 C 
ENDROOT
BRANCH   8  11
ATOM     11  C   UNL     1       1.862   6.597  20.089  0.00  0.00    +0.000 C 
ATOM     12  O   UNL     1       1.886   7.252  21.124  0.00  0.00    +0.000 OA
ATOM     13  N   UNL     1       2.018   7.127  18.824  0.00  0.00    +0.000 N 
ATOM     14  H   UNL     1       2.087   6.502  18.033  0.00  0.00    +0.000 HD
BRANCH  13  15
ATOM     15  C   UNL     1       2.385   8.502  18.596  0.00  0.00    +0.000 C 
BRANCH  15  16
ATOM     16  C   UNL     1       1.136   9.311  18.511  0.00  0.00    +0.000 C 
ATOM     17  C   UNL     1       0.679  10.146  19.689  0.00  0.00    +0.000 C 
ATOM     18  C   UNL     1       1.159  10.813  18.430  0.00  0.00    +0.000 C 
ENDBRANCH  15  16
ENDBRANCH  13  15
ENDBRANCH   8  11
BRANCH   1  19
ATOM     19  C   UNL     1       4.383   4.443  16.191  0.00  0.00    +0.000 C 
BRANCH  19  26
ATOM     20  C   UNL     1       6.161   3.658  13.376  0.00  0.00    +0.000 C 
ATOM     21  C   UNL     1       6.422   4.641  14.454  0.00  0.00    +0.000 A 
ATOM     22  N   UNL     1       7.534   5.385  14.348  0.00  0.00    +0.000 NA
ATOM     23  O   UNL     1       7.717   5.951  15.587  0.00  0.00    +0.000 OA
ATOM     24  C   UNL     1       6.706   5.572  16.404  0.00  0.00    +0.000 A 
ATOM     25  C   UNL     1       6.914   5.831  17.839  0.00  0.00    +0.000 C 
ATOM     26  C   UNL     1       5.738   4.886  15.691  0.00  0.00    +0.000 A 
ENDBRANCH  19  26
ENDBRANCH   1  19
TORSDOF 5
ENDMDL
