MODEL 1
REMARK VINA RESULT:     -10.8      0.000      0.000
REMARK  Name = 
REMARK  3 active torsions:
REMARK  status: ('A' for Active; 'I' for Inactive)
REMARK    1  A    between atoms: N_5  and  C_6
REMARK    2  A    between atoms: C_10  and  C_11
REMARK    3  A    between atoms: N_19  and  C_20
REMARK                            x       y       z     vdW  Elec       q    Type
REMARK                         _______ _______ _______ _____ _____    ______ ____
ROOT
ATOM      1  O   UNL     1       0.241   2.737  18.972  0.00  0.00    +0.000 OA
ATOM      2  C   UNL     1       1.443   2.707  18.766  0.00  0.00    +0.000 C 
ATOM      3  N   UNL     1       2.148   1.557  18.532  0.00  0.00    +0.000 N 
ATOM      4  C   UNL     1       3.546   1.756  18.407  0.00  0.00    +0.000 C 
ATOM      5  N   UNL     1       3.697   3.201  18.294  0.00  0.00    +0.000 N 
ATOM      6  C   UNL     1       2.448   3.881  18.779  0.00  0.00    +0.000 C 
ATOM      7  C   UNL     1       1.873   4.931  17.827  0.00  0.00    +0.000 C 
ATOM      8  C   UNL     1       2.364   6.332  18.117  0.00  0.00    +0.000 C 
ATOM      9  N   UNL     1       2.257   6.626  19.522  0.00  0.00    +0.000 NA
ATOM     10  C   UNL     1       2.894   5.751  20.477  0.00  0.00    +0.000 C 
ATOM     11  C   UNL     1       2.513   4.304  20.256  0.00  0.00    +0.000 C 
ATOM     12  H   UNL     1       1.686   0.660  18.522  0.00  0.00    +0.000 HD
ENDROOT
BRANCH   9  13
ATOM     13  C   UNL     1       1.343   7.611  20.023  0.00  0.00    +0.000 C 
ATOM     14  C   UNL     1       1.260   7.682  21.586  0.00  0.00    +0.000 C 
ATOM     15  C   UNL     1       0.547   8.965  21.781  0.00  0.00    +0.000 A 
ATOM     16  C   UNL     1      -0.211   9.379  22.858  0.00  0.00    +0.000 A 
ATOM     17  C   UNL     1      -0.811  10.641  22.736  0.00  0.00    +0.000 A 
ATOM     18  C   UNL     1      -0.595  11.467  21.610  0.00  0.00    +0.000 A 
ATOM     19  C   UNL     1       0.216  11.022  20.543  0.00  0.00    +0.000 A 
ATOM     20  C   UNL     1       0.537  11.712  19.363  0.00  0.00    +0.000 A 
ATOM     21  C   UNL     1       1.320  11.084  18.365  0.00  0.00    +0.000 A 
ATOM     22  C   UNL     1       1.708   9.730  18.457  0.00  0.00    +0.000 A 
ATOM     23  C   UNL     1       1.344   9.061  19.624  0.00  0.00    +0.000 A 
ATOM     24  C   UNL     1       0.708   9.750  20.654  0.00  0.00    +0.000 A 
ENDBRANCH   9  13
BRANCH   5  25
ATOM     25  C   UNL     1       4.811   3.737  17.684  0.00  0.00    +0.000 A 
ATOM     26  C   UNL     1       5.909   4.246  18.380  0.00  0.00    +0.000 A 
ATOM     27  C   UNL     1       7.039   4.791  17.753  0.00  0.00    +0.000 A 
ATOM     28  C   UNL     1       7.128   4.802  16.372  0.00  0.00    +0.000 A 
ATOM     29  C   UNL     1       6.081   4.277  15.619  0.00  0.00    +0.000 A 
ATOM     30  C   UNL     1       4.937   3.779  16.284  0.00  0.00    +0.000 A 
BRANCH  29  31
ATOM     31  C   UNL     1       6.155   4.202  14.118  0.00  0.00    +0.000 C 
ATOM     32  F   UNL     1       6.491   2.969  13.644  0.00  0.00    +0.000 F 
ATOM     33  F   UNL     1       4.962   4.511  13.535  0.00  0.00    +0.000 F 
ATOM     34  F   UNL     1       7.063   5.068  13.590  0.00  0.00    +0.000 F 
ENDBRANCH  29  31
ENDBRANCH   5  25
TORSDOF 3
ENDMDL
MODEL 2
REMARK VINA RESULT:     -10.8      1.835      2.312
REMARK  Name = 
REMARK  3 active torsions:
REMARK  status: ('A' for Active; 'I' for Inactive)
REMARK    1  A    between atoms: N_5  and  C_6
REMARK    2  A    between atoms: C_10  and  C_11
REMARK    3  A    between atoms: N_19  and  C_20
REMARK                            x       y       z     vdW  Elec       q    Type
REMARK                         _______ _______ _______ _____ _____    ______ ____
ROOT
ATOM      1  O   UNL     1       0.072   2.785  18.883  0.00  0.00    +0.000 OA
ATOM      2  C   UNL     1       1.278   2.719  18.716  0.00  0.00    +0.000 C 
ATOM      3  N   UNL     1       1.953   1.551  18.481  0.00  0.00    +0.000 N 
ATOM      4  C   UNL     1       3.359   1.705  18.406  0.00  0.00    +0.000 C 
ATOM      5  N   UNL     1       3.562   3.147  18.329  0.00  0.00    +0.000 N 
ATOM      6  C   UNL     1       2.320   3.858  18.787  0.00  0.00    +0.000 C 
ATOM      7  C   UNL     1       1.813   4.946  17.840  0.00  0.00    +0.000 C 
ATOM      8  C   UNL     1       2.340   6.323  18.177  0.00  0.00    +0.000 C 
ATOM      9  N   UNL     1       2.195   6.592  19.583  0.00  0.00    +0.000 NA
ATOM     10  C   UNL     1       2.770   5.676  20.540  0.00  0.00    +0.000 C 
ATOM     11  C   UNL     1       2.350   4.248  20.274  0.00  0.00    +0.000 C 
ATOM     12  H   UNL     1       1.462   0.671  18.436  0.00  0.00    +0.000 HD
ENDROOT
BRANCH   9  13
ATOM     13  C   UNL     1       1.297   7.597  20.075  0.00  0.00    +0.000 C 
ATOM     14  C   UNL     1       1.222   7.689  21.637  0.00  0.00    +0.000 C 
ATOM     15  C   UNL     1       0.528   8.985  21.819  0.00  0.00    +0.000 A 
ATOM     16  C   UNL     1      -0.219   9.424  22.894  0.00  0.00    +0.000 A 
ATOM     17  C   UNL     1      -0.801  10.693  22.758  0.00  0.00    +0.000 A 
ATOM     18  C   UNL     1      -0.578  11.500  21.620  0.00  0.00    +0.000 A 
ATOM     19  C   UNL     1       0.221  11.030  20.555  0.00  0.00    +0.000 A 
ATOM     20  C   UNL     1       0.548  11.700  19.365  0.00  0.00    +0.000 A 
ATOM     21  C   UNL     1       1.317  11.048  18.372  0.00  0.00    +0.000 A 
ATOM     22  C   UNL     1       1.686   9.689  18.480  0.00  0.00    +0.000 A 
ATOM     23  C   UNL     1       1.317   9.041  19.657  0.00  0.00    +0.000 A 
ATOM     24  C   UNL     1       0.696   9.753  20.680  0.00  0.00    +0.000 A 
ENDBRANCH   9  13
BRANCH   5  25
ATOM     25  C   UNL     1       4.713   3.658  17.768  0.00  0.00    +0.000 A 
ATOM     26  C   UNL     1       5.001   3.606  16.403  0.00  0.00    +0.000 A 
ATOM     27  C   UNL     1       6.174   4.126  15.838  0.00  0.00    +0.000 A 
ATOM     28  C   UNL     1       7.100   4.773  16.638  0.00  0.00    +0.000 A 
ATOM     29  C   UNL     1       6.855   4.890  18.003  0.00  0.00    +0.000 A 
ATOM     30  C   UNL     1       5.685   4.312  18.545  0.00  0.00    +0.000 A 
BRANCH  29  31
ATOM     31  C   UNL     1       7.795   5.643  18.907  0.00  0.00    +0.000 C 
ATOM     32  F   UNL     1       8.223   6.829  18.391  0.00  0.00    +0.000 F 
ATOM     33  F   UNL     1       7.215   5.946  20.102  0.00  0.00    +0.000 F 
ATOM     34  F   UNL     1       8.918   4.936  19.207  0.00  0.00    +0.000 F 
ENDBRANCH  29  31
ENDBRANCH   5  25
TORSDOF 3
ENDMDL
MODEL 3
REMARK VINA RESULT:      -9.0      1.005      2.109
REMARK  Name = 
REMARK  3 active torsions:
REMARK  status: ('A' for Active; 'I' for Inactive)
REMARK    1  A    between atoms: N_5  and  C_6
REMARK    2  A    between atoms: C_10  and  C_11
REMARK    3  A    between atoms: N_19  and  C_20
REMARK                            x       y       z     vdW  Elec       q    Type
REMARK                         _______ _______ _______ _____ _____    ______ ____
ROOT
ATOM      1  O   UNL     1       0.341   3.812  19.403  0.00  0.00    +0.000 OA
ATOM      2  C   UNL     1       1.533   3.644  19.211  0.00  0.00    +0.000 C 
ATOM      3  N   UNL     1       2.153   2.425  19.284  0.00  0.00    +0.000 N 
ATOM      4  C   UNL     1       3.558   2.484  19.109  0.00  0.00    +0.000 C 
ATOM      5  N   UNL     1       3.806   3.835  18.623  0.00  0.00    +0.000 N 
ATOM      6  C   UNL     1       2.616   4.706  18.915  0.00  0.00    +0.000 C 
ATOM      7  C   UNL     1       2.096   5.510  17.724  0.00  0.00    +0.000 C 
ATOM      8  C   UNL     1       2.688   6.899  17.638  0.00  0.00    +0.000 C 
ATOM      9  N   UNL     1       2.630   7.556  18.918  0.00  0.00    +0.000 NA
ATOM     10  C   UNL     1       3.223   6.915  20.067  0.00  0.00    +0.000 C 
ATOM     11  C   UNL     1       2.741   5.491  20.231  0.00  0.00    +0.000 C 
ATOM     12  H   UNL     1       1.630   1.592  19.508  0.00  0.00    +0.000 HD
ENDROOT
BRANCH   9  13
ATOM     13  C   UNL     1       1.796   8.700  19.146  0.00  0.00    +0.000 C 
ATOM     14  C   UNL     1       0.724   8.953  18.031  0.00  0.00    +0.000 C 
ATOM     15  C   UNL     1      -0.163   9.933  18.698  0.00  0.00    +0.000 A 
ATOM     16  C   UNL     1      -1.008  10.865  18.128  0.00  0.00    +0.000 A 
ATOM     17  C   UNL     1      -1.694  11.699  19.024  0.00  0.00    +0.000 A 
ATOM     18  C   UNL     1      -1.581  11.546  20.424  0.00  0.00    +0.000 A 
ATOM     19  C   UNL     1      -0.733  10.558  20.970  0.00  0.00    +0.000 A 
ATOM     20  C   UNL     1      -0.512  10.269  22.326  0.00  0.00    +0.000 A 
ATOM     21  C   UNL     1       0.427   9.277  22.696  0.00  0.00    +0.000 A 
ATOM     22  C   UNL     1       1.246   8.627  21.747  0.00  0.00    +0.000 A 
ATOM     23  C   UNL     1       1.027   8.960  20.412  0.00  0.00    +0.000 A 
ATOM     24  C   UNL     1      -0.009   9.826  20.069  0.00  0.00    +0.000 A 
ENDBRANCH   9  13
BRANCH   5  25
ATOM     25  C   UNL     1       4.942   4.113  17.892  0.00  0.00    +0.000 A 
ATOM     26  C   UNL     1       6.176   4.429  18.464  0.00  0.00    +0.000 A 
ATOM     27  C   UNL     1       7.327   4.712  17.716  0.00  0.00    +0.000 A 
ATOM     28  C   UNL     1       7.290   4.641  16.334  0.00  0.00    +0.000 A 
ATOM     29  C   UNL     1       6.098   4.296  15.703  0.00  0.00    +0.000 A 
ATOM     30  C   UNL     1       4.946   4.064  16.487  0.00  0.00    +0.000 A 
BRANCH  29  31
ATOM     31  C   UNL     1       6.020   4.137  14.208  0.00  0.00    +0.000 C 
ATOM     32  F   UNL     1       4.775   4.349  13.696  0.00  0.00    +0.000 F 
ATOM     33  F   UNL     1       6.841   5.013  13.561  0.00  0.00    +0.000 F 
ATOM     34  F   UNL     1       6.394   2.898  13.788  0.00  0.00    +0.000 F 
ENDBRANCH  29  31
ENDBRANCH   5  25
TORSDOF 3
ENDMDL
MODEL 4
REMARK VINA RESULT:      -8.6      1.856      2.872
REMARK  Name = 
REMARK  3 active torsions:
REMARK  status: ('A' for Active; 'I' for Inactive)
REMARK    1  A    between atoms: N_5  and  C_6
REMARK    2  A    between atoms: C_10  and  C_11
REMARK    3  A    between atoms: N_19  and  C_20
REMARK                            x       y       z     vdW  Elec       q    Type
REMARK                         _______ _______ _______ _____ _____    ______ ____
ROOT
ATOM      1  O   UNL     1       0.242   4.008  19.743  0.00  0.00    +0.000 OA
ATOM      2  C   UNL     1       1.411   3.849  19.433  0.00  0.00    +0.000 C 
ATOM      3  N   UNL     1       2.052   2.639  19.469  0.00  0.00    +0.000 N 
ATOM      4  C   UNL     1       3.431   2.711  19.150  0.00  0.00    +0.000 C 
ATOM      5  N   UNL     1       3.609   4.054  18.612  0.00  0.00    +0.000 N 
ATOM      6  C   UNL     1       2.444   4.917  19.006  0.00  0.00    +0.000 C 
ATOM      7  C   UNL     1       1.794   5.687  17.857  0.00  0.00    +0.000 C 
ATOM      8  C   UNL     1       2.354   7.081  17.681  0.00  0.00    +0.000 C 
ATOM      9  N   UNL     1       2.417   7.766  18.946  0.00  0.00    +0.000 NA
ATOM     10  C   UNL     1       3.134   7.159  20.042  0.00  0.00    +0.000 C 
ATOM     11  C   UNL     1       2.690   5.733  20.285  0.00  0.00    +0.000 C 
ATOM     12  H   UNL     1       1.566   1.805  19.763  0.00  0.00    +0.000 HD
ENDROOT
BRANCH   9  13
ATOM     13  C   UNL     1       1.595   8.905  19.234  0.00  0.00    +0.000 C 
ATOM     14  C   UNL     1       0.498   9.200  18.156  0.00  0.00    +0.000 C 
ATOM     15  C   UNL     1      -0.368  10.161  18.878  0.00  0.00    +0.000 A 
ATOM     16  C   UNL     1      -1.222  11.115  18.362  0.00  0.00    +0.000 A 
ATOM     17  C   UNL     1      -1.881  11.921  19.302  0.00  0.00    +0.000 A 
ATOM     18  C   UNL     1      -1.733  11.721  20.693  0.00  0.00    +0.000 A 
ATOM     19  C   UNL     1      -0.877  10.711  21.183  0.00  0.00    +0.000 A 
ATOM     20  C   UNL     1      -0.623  10.376  22.522  0.00  0.00    +0.000 A 
ATOM     21  C   UNL     1       0.320   9.368  22.835  0.00  0.00    +0.000 A 
ATOM     22  C   UNL     1       1.111   8.747  21.844  0.00  0.00    +0.000 A 
ATOM     23  C   UNL     1       0.861   9.126  20.527  0.00  0.00    +0.000 A 
ATOM     24  C   UNL     1      -0.180  10.007  20.240  0.00  0.00    +0.000 A 
ENDBRANCH   9  13
BRANCH   5  25
ATOM     25  C   UNL     1       4.660   4.328  17.764  0.00  0.00    +0.000 A 
ATOM     26  C   UNL     1       4.929   3.605  16.600  0.00  0.00    +0.000 A 
ATOM     27  C   UNL     1       6.001   3.888  15.741  0.00  0.00    +0.000 A 
ATOM     28  C   UNL     1       6.834   4.962  16.004  0.00  0.00    +0.000 A 
ATOM     29  C   UNL     1       6.598   5.746  17.130  0.00  0.00    +0.000 A 
ATOM     30  C   UNL     1       5.537   5.402  17.998  0.00  0.00    +0.000 A 
BRANCH  29  31
ATOM     31  C   UNL     1       7.430   6.965  17.425  0.00  0.00    +0.000 C 
ATOM     32  F   UNL     1       8.239   7.342  16.396  0.00  0.00    +0.000 F 
ATOM     33  F   UNL     1       6.655   8.052  17.705  0.00  0.00    +0.000 F 
ATOM     34  F   UNL     1       8.244   6.801  18.503  0.00  0.00    +0.000 F 
ENDBRANCH  29  31
ENDBRANCH   5  25
TORSDOF 3
ENDMDL
MODEL 5
REMARK VINA RESULT:      -8.2      5.855     10.078
REMARK  Name = 
REMARK  3 active torsions:
REMARK  status: ('A' for Active; 'I' for Inactive)
REMARK    1  A    between atoms: N_5  and  C_6
REMARK    2  A    between atoms: C_10  and  C_11
REMARK    3  A    between atoms: N_19  and  C_20
REMARK                            x       y       z     vdW  Elec       q    Type
REMARK                         _______ _______ _______ _____ _____    ______ ____
ROOT
ATOM      1  O   UNL     1       2.513  12.539  17.913  0.00  0.00    +0.000 OA
ATOM      2  C   UNL     1       1.535  12.912  18.538  0.00  0.00    +0.000 C 
ATOM      3  N   UNL     1       1.105  14.212  18.578  0.00  0.00    +0.000 N 
ATOM      4  C   UNL     1      -0.001  14.425  19.438  0.00  0.00    +0.000 C 
ATOM      5  N   UNL     1      -0.467  13.084  19.767  0.00  0.00    +0.000 N 
ATOM      6  C   UNL     1       0.608  12.082  19.455  0.00  0.00    +0.000 C 
ATOM      7  C   UNL     1       0.154  10.888  18.616  0.00  0.00    +0.000 C 
ATOM      8  C   UNL     1      -0.266   9.698  19.450  0.00  0.00    +0.000 C 
ATOM      9  N   UNL     1       0.714   9.420  20.467  0.00  0.00    +0.000 NA
ATOM     10  C   UNL     1       1.092  10.466  21.386  0.00  0.00    +0.000 C 
ATOM     11  C   UNL     1       1.491  11.734  20.665  0.00  0.00    +0.000 C 
ATOM     12  H   UNL     1       1.598  14.935  18.075  0.00  0.00    +0.000 HD
ENDROOT
BRANCH   9  13
ATOM     13  C   UNL     1       1.505   8.224  20.451  0.00  0.00    +0.000 C 
ATOM     14  C   UNL     1       0.774   6.956  21.007  0.00  0.00    +0.000 C 
ATOM     15  C   UNL     1       1.676   5.874  20.548  0.00  0.00    +0.000 A 
ATOM     16  C   UNL     1       1.843   4.606  21.067  0.00  0.00    +0.000 A 
ATOM     17  C   UNL     1       2.816   3.812  20.443  0.00  0.00    +0.000 A 
ATOM     18  C   UNL     1       3.531   4.258  19.309  0.00  0.00    +0.000 A 
ATOM     19  C   UNL     1       3.307   5.549  18.785  0.00  0.00    +0.000 A 
ATOM     20  C   UNL     1       3.921   6.143  17.670  0.00  0.00    +0.000 A 
ATOM     21  C   UNL     1       3.618   7.480  17.322  0.00  0.00    +0.000 A 
ATOM     22  C   UNL     1       2.792   8.296  18.124  0.00  0.00    +0.000 A 
ATOM     23  C   UNL     1       2.225   7.690  19.243  0.00  0.00    +0.000 A 
ATOM     24  C   UNL     1       2.420   6.330  19.474  0.00  0.00    +0.000 A 
ENDBRANCH   9  13
BRANCH   5  25
ATOM     25  C   UNL     1      -1.772  12.880  20.163  0.00  0.00    +0.000 A 
ATOM     26  C   UNL     1      -2.807  12.547  19.287  0.00  0.00    +0.000 A 
ATOM     27  C   UNL     1      -4.133  12.343  19.696  0.00  0.00    +0.000 A 
ATOM     28  C   UNL     1      -4.465  12.422  21.037  0.00  0.00    +0.000 A 
ATOM     29  C   UNL     1      -3.471  12.715  21.967  0.00  0.00    +0.000 A 
ATOM     30  C   UNL     1      -2.155  12.962  21.514  0.00  0.00    +0.000 A 
BRANCH  29  31
ATOM     31  C   UNL     1      -3.762  12.746  23.444  0.00  0.00    +0.000 C 
ATOM     32  F   UNL     1      -5.091  12.778  23.741  0.00  0.00    +0.000 F 
ATOM     33  F   UNL     1      -3.265  11.649  24.081  0.00  0.00    +0.000 F 
ATOM     34  F   UNL     1      -3.210  13.821  24.069  0.00  0.00    +0.000 F 
ENDBRANCH  29  31
ENDBRANCH   5  25
TORSDOF 3
ENDMDL
MODEL 6
REMARK VINA RESULT:      -8.2      5.158      9.564
REMARK  Name = 
REMARK  3 active torsions:
REMARK  status: ('A' for Active; 'I' for Inactive)
REMARK    1  A    between atoms: N_5  and  C_6
REMARK    2  A    between atoms: C_10  and  C_11
REMARK    3  A    between atoms: N_19  and  C_20
REMARK                            x       y       z     vdW  Elec       q    Type
REMARK                         _______ _______ _______ _____ _____    ______ ____
ROOT
ATOM      1  O   UNL     1       2.625  12.779  18.250  0.00  0.00    +0.000 OA
ATOM      2  C   UNL     1       1.555  13.075  18.753  0.00  0.00    +0.000 C 
ATOM      3  N   UNL     1       1.066  14.353  18.809  0.00  0.00    +0.000 N 
ATOM      4  C   UNL     1      -0.156  14.470  19.518  0.00  0.00    +0.000 C 
ATOM      5  N   UNL     1      -0.602  13.094  19.699  0.00  0.00    +0.000 N 
ATOM      6  C   UNL     1       0.549  12.154  19.481  0.00  0.00    +0.000 C 
ATOM      7  C   UNL     1       0.268  11.001  18.518  0.00  0.00    +0.000 C 
ATOM      8  C   UNL     1      -0.209   9.745  19.213  0.00  0.00    +0.000 C 
ATOM      9  N   UNL     1       0.634   9.438  20.339  0.00  0.00    +0.000 NA
ATOM     10  C   UNL     1       0.837  10.435  21.362  0.00  0.00    +0.000 C 
ATOM     11  C   UNL     1       1.273  11.760  20.779  0.00  0.00    +0.000 C 
ATOM     12  H   UNL     1       1.590  15.124  18.424  0.00  0.00    +0.000 HD
ENDROOT
BRANCH   9  13
ATOM     13  C   UNL     1       1.473   8.275  20.363  0.00  0.00    +0.000 C 
ATOM     14  C   UNL     1       0.795   6.999  20.969  0.00  0.00    +0.000 C 
ATOM     15  C   UNL     1       1.738   5.939  20.545  0.00  0.00    +0.000 A 
ATOM     16  C   UNL     1       1.958   4.699  21.109  0.00  0.00    +0.000 A 
ATOM     17  C   UNL     1       2.961   3.922  20.510  0.00  0.00    +0.000 A 
ATOM     18  C   UNL     1       3.653   4.354  19.357  0.00  0.00    +0.000 A 
ATOM     19  C   UNL     1       3.376   5.615  18.787  0.00  0.00    +0.000 A 
ATOM     20  C   UNL     1       3.961   6.191  17.648  0.00  0.00    +0.000 A 
ATOM     21  C   UNL     1       3.604   7.502  17.252  0.00  0.00    +0.000 A 
ATOM     22  C   UNL     1       2.748   8.313  18.029  0.00  0.00    +0.000 A 
ATOM     23  C   UNL     1       2.210   7.726  19.172  0.00  0.00    +0.000 A 
ATOM     24  C   UNL     1       2.460   6.384  19.451  0.00  0.00    +0.000 A 
ENDBRANCH   9  13
BRANCH   5  25
ATOM     25  C   UNL     1      -1.939  12.819  19.897  0.00  0.00    +0.000 A 
ATOM     26  C   UNL     1      -2.616  13.071  21.091  0.00  0.00    +0.000 A 
ATOM     27  C   UNL     1      -3.975  12.787  21.286  0.00  0.00    +0.000 A 
ATOM     28  C   UNL     1      -4.731  12.270  20.249  0.00  0.00    +0.000 A 
ATOM     29  C   UNL     1      -4.123  12.028  19.020  0.00  0.00    +0.000 A 
ATOM     30  C   UNL     1      -2.741  12.282  18.873  0.00  0.00    +0.000 A 
BRANCH  29  31
ATOM     31  C   UNL     1      -4.913  11.531  17.838  0.00  0.00    +0.000 C 
ATOM     32  F   UNL     1      -5.709  12.480  17.271  0.00  0.00    +0.000 F 
ATOM     33  F   UNL     1      -4.102  11.081  16.840  0.00  0.00    +0.000 F 
ATOM     34  F   UNL     1      -5.732  10.490  18.151  0.00  0.00    +0.000 F 
ENDBRANCH  29  31
ENDBRANCH   5  25
TORSDOF 3
ENDMDL
MODEL 7
REMARK VINA RESULT:      -8.2      2.048      3.052
REMARK  Name = 
REMARK  3 active torsions:
REMARK  status: ('A' for Active; 'I' for Inactive)
REMARK    1  A    between atoms: N_5  and  C_6
REMARK    2  A    between atoms: C_10  and  C_11
REMARK    3  A    between atoms: N_19  and  C_20
REMARK                            x       y       z     vdW  Elec       q    Type
REMARK                         _______ _______ _______ _____ _____    ______ ____
ROOT
ATOM      1  O   UNL     1      -0.175   3.997  19.841  0.00  0.00    +0.000 OA
ATOM      2  C   UNL     1       1.003   3.750  19.647  0.00  0.00    +0.000 C 
ATOM      3  N   UNL     1       1.548   2.498  19.755  0.00  0.00    +0.000 N 
ATOM      4  C   UNL     1       2.952   2.464  19.571  0.00  0.00    +0.000 C 
ATOM      5  N   UNL     1       3.279   3.782  19.042  0.00  0.00    +0.000 N 
ATOM      6  C   UNL     1       2.148   4.733  19.313  0.00  0.00    +0.000 C 
ATOM      7  C   UNL     1       1.670   5.531  18.100  0.00  0.00    +0.000 C 
ATOM      8  C   UNL     1       2.346   6.878  17.968  0.00  0.00    +0.000 C 
ATOM      9  N   UNL     1       2.337   7.576  19.227  0.00  0.00    +0.000 NA
ATOM     10  C   UNL     1       2.899   6.935  20.392  0.00  0.00    +0.000 C 
ATOM     11  C   UNL     1       2.330   5.550  20.603  0.00  0.00    +0.000 C 
ATOM     12  H   UNL     1       0.976   1.706  20.008  0.00  0.00    +0.000 HD
ENDROOT
BRANCH   9  13
ATOM     13  C   UNL     1       1.577   8.776  19.424  0.00  0.00    +0.000 C 
ATOM     14  C   UNL     1       0.561   9.095  18.275  0.00  0.00    +0.000 C 
ATOM     15  C   UNL     1      -0.277  10.138  18.909  0.00  0.00    +0.000 A 
ATOM     16  C   UNL     1      -1.038  11.121  18.309  0.00  0.00    +0.000 A 
ATOM     17  C   UNL     1      -1.692  12.006  19.179  0.00  0.00    +0.000 A 
ATOM     18  C   UNL     1      -1.634  11.855  20.583  0.00  0.00    +0.000 A 
ATOM     19  C   UNL     1      -0.874  10.815  21.159  0.00  0.00    +0.000 A 
ATOM     20  C   UNL     1      -0.715  10.520  22.523  0.00  0.00    +0.000 A 
ATOM     21  C   UNL     1       0.141   9.468  22.926  0.00  0.00    +0.000 A 
ATOM     22  C   UNL     1       0.942   8.758  22.006  0.00  0.00    +0.000 A 
ATOM     23  C   UNL     1       0.789   9.096  20.663  0.00  0.00    +0.000 A 
ATOM     24  C   UNL     1      -0.174  10.029  20.285  0.00  0.00    +0.000 A 
ENDBRANCH   9  13
BRANCH   5  25
ATOM     25  C   UNL     1       4.425   3.967  18.297  0.00  0.00    +0.000 A 
ATOM     26  C   UNL     1       4.534   3.638  16.944  0.00  0.00    +0.000 A 
ATOM     27  C   UNL     1       5.702   3.828  16.192  0.00  0.00    +0.000 A 
ATOM     28  C   UNL     1       6.815   4.409  16.775  0.00  0.00    +0.000 A 
ATOM     29  C   UNL     1       6.759   4.792  18.112  0.00  0.00    +0.000 A 
ATOM     30  C   UNL     1       5.581   4.543  18.852  0.00  0.00    +0.000 A 
BRANCH  29  31
ATOM     31  C   UNL     1       7.916   5.491  18.777  0.00  0.00    +0.000 C 
ATOM     32  F   UNL     1       9.040   4.727  18.870  0.00  0.00    +0.000 F 
ATOM     33  F   UNL     1       8.286   6.614  18.099  0.00  0.00    +0.000 F 
ATOM     34  F   UNL     1       7.630   5.898  20.043  0.00  0.00    +0.000 F 
ENDBRANCH  29  31
ENDBRANCH   5  25
TORSDOF 3
ENDMDL
MODEL 8
REMARK VINA RESULT:      -8.1      1.432      2.405
REMARK  Name = 
REMARK  3 active torsions:
REMARK  status: ('A' for Active; 'I' for Inactive)
REMARK    1  A    between atoms: N_5  and  C_6
REMARK    2  A    between atoms: C_10  and  C_11
REMARK    3  A    between atoms: N_19  and  C_20
REMARK                            x       y       z     vdW  Elec       q    Type
REMARK                         _______ _______ _______ _____ _____    ______ ____
ROOT
ATOM      1  O   UNL     1       0.173   4.228  19.787  0.00  0.00    +0.000 OA
ATOM      2  C   UNL     1       1.386   4.120  19.712  0.00  0.00    +0.000 C 
ATOM      3  N   UNL     1       2.067   2.963  19.984  0.00  0.00    +0.000 N 
ATOM      4  C   UNL     1       3.476   3.097  19.915  0.00  0.00    +0.000 C 
ATOM      5  N   UNL     1       3.686   4.395  19.288  0.00  0.00    +0.000 N 
ATOM      6  C   UNL     1       2.427   5.211  19.376  0.00  0.00    +0.000 C 
ATOM      7  C   UNL     1       1.967   5.832  18.057  0.00  0.00    +0.000 C 
ATOM      8  C   UNL     1       2.483   7.239  17.848  0.00  0.00    +0.000 C 
ATOM      9  N   UNL     1       2.275   8.036  19.029  0.00  0.00    +0.000 NA
ATOM     10  C   UNL     1       2.802   7.577  20.292  0.00  0.00    +0.000 C 
ATOM     11  C   UNL     1       2.391   6.152  20.591  0.00  0.00    +0.000 C 
ATOM     12  H   UNL     1       1.575   2.128  20.266  0.00  0.00    +0.000 HD
ENDROOT
BRANCH   9  13
ATOM     13  C   UNL     1       1.359   9.140  19.048  0.00  0.00    +0.000 C 
ATOM     14  C   UNL     1       0.276   9.102  17.917  0.00  0.00    +0.000 C 
ATOM     15  C   UNL     1      -0.682  10.123  18.399  0.00  0.00    +0.000 A 
ATOM     16  C   UNL     1      -1.590  10.869  17.674  0.00  0.00    +0.000 A 
ATOM     17  C   UNL     1      -2.338  11.804  18.405  0.00  0.00    +0.000 A 
ATOM     18  C   UNL     1      -2.219  11.924  19.808  0.00  0.00    +0.000 A 
ATOM     19  C   UNL     1      -1.304  11.119  20.519  0.00  0.00    +0.000 A 
ATOM     20  C   UNL     1      -1.066  11.106  21.903  0.00  0.00    +0.000 A 
ATOM     21  C   UNL     1      -0.059  10.271  22.442  0.00  0.00    +0.000 A 
ATOM     22  C   UNL     1       0.807   9.515  21.623  0.00  0.00    +0.000 A 
ATOM     23  C   UNL     1       0.570   9.576  20.251  0.00  0.00    +0.000 A 
ATOM     24  C   UNL     1      -0.525  10.286  19.764  0.00  0.00    +0.000 A 
ENDBRANCH   9  13
BRANCH   5  25
ATOM     25  C   UNL     1       4.863   4.662  18.621  0.00  0.00    +0.000 A 
ATOM     26  C   UNL     1       6.036   5.080  19.252  0.00  0.00    +0.000 A 
ATOM     27  C   UNL     1       7.230   5.351  18.569  0.00  0.00    +0.000 A 
ATOM     28  C   UNL     1       7.302   5.163  17.199  0.00  0.00    +0.000 A 
ATOM     29  C   UNL     1       6.177   4.713  16.515  0.00  0.00    +0.000 A 
ATOM     30  C   UNL     1       4.977   4.495  17.229  0.00  0.00    +0.000 A 
BRANCH  29  31
ATOM     31  C   UNL     1       6.220   4.426  15.037  0.00  0.00    +0.000 C 
ATOM     32  F   UNL     1       7.362   4.851  14.428  0.00  0.00    +0.000 F 
ATOM     33  F   UNL     1       6.136   3.090  14.778  0.00  0.00    +0.000 F 
ATOM     34  F   UNL     1       5.193   5.003  14.357  0.00  0.00    +0.000 F 
ENDBRANCH  29  31
ENDBRANCH   5  25
TORSDOF 3
ENDMDL
MODEL 9
REMARK VINA RESULT:      -8.1      4.738      9.141
REMARK  Name = 
REMARK  3 active torsions:
REMARK  status: ('A' for Active; 'I' for Inactive)
REMARK    1  A    between atoms: N_5  and  C_6
REMARK    2  A    between atoms: C_10  and  C_11
REMARK    3  A    between atoms: N_19  and  C_20
REMARK                            x       y       z     vdW  Elec       q    Type
REMARK                         _______ _______ _______ _____ _____    ______ ____
ROOT
ATOM      1  O   UNL     1       2.423  13.094  20.692  0.00  0.00    +0.000 OA
ATOM      2  C   UNL     1       1.205  13.151  20.645  0.00  0.00    +0.000 C 
ATOM      3  N   UNL     1       0.486  14.296  20.867  0.00  0.00    +0.000 N 
ATOM      4  C   UNL     1      -0.918  14.104  20.846  0.00  0.00    +0.000 C 
ATOM      5  N   UNL     1      -1.092  12.763  20.302  0.00  0.00    +0.000 N 
ATOM      6  C   UNL     1       0.200  12.003  20.403  0.00  0.00    +0.000 C 
ATOM      7  C   UNL     1       0.650  11.321  19.111  0.00  0.00    +0.000 C 
ATOM      8  C   UNL     1       0.185   9.886  19.001  0.00  0.00    +0.000 C 
ATOM      9  N   UNL     1       0.455   9.170  20.220  0.00  0.00    +0.000 NA
ATOM     10  C   UNL     1      -0.058   9.684  21.468  0.00  0.00    +0.000 C 
ATOM     11  C   UNL     1       0.305  11.138  21.670  0.00  0.00    +0.000 C 
ATOM     12  H   UNL     1       0.951  15.164  21.085  0.00  0.00    +0.000 HD
ENDROOT
BRANCH   9  13
ATOM     13  C   UNL     1       1.414   8.105  20.279  0.00  0.00    +0.000 C 
ATOM     14  C   UNL     1       0.861   6.769  20.882  0.00  0.00    +0.000 C 
ATOM     15  C   UNL     1       1.925   5.814  20.494  0.00  0.00    +0.000 A 
ATOM     16  C   UNL     1       2.261   4.609  21.078  0.00  0.00    +0.000 A 
ATOM     17  C   UNL     1       3.358   3.940  20.514  0.00  0.00    +0.000 A 
ATOM     18  C   UNL     1       4.030   4.435  19.374  0.00  0.00    +0.000 A 
ATOM     19  C   UNL     1       3.634   5.654  18.783  0.00  0.00    +0.000 A 
ATOM     20  C   UNL     1       4.184   6.281  17.653  0.00  0.00    +0.000 A 
ATOM     21  C   UNL     1       3.698   7.541  17.234  0.00  0.00    +0.000 A 
ATOM     22  C   UNL     1       2.739   8.262  17.978  0.00  0.00    +0.000 A 
ATOM     23  C   UNL     1       2.237   7.630  19.114  0.00  0.00    +0.000 A 
ATOM     24  C   UNL     1       2.623   6.325  19.414  0.00  0.00    +0.000 A 
ENDBRANCH   9  13
BRANCH   5  25
ATOM     25  C   UNL     1      -2.275  12.412  19.686  0.00  0.00    +0.000 A 
ATOM     26  C   UNL     1      -3.538  12.711  20.201  0.00  0.00    +0.000 A 
ATOM     27  C   UNL     1      -4.737  12.350  19.570  0.00  0.00    +0.000 A 
ATOM     28  C   UNL     1      -4.709  11.701  18.347  0.00  0.00    +0.000 A 
ATOM     29  C   UNL     1      -3.480  11.406  17.763  0.00  0.00    +0.000 A 
ATOM     30  C   UNL     1      -2.292  11.742  18.450  0.00  0.00    +0.000 A 
BRANCH  29  31
ATOM     31  C   UNL     1      -3.393  10.763  16.404  0.00  0.00    +0.000 C 
ATOM     32  F   UNL     1      -2.444  11.313  15.596  0.00  0.00    +0.000 F 
ATOM     33  F   UNL     1      -3.085   9.438  16.489  0.00  0.00    +0.000 F 
ATOM     34  F   UNL     1      -4.562  10.830  15.712  0.00  0.00    +0.000 F 
ENDBRANCH  29  31
ENDBRANCH   5  25
TORSDOF 3
ENDMDL
