MODEL 1
REMARK VINA RESULT:      -8.4      0.000      0.000
REMARK  Name = 
REMARK  6 active torsions:
REMARK  status: ('A' for Active; 'I' for Inactive)
REMARK    1  A    between atoms: C_1  and  C_2
REMARK    2  A    between atoms: C_2  and  C_3
REMARK    3  A    between atoms: C_3  and  C_4
REMARK    4  A    between atoms: C_3  and  N_5
REMARK    5  A    between atoms: N_7  and  S_8
REMARK    6  A    between atoms: S_8  and  C_11
REMARK                            x       y       z     vdW  Elec       q    Type
REMARK                         _______ _______ _______ _____ _____    ______ ____
ROOT
ATOM      1  N   UNL     1       3.404   4.334  19.584  0.00  0.00    +0.000 N 
ATOM      2  C   UNL     1       3.499   4.024  18.146  0.00  0.00    +0.000 C 
ATOM      3  N   UNL     1       3.808   5.226  17.394  0.00  0.00    +0.000 N 
ATOM      4  C   UNL     1       3.115   6.160  18.196  0.00  0.00    +0.000 A 
ATOM      5  N   UNL     1       2.770   7.313  17.658  0.00  0.00    +0.000 NA
ATOM      6  C   UNL     1       2.148   8.115  18.495  0.00  0.00    +0.000 A 
ATOM      7  C   UNL     1       1.749   9.317  17.933  0.00  0.00    +0.000 A 
ATOM      8  C   UNL     1       1.085  10.266  18.685  0.00  0.00    +0.000 A 
ATOM      9  C   UNL     1       0.836   9.995  20.029  0.00  0.00    +0.000 A 
ATOM     10  C   UNL     1       1.247   8.763  20.596  0.00  0.00    +0.000 A 
ATOM     11  C   UNL     1       1.898   7.755  19.862  0.00  0.00    +0.000 A 
ATOM     12  N   UNL     1       2.279   6.492  20.377  0.00  0.00    +0.000 NA
ATOM     13  C   UNL     1       2.893   5.657  19.515  0.00  0.00    +0.000 A 
ENDROOT
BRANCH   3  14
ATOM     14  S   UNL     1       5.427   5.721  17.317  0.00  0.00    +0.000 S 
ATOM     15  O   UNL     1       5.473   7.170  17.210  0.00  0.00    +0.000 OA
ATOM     16  O   UNL     1       6.231   5.033  18.303  0.00  0.00    +0.000 OA
BRANCH  14  17
ATOM     17  C   UNL     1       5.944   5.087  15.741  0.00  0.00    +0.000 A 
ATOM     18  C   UNL     1       7.212   5.405  15.249  0.00  0.00    +0.000 A 
ATOM     19  C   UNL     1       7.582   4.937  13.992  0.00  0.00    +0.000 A 
ATOM     20  C   UNL     1       6.690   4.168  13.244  0.00  0.00    +0.000 A 
ATOM     21 CL   UNL     1       7.141   3.621  11.677  0.00  0.00    +0.000 Cl
ATOM     22  C   UNL     1       5.427   3.834  13.752  0.00  0.00    +0.000 A 
ATOM     23  C   UNL     1       5.065   4.286  15.011  0.00  0.00    +0.000 A 
ENDBRANCH  14  17
ENDBRANCH   3  14
BRANCH   1  24
ATOM     24  C   UNL     1       3.561   3.119  20.418  0.00  0.00    +0.000 C 
ATOM     25  C   UNL     1       4.017   1.909  19.593  0.00  0.00    +0.000 C 
BRANCH  24  27
ATOM     26  C   UNL     1       1.071   2.929  21.141  0.00  0.00    +0.000 C 
ATOM     27  C   UNL     1       2.535   2.664  21.454  0.00  0.00    +0.000 C 
ENDBRANCH  24  27
ENDBRANCH   1  24
TORSDOF 4
ENDMDL
MODEL 2
REMARK VINA RESULT:      -8.0      0.585      1.118
REMARK  Name = 
REMARK  6 active torsions:
REMARK  status: ('A' for Active; 'I' for Inactive)
REMARK    1  A    between atoms: C_1  and  C_2
REMARK    2  A    between atoms: C_2  and  C_3
REMARK    3  A    between atoms: C_3  and  C_4
REMARK    4  A    between atoms: C_3  and  N_5
REMARK    5  A    between atoms: N_7  and  S_8
REMARK    6  A    between atoms: S_8  and  C_11
REMARK                            x       y       z     vdW  Elec       q    Type
REMARK                         _______ _______ _______ _____ _____    ______ ____
ROOT
ATOM      1  N   UNL     1       2.830   4.592  19.711  0.00  0.00    +0.000 N 
ATOM      2  C   UNL     1       2.994   4.269  18.282  0.00  0.00    +0.000 C 
ATOM      3  N   UNL     1       3.475   5.430  17.558  0.00  0.00    +0.000 N 
ATOM      4  C   UNL     1       2.828   6.433  18.313  0.00  0.00    +0.000 A 
ATOM      5  N   UNL     1       2.641   7.614  17.757  0.00  0.00    +0.000 NA
ATOM      6  C   UNL     1       2.048   8.479  18.552  0.00  0.00    +0.000 A 
ATOM      7  C   UNL     1       1.815   9.714  17.969  0.00  0.00    +0.000 A 
ATOM      8  C   UNL     1       1.201  10.728  18.676  0.00  0.00    +0.000 A 
ATOM      9  C   UNL     1       0.833  10.489  19.998  0.00  0.00    +0.000 A 
ATOM     10  C   UNL     1       1.075   9.222  20.588  0.00  0.00    +0.000 A 
ATOM     11  C   UNL     1       1.668   8.151  19.897  0.00  0.00    +0.000 A 
ATOM     12  N   UNL     1       1.881   6.856  20.432  0.00  0.00    +0.000 NA
ATOM     13  C   UNL     1       2.465   5.960  19.612  0.00  0.00    +0.000 A 
ENDROOT
BRANCH   3  14
ATOM     14  S   UNL     1       5.138   5.757  17.595  0.00  0.00    +0.000 S 
ATOM     15  O   UNL     1       5.337   7.197  17.606  0.00  0.00    +0.000 OA
ATOM     16  O   UNL     1       5.813   4.916  18.559  0.00  0.00    +0.000 OA
BRANCH  14  17
ATOM     17  C   UNL     1       5.672   5.191  15.999  0.00  0.00    +0.000 A 
ATOM     18  C   UNL     1       4.787   4.482  15.183  0.00  0.00    +0.000 A 
ATOM     19  C   UNL     1       5.238   4.007  13.957  0.00  0.00    +0.000 A 
ATOM     20  C   UNL     1       6.556   4.237  13.561  0.00  0.00    +0.000 A 
ATOM     21 CL   UNL     1       7.117   3.618  12.058  0.00  0.00    +0.000 Cl
ATOM     22  C   UNL     1       7.433   4.968  14.374  0.00  0.00    +0.000 A 
ATOM     23  C   UNL     1       6.980   5.456  15.589  0.00  0.00    +0.000 A 
ENDBRANCH  14  17
ENDBRANCH   3  14
BRANCH   1  24
ATOM     24  C   UNL     1       2.804   3.370  20.549  0.00  0.00    +0.000 C 
ATOM     25  C   UNL     1       3.948   2.408  20.202  0.00  0.00    +0.000 C 
BRANCH  24  27
ATOM     26  C   UNL     1       0.645   2.239  19.645  0.00  0.00    +0.000 C 
ATOM     27  C   UNL     1       1.537   2.564  20.831  0.00  0.00    +0.000 C 
ENDBRANCH  24  27
ENDBRANCH   1  24
TORSDOF 4
ENDMDL
MODEL 3
REMARK VINA RESULT:      -7.9      0.549      1.144
REMARK  Name = 
REMARK  6 active torsions:
REMARK  status: ('A' for Active; 'I' for Inactive)
REMARK    1  A    between atoms: C_1  and  C_2
REMARK    2  A    between atoms: C_2  and  C_3
REMARK    3  A    between atoms: C_3  and  C_4
REMARK    4  A    between atoms: C_3  and  N_5
REMARK    5  A    between atoms: N_7  and  S_8
REMARK    6  A    between atoms: S_8  and  C_11
REMARK                            x       y       z     vdW  Elec       q    Type
REMARK                         _______ _______ _______ _____ _____    ______ ____
ROOT
ATOM      1  N   UNL     1       2.818   4.137  19.685  0.00  0.00    +0.000 N 
ATOM      2  C   UNL     1       3.045   3.823  18.262  0.00  0.00    +0.000 C 
ATOM      3  N   UNL     1       3.594   4.978  17.576  0.00  0.00    +0.000 N 
ATOM      4  C   UNL     1       2.935   5.991  18.309  0.00  0.00    +0.000 A 
ATOM      5  N   UNL     1       2.807   7.181  17.757  0.00  0.00    +0.000 NA
ATOM      6  C   UNL     1       2.197   8.053  18.530  0.00  0.00    +0.000 A 
ATOM      7  C   UNL     1       2.026   9.300  17.950  0.00  0.00    +0.000 A 
ATOM      8  C   UNL     1       1.404  10.323  18.636  0.00  0.00    +0.000 A 
ATOM      9  C   UNL     1       0.963  10.081  19.935  0.00  0.00    +0.000 A 
ATOM     10  C   UNL     1       1.141   8.803  20.523  0.00  0.00    +0.000 A 
ATOM     11  C   UNL     1       1.740   7.723  19.851  0.00  0.00    +0.000 A 
ATOM     12  N   UNL     1       1.893   6.418  20.382  0.00  0.00    +0.000 NA
ATOM     13  C   UNL     1       2.494   5.515  19.582  0.00  0.00    +0.000 A 
ENDROOT
BRANCH   3  14
ATOM     14  S   UNL     1       5.260   5.260  17.701  0.00  0.00    +0.000 S 
ATOM     15  O   UNL     1       5.486   6.685  17.883  0.00  0.00    +0.000 OA
ATOM     16  O   UNL     1       5.887   4.299  18.583  0.00  0.00    +0.000 OA
BRANCH  14  17
ATOM     17  C   UNL     1       5.835   4.868  16.068  0.00  0.00    +0.000 A 
ATOM     18  C   UNL     1       7.112   5.270  15.668  0.00  0.00    +0.000 A 
ATOM     19  C   UNL     1       7.528   4.994  14.371  0.00  0.00    +0.000 A 
ATOM     20  C   UNL     1       6.674   4.329  13.491  0.00  0.00    +0.000 A 
ATOM     21 CL   UNL     1       7.181   4.020  11.877  0.00  0.00    +0.000 Cl
ATOM     22  C   UNL     1       5.402   3.908  13.904  0.00  0.00    +0.000 A 
ATOM     23  C   UNL     1       4.994   4.168  15.202  0.00  0.00    +0.000 A 
ENDBRANCH  14  17
ENDBRANCH   3  14
BRANCH   1  24
ATOM     24  C   UNL     1       2.718   2.908  20.507  0.00  0.00    +0.000 C 
ATOM     25  C   UNL     1       1.612   3.010  21.566  0.00  0.00    +0.000 C 
BRANCH  24  27
ATOM     26  C   UNL     1       4.791   1.378  20.160  0.00  0.00    +0.000 C 
ATOM     27  C   UNL     1       3.926   2.191  21.108  0.00  0.00    +0.000 C 
ENDBRANCH  24  27
ENDBRANCH   1  24
TORSDOF 4
ENDMDL
MODEL 4
REMARK VINA RESULT:      -7.6      3.344      5.863
REMARK  Name = 
REMARK  6 active torsions:
REMARK  status: ('A' for Active; 'I' for Inactive)
REMARK    1  A    between atoms: C_1  and  C_2
REMARK    2  A    between atoms: C_2  and  C_3
REMARK    3  A    between atoms: C_3  and  C_4
REMARK    4  A    between atoms: C_3  and  N_5
REMARK    5  A    between atoms: N_7  and  S_8
REMARK    6  A    between atoms: S_8  and  C_11
REMARK                            x       y       z     vdW  Elec       q    Type
REMARK                         _______ _______ _______ _____ _____    ______ ____
ROOT
ATOM      1  N   UNL     1       5.363   4.388  15.413  0.00  0.00    +0.000 N 
ATOM      2  C   UNL     1       5.627   5.825  15.616  0.00  0.00    +0.000 C 
ATOM      3  N   UNL     1       5.517   6.159  17.024  0.00  0.00    +0.000 N 
ATOM      4  C   UNL     1       4.500   5.245  17.379  0.00  0.00    +0.000 A 
ATOM      5  N   UNL     1       3.789   5.489  18.462  0.00  0.00    +0.000 NA
ATOM      6  C   UNL     1       2.884   4.567  18.712  0.00  0.00    +0.000 A 
ATOM      7  C   UNL     1       2.106   4.827  19.828  0.00  0.00    +0.000 A 
ATOM      8  C   UNL     1       1.113   3.952  20.221  0.00  0.00    +0.000 A 
ATOM      9  C   UNL     1       0.919   2.789  19.479  0.00  0.00    +0.000 A 
ATOM     10  C   UNL     1       1.719   2.530  18.337  0.00  0.00    +0.000 A 
ATOM     11  C   UNL     1       2.720   3.406  17.882  0.00  0.00    +0.000 A 
ATOM     12  N   UNL     1       3.506   3.210  16.720  0.00  0.00    +0.000 NA
ATOM     13  C   UNL     1       4.416   4.165  16.446  0.00  0.00    +0.000 A 
ENDROOT
BRANCH   3  14
ATOM     14  S   UNL     1       6.852   5.851  18.021  0.00  0.00    +0.000 S 
ATOM     15  O   UNL     1       6.379   5.524  19.357  0.00  0.00    +0.000 OA
ATOM     16  O   UNL     1       7.815   5.000  17.356  0.00  0.00    +0.000 OA
BRANCH  14  17
ATOM     17  C   UNL     1       7.616   7.449  18.139  0.00  0.00    +0.000 A 
ATOM     18  C   UNL     1       8.570   7.689  19.132  0.00  0.00    +0.000 A 
ATOM     19  C   UNL     1       9.124   8.960  19.237  0.00  0.00    +0.000 A 
ATOM     20  C   UNL     1       8.723   9.971  18.363  0.00  0.00    +0.000 A 
ATOM     21 CL   UNL     1       9.386  11.550  18.521  0.00  0.00    +0.000 Cl
ATOM     22  C   UNL     1       7.781   9.718  17.356  0.00  0.00    +0.000 A 
ATOM     23  C   UNL     1       7.242   8.448  17.240  0.00  0.00    +0.000 A 
ENDBRANCH  14  17
ENDBRANCH   3  14
BRANCH   1  24
ATOM     24  C   UNL     1       5.909   3.910  14.121  0.00  0.00    +0.000 C 
ATOM     25  C   UNL     1       7.139   4.714  13.681  0.00  0.00    +0.000 C 
BRANCH  24  27
ATOM     26  C   UNL     1       5.639   2.681  11.846  0.00  0.00    +0.000 C 
ATOM     27  C   UNL     1       5.046   3.602  12.899  0.00  0.00    +0.000 C 
ENDBRANCH  24  27
ENDBRANCH   1  24
TORSDOF 4
ENDMDL
MODEL 5
REMARK VINA RESULT:      -7.5      1.146      1.628
REMARK  Name = 
REMARK  6 active torsions:
REMARK  status: ('A' for Active; 'I' for Inactive)
REMARK    1  A    between atoms: C_1  and  C_2
REMARK    2  A    between atoms: C_2  and  C_3
REMARK    3  A    between atoms: C_3  and  C_4
REMARK    4  A    between atoms: C_3  and  N_5
REMARK    5  A    between atoms: N_7  and  S_8
REMARK    6  A    between atoms: S_8  and  C_11
REMARK                            x       y       z     vdW  Elec       q    Type
REMARK                         _______ _______ _______ _____ _____    ______ ____
ROOT
ATOM      1  N   UNL     1       2.413   4.569  19.685  0.00  0.00    +0.000 N 
ATOM      2  C   UNL     1       2.503   4.622  18.215  0.00  0.00    +0.000 C 
ATOM      3  N   UNL     1       2.957   5.932  17.787  0.00  0.00    +0.000 N 
ATOM      4  C   UNL     1       2.356   6.706  18.805  0.00  0.00    +0.000 A 
ATOM      5  N   UNL     1       2.152   7.988  18.578  0.00  0.00    +0.000 NA
ATOM      6  C   UNL     1       1.606   8.619  19.596  0.00  0.00    +0.000 A 
ATOM      7  C   UNL     1       1.354   9.961  19.359  0.00  0.00    +0.000 A 
ATOM      8  C   UNL     1       0.785  10.758  20.331  0.00  0.00    +0.000 A 
ATOM      9  C   UNL     1       0.481  10.188  21.566  0.00  0.00    +0.000 A 
ATOM     10  C   UNL     1       0.741   8.814  21.800  0.00  0.00    +0.000 A 
ATOM     11  C   UNL     1       1.290   7.957  20.830  0.00  0.00    +0.000 A 
ATOM     12  N   UNL     1       1.519   6.570  21.006  0.00  0.00    +0.000 NA
ATOM     13  C   UNL     1       2.054   5.916  19.957  0.00  0.00    +0.000 A 
ENDROOT
BRANCH   3  14
ATOM     14  S   UNL     1       4.622   6.246  17.823  0.00  0.00    +0.000 S 
ATOM     15  O   UNL     1       4.840   7.666  17.600  0.00  0.00    +0.000 OA
ATOM     16  O   UNL     1       5.256   5.573  18.935  0.00  0.00    +0.000 OA
BRANCH  14  17
ATOM     17  C   UNL     1       5.197   5.417  16.362  0.00  0.00    +0.000 A 
ATOM     18  C   UNL     1       5.306   6.124  15.162  0.00  0.00    +0.000 A 
ATOM     19  C   UNL     1       5.715   5.446  14.018  0.00  0.00    +0.000 A 
ATOM     20  C   UNL     1       6.003   4.083  14.080  0.00  0.00    +0.000 A 
ATOM     21 CL   UNL     1       6.475   3.243  12.655  0.00  0.00    +0.000 Cl
ATOM     22  C   UNL     1       5.913   3.383  15.292  0.00  0.00    +0.000 A 
ATOM     23  C   UNL     1       5.522   4.062  16.435  0.00  0.00    +0.000 A 
ENDBRANCH  14  17
ENDBRANCH   3  14
BRANCH   1  24
ATOM     24  C   UNL     1       2.419   3.174  20.184  0.00  0.00    +0.000 C 
ATOM     25  C   UNL     1       1.948   3.080  21.641  0.00  0.00    +0.000 C 
BRANCH  24  27
ATOM     26  C   UNL     1       3.596   1.427  18.660  0.00  0.00    +0.000 C 
ATOM     27  C   UNL     1       3.578   2.202  19.967  0.00  0.00    +0.000 C 
ENDBRANCH  24  27
ENDBRANCH   1  24
TORSDOF 4
ENDMDL
MODEL 6
REMARK VINA RESULT:      -7.3      1.230      1.770
REMARK  Name = 
REMARK  6 active torsions:
REMARK  status: ('A' for Active; 'I' for Inactive)
REMARK    1  A    between atoms: C_1  and  C_2
REMARK    2  A    between atoms: C_2  and  C_3
REMARK    3  A    between atoms: C_3  and  C_4
REMARK    4  A    between atoms: C_3  and  N_5
REMARK    5  A    between atoms: N_7  and  S_8
REMARK    6  A    between atoms: S_8  and  C_11
REMARK                            x       y       z     vdW  Elec       q    Type
REMARK                         _______ _______ _______ _____ _____    ______ ____
ROOT
ATOM      1  N   UNL     1       2.192   4.621  19.744  0.00  0.00    +0.000 N 
ATOM      2  C   UNL     1       2.307   4.675  18.275  0.00  0.00    +0.000 C 
ATOM      3  N   UNL     1       2.825   5.966  17.861  0.00  0.00    +0.000 N 
ATOM      4  C   UNL     1       2.243   6.762  18.873  0.00  0.00    +0.000 A 
ATOM      5  N   UNL     1       2.098   8.053  18.649  0.00  0.00    +0.000 NA
ATOM      6  C   UNL     1       1.565   8.702  19.662  0.00  0.00    +0.000 A 
ATOM      7  C   UNL     1       1.375  10.055  19.428  0.00  0.00    +0.000 A 
ATOM      8  C   UNL     1       0.826  10.872  20.395  0.00  0.00    +0.000 A 
ATOM      9  C   UNL     1       0.479  10.311  21.622  0.00  0.00    +0.000 A 
ATOM     10  C   UNL     1       0.675   8.926  21.853  0.00  0.00    +0.000 A 
ATOM     11  C   UNL     1       1.201   8.050  20.888  0.00  0.00    +0.000 A 
ATOM     12  N   UNL     1       1.366   6.653  21.060  0.00  0.00    +0.000 NA
ATOM     13  C   UNL     1       1.888   5.980  20.016  0.00  0.00    +0.000 A 
ENDROOT
BRANCH   3  14
ATOM     14  S   UNL     1       4.501   6.207  17.924  0.00  0.00    +0.000 S 
ATOM     15  O   UNL     1       4.783   7.621  17.736  0.00  0.00    +0.000 OA
ATOM     16  O   UNL     1       5.091   5.482  19.028  0.00  0.00    +0.000 OA
BRANCH  14  17
ATOM     17  C   UNL     1       5.059   5.386  16.452  0.00  0.00    +0.000 A 
ATOM     18  C   UNL     1       5.344   4.018  16.487  0.00  0.00    +0.000 A 
ATOM     19  C   UNL     1       5.824   3.403  15.336  0.00  0.00    +0.000 A 
ATOM     20  C   UNL     1       6.016   4.150  14.173  0.00  0.00    +0.000 A 
ATOM     21 CL   UNL     1       6.642   3.389  12.764  0.00  0.00    +0.000 Cl
ATOM     22  C   UNL     1       5.708   5.517  14.138  0.00  0.00    +0.000 A 
ATOM     23  C   UNL     1       5.215   6.127  15.280  0.00  0.00    +0.000 A 
ENDBRANCH  14  17
ENDBRANCH   3  14
BRANCH   1  24
ATOM     24  C   UNL     1       2.129   3.224  20.236  0.00  0.00    +0.000 C 
ATOM     25  C   UNL     1       2.094   3.153  21.768  0.00  0.00    +0.000 C 
BRANCH  24  27
ATOM     26  C   UNL     1       4.489   2.149  20.050  0.00  0.00    +0.000 C 
ATOM     27  C   UNL     1       3.011   2.097  19.700  0.00  0.00    +0.000 C 
ENDBRANCH  24  27
ENDBRANCH   1  24
TORSDOF 4
ENDMDL
MODEL 7
REMARK VINA RESULT:      -7.3      3.462      7.519
REMARK  Name = 
REMARK  6 active torsions:
REMARK  status: ('A' for Active; 'I' for Inactive)
REMARK    1  A    between atoms: C_1  and  C_2
REMARK    2  A    between atoms: C_2  and  C_3
REMARK    3  A    between atoms: C_3  and  C_4
REMARK    4  A    between atoms: C_3  and  N_5
REMARK    5  A    between atoms: N_7  and  S_8
REMARK    6  A    between atoms: S_8  and  C_11
REMARK                            x       y       z     vdW  Elec       q    Type
REMARK                         _______ _______ _______ _____ _____    ______ ____
ROOT
ATOM      1  N   UNL     1       6.926   6.570  16.818  0.00  0.00    +0.000 N 
ATOM      2  C   UNL     1       5.555   7.087  16.976  0.00  0.00    +0.000 C 
ATOM      3  N   UNL     1       4.591   6.080  16.572  0.00  0.00    +0.000 N 
ATOM      4  C   UNL     1       5.342   5.469  15.544  0.00  0.00    +0.000 A 
ATOM      5  N   UNL     1       4.698   4.783  14.621  0.00  0.00    +0.000 NA
ATOM      6  C   UNL     1       5.492   4.240  13.723  0.00  0.00    +0.000 A 
ATOM      7  C   UNL     1       4.827   3.544  12.727  0.00  0.00    +0.000 A 
ATOM      8  C   UNL     1       5.522   2.917  11.713  0.00  0.00    +0.000 A 
ATOM      9  C   UNL     1       6.914   2.985  11.720  0.00  0.00    +0.000 A 
ATOM     10  C   UNL     1       7.588   3.699  12.742  0.00  0.00    +0.000 A 
ATOM     11  C   UNL     1       6.921   4.379  13.776  0.00  0.00    +0.000 A 
ATOM     12  N   UNL     1       7.552   5.145  14.787  0.00  0.00    +0.000 NA
ATOM     13  C   UNL     1       6.740   5.724  15.693  0.00  0.00    +0.000 A 
ENDROOT
BRANCH   3  14
ATOM     14  S   UNL     1       4.184   4.875  17.692  0.00  0.00    +0.000 S 
ATOM     15  O   UNL     1       3.373   3.867  17.028  0.00  0.00    +0.000 OA
ATOM     16  O   UNL     1       5.332   4.488  18.483  0.00  0.00    +0.000 OA
BRANCH  14  17
ATOM     17  C   UNL     1       3.099   5.737  18.802  0.00  0.00    +0.000 A 
ATOM     18  C   UNL     1       2.801   7.083  18.573  0.00  0.00    +0.000 A 
ATOM     19  C   UNL     1       1.986   7.754  19.478  0.00  0.00    +0.000 A 
ATOM     20  C   UNL     1       1.484   7.085  20.595  0.00  0.00    +0.000 A 
ATOM     21 CL   UNL     1       0.505   7.929  21.728  0.00  0.00    +0.000 Cl
ATOM     22  C   UNL     1       1.768   5.728  20.807  0.00  0.00    +0.000 A 
ATOM     23  C   UNL     1       2.566   5.055  19.897  0.00  0.00    +0.000 A 
ENDBRANCH  14  17
ENDBRANCH   3  14
BRANCH   1  24
ATOM     24  C   UNL     1       7.898   7.338  17.631  0.00  0.00    +0.000 C 
ATOM     25  C   UNL     1       8.175   6.670  18.984  0.00  0.00    +0.000 C 
BRANCH  24  27
ATOM     26  C   UNL     1       8.909   9.491  18.681  0.00  0.00    +0.000 C 
ATOM     27  C   UNL     1       7.830   8.853  17.823  0.00  0.00    +0.000 C 
ENDBRANCH  24  27
ENDBRANCH   1  24
TORSDOF 4
ENDMDL
MODEL 8
REMARK VINA RESULT:      -7.1      5.511      9.824
REMARK  Name = 
REMARK  6 active torsions:
REMARK  status: ('A' for Active; 'I' for Inactive)
REMARK    1  A    between atoms: C_1  and  C_2
REMARK    2  A    between atoms: C_2  and  C_3
REMARK    3  A    between atoms: C_3  and  C_4
REMARK    4  A    between atoms: C_3  and  N_5
REMARK    5  A    between atoms: N_7  and  S_8
REMARK    6  A    between atoms: S_8  and  C_11
REMARK                            x       y       z     vdW  Elec       q    Type
REMARK                         _______ _______ _______ _____ _____    ______ ____
ROOT
ATOM      1  N   UNL     1      -0.229  10.706  18.736  0.00  0.00    +0.000 N 
ATOM      2  C   UNL     1      -1.095  10.284  19.852  0.00  0.00    +0.000 C 
ATOM      3  N   UNL     1      -0.310   9.608  20.868  0.00  0.00    +0.000 N 
ATOM      4  C   UNL     1       0.644   8.997  20.024  0.00  0.00    +0.000 A 
ATOM      5  N   UNL     1       1.298   7.946  20.477  0.00  0.00    +0.000 NA
ATOM      6  C   UNL     1       2.175   7.466  19.622  0.00  0.00    +0.000 A 
ATOM      7  C   UNL     1       2.846   6.340  20.071  0.00  0.00    +0.000 A 
ATOM      8  C   UNL     1       3.799   5.721  19.288  0.00  0.00    +0.000 A 
ATOM      9  C   UNL     1       4.084   6.263  18.036  0.00  0.00    +0.000 A 
ATOM     10  C   UNL     1       3.394   7.415  17.582  0.00  0.00    +0.000 A 
ATOM     11  C   UNL     1       2.395   8.060  18.332  0.00  0.00    +0.000 A 
ATOM     12  N   UNL     1       1.646   9.181  17.897  0.00  0.00    +0.000 NA
ATOM     13  C   UNL     1       0.729   9.659  18.761  0.00  0.00    +0.000 A 
ENDROOT
BRANCH   3  14
ATOM     14  S   UNL     1       0.534  10.562  21.985  0.00  0.00    +0.000 S 
ATOM     15  O   UNL     1       0.841   9.758  23.157  0.00  0.00    +0.000 OA
ATOM     16  O   UNL     1       1.569  11.336  21.335  0.00  0.00    +0.000 OA
BRANCH  14  17
ATOM     17  C   UNL     1      -0.700  11.734  22.493  0.00  0.00    +0.000 A 
ATOM     18  C   UNL     1      -1.851  11.288  23.149  0.00  0.00    +0.000 A 
ATOM     19  C   UNL     1      -2.827  12.215  23.498  0.00  0.00    +0.000 A 
ATOM     20  C   UNL     1      -2.650  13.564  23.189  0.00  0.00    +0.000 A 
ATOM     21 CL   UNL     1      -3.877  14.700  23.593  0.00  0.00    +0.000 Cl
ATOM     22  C   UNL     1      -1.484  14.009  22.550  0.00  0.00    +0.000 A 
ATOM     23  C   UNL     1      -0.504  13.088  22.217  0.00  0.00    +0.000 A 
ENDBRANCH  14  17
ENDBRANCH   3  14
BRANCH   1  24
ATOM     24  C   UNL     1      -0.859  11.778  17.929  0.00  0.00    +0.000 C 
ATOM     25  C   UNL     1      -0.658  13.164  18.554  0.00  0.00    +0.000 C 
BRANCH  24  27
ATOM     26  C   UNL     1      -2.516  10.633  16.286  0.00  0.00    +0.000 C 
ATOM     27  C   UNL     1      -2.272  11.685  17.354  0.00  0.00    +0.000 C 
ENDBRANCH  24  27
ENDBRANCH   1  24
TORSDOF 4
ENDMDL
MODEL 9
REMARK VINA RESULT:      -7.1      1.016      1.193
REMARK  Name = 
REMARK  6 active torsions:
REMARK  status: ('A' for Active; 'I' for Inactive)
REMARK    1  A    between atoms: C_1  and  C_2
REMARK    2  A    between atoms: C_2  and  C_3
REMARK    3  A    between atoms: C_3  and  C_4
REMARK    4  A    between atoms: C_3  and  N_5
REMARK    5  A    between atoms: N_7  and  S_8
REMARK    6  A    between atoms: S_8  and  C_11
REMARK                            x       y       z     vdW  Elec       q    Type
REMARK                         _______ _______ _______ _____ _____    ______ ____
ROOT
ATOM      1  N   UNL     1       2.769   4.380  19.578  0.00  0.00    +0.000 N 
ATOM      2  C   UNL     1       2.788   4.412  18.104  0.00  0.00    +0.000 C 
ATOM      3  N   UNL     1       3.140   5.741  17.637  0.00  0.00    +0.000 N 
ATOM      4  C   UNL     1       2.538   6.493  18.670  0.00  0.00    +0.000 A 
ATOM      5  N   UNL     1       2.243   7.756  18.434  0.00  0.00    +0.000 NA
ATOM      6  C   UNL     1       1.705   8.369  19.467  0.00  0.00    +0.000 A 
ATOM      7  C   UNL     1       1.359   9.688  19.223  0.00  0.00    +0.000 A 
ATOM      8  C   UNL     1       0.785  10.466  20.209  0.00  0.00    +0.000 A 
ATOM      9  C   UNL     1       0.574   9.899  21.464  0.00  0.00    +0.000 A 
ATOM     10  C   UNL     1       0.930   8.548  21.706  0.00  0.00    +0.000 A 
ATOM     11  C   UNL     1       1.488   7.710  20.724  0.00  0.00    +0.000 A 
ATOM     12  N   UNL     1       1.812   6.344  20.909  0.00  0.00    +0.000 NA
ATOM     13  C   UNL     1       2.339   5.706  19.846  0.00  0.00    +0.000 A 
ENDROOT
BRANCH   3  14
ATOM     14  S   UNL     1       4.782   6.158  17.592  0.00  0.00    +0.000 S 
ATOM     15  O   UNL     1       4.900   7.584  17.335  0.00  0.00    +0.000 OA
ATOM     16  O   UNL     1       5.506   5.547  18.685  0.00  0.00    +0.000 OA
BRANCH  14  17
ATOM     17  C   UNL     1       5.342   5.338  16.120  0.00  0.00    +0.000 A 
ATOM     18  C   UNL     1       5.843   4.036  16.201  0.00  0.00    +0.000 A 
ATOM     19  C   UNL     1       6.320   3.427  15.045  0.00  0.00    +0.000 A 
ATOM     20  C   UNL     1       6.297   4.116  13.833  0.00  0.00    +0.000 A 
ATOM     21 CL   UNL     1       6.920   3.370  12.414  0.00  0.00    +0.000 Cl
ATOM     22  C   UNL     1       5.773   5.414  13.754  0.00  0.00    +0.000 A 
ATOM     23  C   UNL     1       5.283   6.015  14.901  0.00  0.00    +0.000 A 
ENDBRANCH  14  17
ENDBRANCH   3  14
BRANCH   1  24
ATOM     24  C   UNL     1       2.885   2.996  20.096  0.00  0.00    +0.000 C 
ATOM     25  C   UNL     1       2.242   1.971  19.153  0.00  0.00    +0.000 C 
BRANCH  24  27
ATOM     26  C   UNL     1       1.131   2.646  21.983  0.00  0.00    +0.000 C 
ATOM     27  C   UNL     1       2.585   2.606  21.542  0.00  0.00    +0.000 C 
ENDBRANCH  24  27
ENDBRANCH   1  24
TORSDOF 4
ENDMDL
