MODEL 1
REMARK VINA RESULT:      -7.9      0.000      0.000
REMARK  Name = 
REMARK  16 active torsions:
REMARK  status: ('A' for Active; 'I' for Inactive)
REMARK    1  A    between atoms: C_1  and  C_2
REMARK    2  A    between atoms: C_2  and  C_3
REMARK    3  A    between atoms: C_3  and  C_4
REMARK    4  A    between atoms: C_4  and  C_5
REMARK    5  A    between atoms: C_5  and  C_6
REMARK    6  A    between atoms: C_6  and  C_7
REMARK    7  A    between atoms: C_10  and  O_11
REMARK    8  A    between atoms: C_13  and  O_14
REMARK    9  A    between atoms: O_14  and  C_15
REMARK   10  A    between atoms: C_15  and  C_16
REMARK   11  A    between atoms: C_16  and  C_17
REMARK   12  A    between atoms: C_17  and  C_18
REMARK   13  A    between atoms: C_18  and  C_19
REMARK   14  A    between atoms: C_19  and  C_20
REMARK   15  A    between atoms: N_22  and  C_23
REMARK   16  A    between atoms: C_26  and  O_27
REMARK                            x       y       z     vdW  Elec       q    Type
REMARK                         _______ _______ _______ _____ _____    ______ ____
ROOT
ATOM      1  C   UNL     1       4.314   3.014  18.558  0.00  0.00    +0.000 C 
ENDROOT
BRANCH   1   2
ATOM      2  O   UNL     1       4.233   4.363  18.120  0.00  0.00    +0.000 OA
BRANCH   2   8
ATOM      3  C   UNL     1       5.959   5.819  17.014  0.00  0.00    +0.000 A 
ATOM      4  C   UNL     1       7.186   6.490  17.213  0.00  0.00    +0.000 A 
ATOM      5  C   UNL     1       7.874   6.423  18.424  0.00  0.00    +0.000 A 
ATOM      6  C   UNL     1       7.336   5.677  19.457  0.00  0.00    +0.000 A 
ATOM      7  C   UNL     1       6.137   4.995  19.291  0.00  0.00    +0.000 A 
ATOM      8  C   UNL     1       5.430   5.049  18.073  0.00  0.00    +0.000 A 
BRANCH   6   9
ATOM      9  O   UNL     1       7.961   5.608  20.662  0.00  0.00    +0.000 OA
ATOM     10  H   UNL     1       8.521   4.809  20.683  0.00  0.00    +0.000 HD
ENDBRANCH   6   9
BRANCH   3  11
ATOM     11  C   UNL     1       5.287   6.123  15.689  0.00  0.00    +0.000 C 
BRANCH  11  12
ATOM     12  C   UNL     1       5.043   4.837  14.900  0.00  0.00    +0.000 C 
BRANCH  12  13
ATOM     13  C   UNL     1       6.353   4.129  14.561  0.00  0.00    +0.000 C 
BRANCH  13  14
ATOM     14  C   UNL     1       7.067   4.823  13.400  0.00  0.00    +0.000 C 
BRANCH  14  16
ATOM     15  C   UNL     1       5.779   3.076  12.121  0.00  0.00    +0.000 C 
ATOM     16  C   UNL     1       6.998   3.983  12.126  0.00  0.00    +0.000 C 
ENDBRANCH  14  16
ENDBRANCH  13  14
ENDBRANCH  12  13
ENDBRANCH  11  12
ENDBRANCH   3  11
ENDBRANCH   2   8
ENDBRANCH   1   2
BRANCH   1  17
ATOM     17  C   UNL     1       3.105   2.179  18.130  0.00  0.00    +0.000 C 
BRANCH  17  18
ATOM     18  C   UNL     1       1.836   2.633  18.873  0.00  0.00    +0.000 C 
BRANCH  18  19
ATOM     19  C   UNL     1       1.942   2.399  20.380  0.00  0.00    +0.000 C 
BRANCH  19  20
ATOM     20  C   UNL     1       2.374   3.641  21.148  0.00  0.00    +0.000 C 
BRANCH  20  21
ATOM     21  C   UNL     1       1.698   4.868  20.565  0.00  0.00    +0.000 C 
ATOM     22  O   UNL     1       0.479   4.897  20.431  0.00  0.00    +0.000 OA
ATOM     23  N   UNL     1       2.588   5.875  20.221  0.00  0.00    +0.000 N 
ATOM     24  H   UNL     1       3.570   5.628  20.181  0.00  0.00    +0.000 HD
BRANCH  23  25
ATOM     25  C   UNL     1       2.238   7.144  19.718  0.00  0.00    +0.000 A 
ATOM     26  C   UNL     1       1.558   8.098  20.481  0.00  0.00    +0.000 A 
ATOM     27  C   UNL     1       1.130   9.296  19.907  0.00  0.00    +0.000 A 
ATOM     28  C   UNL     1       1.399   9.545  18.568  0.00  0.00    +0.000 A 
ATOM     29  C   UNL     1       2.142   8.644  17.815  0.00  0.00    +0.000 A 
ATOM     30  C   UNL     1       2.575   7.447  18.394  0.00  0.00    +0.000 A 
BRANCH  28  31
ATOM     31  O   UNL     1       0.933  10.668  17.953  0.00  0.00    +0.000 OA
ATOM     32  H   UNL     1       1.141  11.430  18.519  0.00  0.00    +0.000 HD
ENDBRANCH  28  31
ENDBRANCH  23  25
ENDBRANCH  20  21
ENDBRANCH  19  20
ENDBRANCH  18  19
ENDBRANCH  17  18
ENDBRANCH   1  17
TORSDOF 15
ENDMDL
MODEL 2
REMARK VINA RESULT:      -7.2      0.768      1.329
REMARK  Name = 
REMARK  16 active torsions:
REMARK  status: ('A' for Active; 'I' for Inactive)
REMARK    1  A    between atoms: C_1  and  C_2
REMARK    2  A    between atoms: C_2  and  C_3
REMARK    3  A    between atoms: C_3  and  C_4
REMARK    4  A    between atoms: C_4  and  C_5
REMARK    5  A    between atoms: C_5  and  C_6
REMARK    6  A    between atoms: C_6  and  C_7
REMARK    7  A    between atoms: C_10  and  O_11
REMARK    8  A    between atoms: C_13  and  O_14
REMARK    9  A    between atoms: O_14  and  C_15
REMARK   10  A    between atoms: C_15  and  C_16
REMARK   11  A    between atoms: C_16  and  C_17
REMARK   12  A    between atoms: C_17  and  C_18
REMARK   13  A    between atoms: C_18  and  C_19
REMARK   14  A    between atoms: C_19  and  C_20
REMARK   15  A    between atoms: N_22  and  C_23
REMARK   16  A    between atoms: C_26  and  O_27
REMARK                            x       y       z     vdW  Elec       q    Type
REMARK                         _______ _______ _______ _____ _____    ______ ____
ROOT
ATOM      1  C   UNL     1       3.620   3.548  17.894  0.00  0.00    +0.000 C 
ENDROOT
BRANCH   1   2
ATOM      2  O   UNL     1       4.975   3.281  17.563  0.00  0.00    +0.000 OA
BRANCH   2   8
ATOM      3  C   UNL     1       6.139   5.319  16.660  0.00  0.00    +0.000 A 
ATOM      4  C   UNL     1       7.009   6.381  16.993  0.00  0.00    +0.000 A 
ATOM      5  C   UNL     1       7.557   6.510  18.270  0.00  0.00    +0.000 A 
ATOM      6  C   UNL     1       7.237   5.569  19.232  0.00  0.00    +0.000 A 
ATOM      7  C   UNL     1       6.395   4.506  18.933  0.00  0.00    +0.000 A 
ATOM      8  C   UNL     1       5.835   4.358  17.648  0.00  0.00    +0.000 A 
BRANCH   6   9
ATOM      9  O   UNL     1       7.729   5.674  20.494  0.00  0.00    +0.000 OA
ATOM     10  H   UNL     1       8.704   5.680  20.455  0.00  0.00    +0.000 HD
ENDBRANCH   6   9
BRANCH   3  11
ATOM     11  C   UNL     1       5.529   5.421  15.275  0.00  0.00    +0.000 C 
BRANCH  11  12
ATOM     12  C   UNL     1       5.667   4.097  14.525  0.00  0.00    +0.000 C 
BRANCH  12  13
ATOM     13  C   UNL     1       5.375   4.263  13.035  0.00  0.00    +0.000 C 
BRANCH  13  14
ATOM     14  C   UNL     1       6.163   3.248  12.206  0.00  0.00    +0.000 C 
BRANCH  14  16
ATOM     15  C   UNL     1       3.893   3.104  11.122  0.00  0.00    +0.000 C 
ATOM     16  C   UNL     1       5.236   2.420  11.318  0.00  0.00    +0.000 C 
ENDBRANCH  14  16
ENDBRANCH  13  14
ENDBRANCH  12  13
ENDBRANCH  11  12
ENDBRANCH   3  11
ENDBRANCH   2   8
ENDBRANCH   1   2
BRANCH   1  17
ATOM     17  C   UNL     1       2.839   2.283  18.261  0.00  0.00    +0.000 C 
BRANCH  17  18
ATOM     18  C   UNL     1       1.820   2.575  19.377  0.00  0.00    +0.000 C 
BRANCH  18  19
ATOM     19  C   UNL     1       2.441   2.437  20.768  0.00  0.00    +0.000 C 
BRANCH  19  20
ATOM     20  C   UNL     1       2.368   3.721  21.583  0.00  0.00    +0.000 C 
BRANCH  20  21
ATOM     21  C   UNL     1       1.728   4.820  20.757  0.00  0.00    +0.000 C 
ATOM     22  O   UNL     1       0.533   4.773  20.484  0.00  0.00    +0.000 OA
ATOM     23  N   UNL     1       2.621   5.810  20.373  0.00  0.00    +0.000 N 
ATOM     24  H   UNL     1       3.608   5.607  20.479  0.00  0.00    +0.000 HD
BRANCH  23  25
ATOM     25  C   UNL     1       2.294   6.978  19.655  0.00  0.00    +0.000 A 
ATOM     26  C   UNL     1       2.667   7.175  18.322  0.00  0.00    +0.000 A 
ATOM     27  C   UNL     1       2.423   8.394  17.687  0.00  0.00    +0.000 A 
ATOM     28  C   UNL     1       1.789   9.412  18.385  0.00  0.00    +0.000 A 
ATOM     29  C   UNL     1       1.340   9.207  19.684  0.00  0.00    +0.000 A 
ATOM     30  C   UNL     1       1.581   7.983  20.316  0.00  0.00    +0.000 A 
BRANCH  28  31
ATOM     31  O   UNL     1       1.600  10.639  17.824  0.00  0.00    +0.000 OA
ATOM     32  H   UNL     1       2.220  10.730  17.082  0.00  0.00    +0.000 HD
ENDBRANCH  28  31
ENDBRANCH  23  25
ENDBRANCH  20  21
ENDBRANCH  19  20
ENDBRANCH  18  19
ENDBRANCH  17  18
ENDBRANCH   1  17
TORSDOF 15
ENDMDL
MODEL 3
REMARK VINA RESULT:      -7.2      1.339      1.857
REMARK  Name = 
REMARK  16 active torsions:
REMARK  status: ('A' for Active; 'I' for Inactive)
REMARK    1  A    between atoms: C_1  and  C_2
REMARK    2  A    between atoms: C_2  and  C_3
REMARK    3  A    between atoms: C_3  and  C_4
REMARK    4  A    between atoms: C_4  and  C_5
REMARK    5  A    between atoms: C_5  and  C_6
REMARK    6  A    between atoms: C_6  and  C_7
REMARK    7  A    between atoms: C_10  and  O_11
REMARK    8  A    between atoms: C_13  and  O_14
REMARK    9  A    between atoms: O_14  and  C_15
REMARK   10  A    between atoms: C_15  and  C_16
REMARK   11  A    between atoms: C_16  and  C_17
REMARK   12  A    between atoms: C_17  and  C_18
REMARK   13  A    between atoms: C_18  and  C_19
REMARK   14  A    between atoms: C_19  and  C_20
REMARK   15  A    between atoms: N_22  and  C_23
REMARK   16  A    between atoms: C_26  and  O_27
REMARK                            x       y       z     vdW  Elec       q    Type
REMARK                         _______ _______ _______ _____ _____    ______ ____
ROOT
ATOM      1  C   UNL     1       2.634   3.721  17.505  0.00  0.00    +0.000 C 
ENDROOT
BRANCH   1   2
ATOM      2  O   UNL     1       3.583   3.267  16.551  0.00  0.00    +0.000 OA
BRANCH   2   8
ATOM      3  C   UNL     1       5.836   3.985  15.695  0.00  0.00    +0.000 A 
ATOM      4  C   UNL     1       7.066   4.573  16.066  0.00  0.00    +0.000 A 
ATOM      5  C   UNL     1       7.332   4.957  17.381  0.00  0.00    +0.000 A 
ATOM      6  C   UNL     1       6.361   4.753  18.345  0.00  0.00    +0.000 A 
ATOM      7  C   UNL     1       5.146   4.166  18.016  0.00  0.00    +0.000 A 
ATOM      8  C   UNL     1       4.862   3.769  16.694  0.00  0.00    +0.000 A 
BRANCH   6   9
ATOM      9  O   UNL     1       6.569   5.138  19.631  0.00  0.00    +0.000 OA
ATOM     10  H   UNL     1       6.366   6.089  19.715  0.00  0.00    +0.000 HD
ENDBRANCH   6   9
BRANCH   3  11
ATOM     11  C   UNL     1       5.672   3.768  14.204  0.00  0.00    +0.000 C 
BRANCH  11  12
ATOM     12  C   UNL     1       6.841   4.383  13.436  0.00  0.00    +0.000 C 
BRANCH  12  13
ATOM     13  C   UNL     1       6.865   3.917  11.982  0.00  0.00    +0.000 C 
BRANCH  13  14
ATOM     14  C   UNL     1       6.023   2.654  11.797  0.00  0.00    +0.000 C 
BRANCH  14  16
ATOM     15  C   UNL     1       6.126   0.202  11.230  0.00  0.00    +0.000 C 
ATOM     16  C   UNL     1       6.826   1.546  11.119  0.00  0.00    +0.000 C 
ENDBRANCH  14  16
ENDBRANCH  13  14
ENDBRANCH  12  13
ENDBRANCH  11  12
ENDBRANCH   3  11
ENDBRANCH   2   8
ENDBRANCH   1   2
BRANCH   1  17
ATOM     17  C   UNL     1       1.739   2.597  18.032  0.00  0.00    +0.000 C 
BRANCH  17  18
ATOM     18  C   UNL     1       2.108   2.241  19.483  0.00  0.00    +0.000 C 
BRANCH  18  19
ATOM     19  C   UNL     1       1.236   2.988  20.494  0.00  0.00    +0.000 C 
BRANCH  19  20
ATOM     20  C   UNL     1       2.046   3.826  21.474  0.00  0.00    +0.000 C 
BRANCH  20  21
ATOM     21  C   UNL     1       2.559   5.075  20.783  0.00  0.00    +0.000 C 
ATOM     22  O   UNL     1       3.756   5.201  20.544  0.00  0.00    +0.000 OA
ATOM     23  N   UNL     1       1.560   5.991  20.488  0.00  0.00    +0.000 N 
ATOM     24  H   UNL     1       0.663   5.854  20.938  0.00  0.00    +0.000 HD
BRANCH  23  25
ATOM     25  C   UNL     1       1.737   7.206  19.795  0.00  0.00    +0.000 A 
ATOM     26  C   UNL     1       1.281   8.430  20.291  0.00  0.00    +0.000 A 
ATOM     27  C   UNL     1       1.374   9.590  19.519  0.00  0.00    +0.000 A 
ATOM     28  C   UNL     1       1.941   9.523  18.254  0.00  0.00    +0.000 A 
ATOM     29  C   UNL     1       2.472   8.330  17.777  0.00  0.00    +0.000 A 
ATOM     30  C   UNL     1       2.382   7.172  18.555  0.00  0.00    +0.000 A 
BRANCH  28  31
ATOM     31  O   UNL     1       1.983  10.616  17.442  0.00  0.00    +0.000 OA
ATOM     32  H   UNL     1       1.824  10.322  16.530  0.00  0.00    +0.000 HD
ENDBRANCH  28  31
ENDBRANCH  23  25
ENDBRANCH  20  21
ENDBRANCH  19  20
ENDBRANCH  18  19
ENDBRANCH  17  18
ENDBRANCH   1  17
TORSDOF 15
ENDMDL
MODEL 4
REMARK VINA RESULT:      -7.0      1.756      2.767
REMARK  Name = 
REMARK  16 active torsions:
REMARK  status: ('A' for Active; 'I' for Inactive)
REMARK    1  A    between atoms: C_1  and  C_2
REMARK    2  A    between atoms: C_2  and  C_3
REMARK    3  A    between atoms: C_3  and  C_4
REMARK    4  A    between atoms: C_4  and  C_5
REMARK    5  A    between atoms: C_5  and  C_6
REMARK    6  A    between atoms: C_6  and  C_7
REMARK    7  A    between atoms: C_10  and  O_11
REMARK    8  A    between atoms: C_13  and  O_14
REMARK    9  A    between atoms: O_14  and  C_15
REMARK   10  A    between atoms: C_15  and  C_16
REMARK   11  A    between atoms: C_16  and  C_17
REMARK   12  A    between atoms: C_17  and  C_18
REMARK   13  A    between atoms: C_18  and  C_19
REMARK   14  A    between atoms: C_19  and  C_20
REMARK   15  A    between atoms: N_22  and  C_23
REMARK   16  A    between atoms: C_26  and  O_27
REMARK                            x       y       z     vdW  Elec       q    Type
REMARK                         _______ _______ _______ _____ _____    ______ ____
ROOT
ATOM      1  C   UNL     1       3.804   3.322  17.976  0.00  0.00    +0.000 C 
ENDROOT
BRANCH   1   2
ATOM      2  O   UNL     1       4.841   3.462  17.015  0.00  0.00    +0.000 OA
BRANCH   2   8
ATOM      3  C   UNL     1       6.205   5.472  16.367  0.00  0.00    +0.000 A 
ATOM      4  C   UNL     1       7.095   6.455  16.853  0.00  0.00    +0.000 A 
ATOM      5  C   UNL     1       7.517   6.474  18.183  0.00  0.00    +0.000 A 
ATOM      6  C   UNL     1       7.047   5.499  19.046  0.00  0.00    +0.000 A 
ATOM      7  C   UNL     1       6.180   4.511  18.596  0.00  0.00    +0.000 A 
ATOM      8  C   UNL     1       5.747   4.476  17.255  0.00  0.00    +0.000 A 
BRANCH   6   9
ATOM      9  O   UNL     1       7.411   5.497  20.355  0.00  0.00    +0.000 OA
ATOM     10  H   UNL     1       8.326   5.165  20.428  0.00  0.00    +0.000 HD
ENDBRANCH   6   9
BRANCH   3  11
ATOM     11  C   UNL     1       5.747   5.696  14.938  0.00  0.00    +0.000 C 
BRANCH  11  12
ATOM     12  C   UNL     1       6.641   4.935  13.960  0.00  0.00    +0.000 C 
BRANCH  12  13
ATOM     13  C   UNL     1       6.105   3.531  13.685  0.00  0.00    +0.000 C 
BRANCH  13  14
ATOM     14  C   UNL     1       5.956   3.286  12.183  0.00  0.00    +0.000 C 
BRANCH  14  16
ATOM     15  C   UNL     1       3.736   2.864  11.071  0.00  0.00    +0.000 C 
ATOM     16  C   UNL     1       4.673   3.915  11.643  0.00  0.00    +0.000 C 
ENDBRANCH  14  16
ENDBRANCH  13  14
ENDBRANCH  12  13
ENDBRANCH  11  12
ENDBRANCH   3  11
ENDBRANCH   2   8
ENDBRANCH   1   2
BRANCH   1  17
ATOM     17  C   UNL     1       2.601   4.222  17.685  0.00  0.00    +0.000 C 
BRANCH  17  18
ATOM     18  C   UNL     1       2.126   4.930  18.967  0.00  0.00    +0.000 C 
BRANCH  18  19
ATOM     19  C   UNL     1       2.913   6.213  19.236  0.00  0.00    +0.000 C 
BRANCH  19  20
ATOM     20  C   UNL     1       3.043   7.102  18.006  0.00  0.00    +0.000 C 
BRANCH  20  21
ATOM     21  C   UNL     1       2.276   8.393  18.220  0.00  0.00    +0.000 C 
ATOM     22  O   UNL     1       2.267   9.257  17.350  0.00  0.00    +0.000 OA
ATOM     23  N   UNL     1       1.641   8.458  19.451  0.00  0.00    +0.000 N 
ATOM     24  H   UNL     1       1.917   7.776  20.148  0.00  0.00    +0.000 HD
BRANCH  23  25
ATOM     25  C   UNL     1       0.811   9.508  19.893  0.00  0.00    +0.000 A 
ATOM     26  C   UNL     1       0.741   9.902  21.232  0.00  0.00    +0.000 A 
ATOM     27  C   UNL     1      -0.180  10.868  21.643  0.00  0.00    +0.000 A 
ATOM     28  C   UNL     1      -1.021  11.450  20.706  0.00  0.00    +0.000 A 
ATOM     29  C   UNL     1      -0.912  11.128  19.358  0.00  0.00    +0.000 A 
ATOM     30  C   UNL     1       0.016  10.165  18.949  0.00  0.00    +0.000 A 
BRANCH  28  31
ATOM     31  O   UNL     1      -1.982  12.341  21.079  0.00  0.00    +0.000 OA
ATOM     32  H   UNL     1      -1.861  12.538  22.023  0.00  0.00    +0.000 HD
ENDBRANCH  28  31
ENDBRANCH  23  25
ENDBRANCH  20  21
ENDBRANCH  19  20
ENDBRANCH  18  19
ENDBRANCH  17  18
ENDBRANCH   1  17
TORSDOF 15
ENDMDL
MODEL 5
REMARK VINA RESULT:      -6.9      3.054      7.679
REMARK  Name = 
REMARK  16 active torsions:
REMARK  status: ('A' for Active; 'I' for Inactive)
REMARK    1  A    between atoms: C_1  and  C_2
REMARK    2  A    between atoms: C_2  and  C_3
REMARK    3  A    between atoms: C_3  and  C_4
REMARK    4  A    between atoms: C_4  and  C_5
REMARK    5  A    between atoms: C_5  and  C_6
REMARK    6  A    between atoms: C_6  and  C_7
REMARK    7  A    between atoms: C_10  and  O_11
REMARK    8  A    between atoms: C_13  and  O_14
REMARK    9  A    between atoms: O_14  and  C_15
REMARK   10  A    between atoms: C_15  and  C_16
REMARK   11  A    between atoms: C_16  and  C_17
REMARK   12  A    between atoms: C_17  and  C_18
REMARK   13  A    between atoms: C_18  and  C_19
REMARK   14  A    between atoms: C_19  and  C_20
REMARK   15  A    between atoms: N_22  and  C_23
REMARK   16  A    between atoms: C_26  and  O_27
REMARK                            x       y       z     vdW  Elec       q    Type
REMARK                         _______ _______ _______ _____ _____    ______ ____
ROOT
ATOM      1  C   UNL     1       1.833   6.883  20.620  0.00  0.00    +0.000 C 
ENDROOT
BRANCH   1   2
ATOM      2  O   UNL     1       1.645   8.097  19.906  0.00  0.00    +0.000 OA
BRANCH   2   8
ATOM      3  C   UNL     1       0.074  10.059  19.972  0.00  0.00    +0.000 A 
ATOM      4  C   UNL     1      -0.671  10.899  20.829  0.00  0.00    +0.000 A 
ATOM      5  C   UNL     1      -0.639  10.751  22.216  0.00  0.00    +0.000 A 
ATOM      6  C   UNL     1       0.148   9.752  22.762  0.00  0.00    +0.000 A 
ATOM      7  C   UNL     1       0.903   8.918  21.948  0.00  0.00    +0.000 A 
ATOM      8  C   UNL     1       0.884   9.055  20.545  0.00  0.00    +0.000 A 
BRANCH   6   9
ATOM      9  O   UNL     1       0.187   9.557  24.106  0.00  0.00    +0.000 OA
ATOM     10  H   UNL     1       0.822   8.842  24.304  0.00  0.00    +0.000 HD
ENDBRANCH   6   9
BRANCH   3  11
ATOM     11  C   UNL     1      -0.197  10.274  18.495  0.00  0.00    +0.000 C 
BRANCH  11  12
ATOM     12  C   UNL     1      -1.415  11.175  18.295  0.00  0.00    +0.000 C 
BRANCH  12  13
ATOM     13  C   UNL     1      -2.634  10.377  17.835  0.00  0.00    +0.000 C 
BRANCH  13  14
ATOM     14  C   UNL     1      -2.411   9.793  16.440  0.00  0.00    +0.000 C 
BRANCH  14  16
ATOM     15  C   UNL     1      -3.086   9.998  14.021  0.00  0.00    +0.000 C 
ATOM     16  C   UNL     1      -3.487  10.265  15.463  0.00  0.00    +0.000 C 
ENDBRANCH  14  16
ENDBRANCH  13  14
ENDBRANCH  12  13
ENDBRANCH  11  12
ENDBRANCH   3  11
ENDBRANCH   2   8
ENDBRANCH   1   2
BRANCH   1  17
ATOM     17  C   UNL     1       2.356   5.749  19.735  0.00  0.00    +0.000 C 
BRANCH  17  18
ATOM     18  C   UNL     1       1.584   4.446  20.004  0.00  0.00    +0.000 C 
BRANCH  18  19
ATOM     19  C   UNL     1       2.524   3.257  20.213  0.00  0.00    +0.000 C 
BRANCH  19  20
ATOM     20  C   UNL     1       2.488   2.259  19.064  0.00  0.00    +0.000 C 
BRANCH  20  21
ATOM     21  C   UNL     1       3.069   2.892  17.814  0.00  0.00    +0.000 C 
ATOM     22  O   UNL     1       2.357   3.093  16.835  0.00  0.00    +0.000 OA
ATOM     23  N   UNL     1       4.420   3.184  17.921  0.00  0.00    +0.000 N 
ATOM     24  H   UNL     1       4.922   2.765  18.696  0.00  0.00    +0.000 HD
BRANCH  23  25
ATOM     25  C   UNL     1       5.203   3.829  16.942  0.00  0.00    +0.000 A 
ATOM     26  C   UNL     1       5.299   3.366  15.627  0.00  0.00    +0.000 A 
ATOM     27  C   UNL     1       6.175   3.968  14.722  0.00  0.00    +0.000 A 
ATOM     28  C   UNL     1       6.945   5.047  15.134  0.00  0.00    +0.000 A 
ATOM     29  C   UNL     1       6.805   5.571  16.414  0.00  0.00    +0.000 A 
ATOM     30  C   UNL     1       5.922   4.970  17.316  0.00  0.00    +0.000 A 
BRANCH  28  31
ATOM     31  O   UNL     1       7.865   5.614  14.304  0.00  0.00    +0.000 OA
ATOM     32  H   UNL     1       7.638   5.370  13.391  0.00  0.00    +0.000 HD
ENDBRANCH  28  31
ENDBRANCH  23  25
ENDBRANCH  20  21
ENDBRANCH  19  20
ENDBRANCH  18  19
ENDBRANCH  17  18
ENDBRANCH   1  17
TORSDOF 15
ENDMDL
MODEL 6
REMARK VINA RESULT:      -6.9      4.913      8.206
REMARK  Name = 
REMARK  16 active torsions:
REMARK  status: ('A' for Active; 'I' for Inactive)
REMARK    1  A    between atoms: C_1  and  C_2
REMARK    2  A    between atoms: C_2  and  C_3
REMARK    3  A    between atoms: C_3  and  C_4
REMARK    4  A    between atoms: C_4  and  C_5
REMARK    5  A    between atoms: C_5  and  C_6
REMARK    6  A    between atoms: C_6  and  C_7
REMARK    7  A    between atoms: C_10  and  O_11
REMARK    8  A    between atoms: C_13  and  O_14
REMARK    9  A    between atoms: O_14  and  C_15
REMARK   10  A    between atoms: C_15  and  C_16
REMARK   11  A    between atoms: C_16  and  C_17
REMARK   12  A    between atoms: C_17  and  C_18
REMARK   13  A    between atoms: C_18  and  C_19
REMARK   14  A    between atoms: C_19  and  C_20
REMARK   15  A    between atoms: N_22  and  C_23
REMARK   16  A    between atoms: C_26  and  O_27
REMARK                            x       y       z     vdW  Elec       q    Type
REMARK                         _______ _______ _______ _____ _____    ______ ____
ROOT
ATOM      1  C   UNL     1       5.274   5.836  18.107  0.00  0.00    +0.000 C 
ENDROOT
BRANCH   1   2
ATOM      2  O   UNL     1       3.910   5.751  17.720  0.00  0.00    +0.000 OA
BRANCH   2   8
ATOM      3  C   UNL     1       2.407   6.504  19.590  0.00  0.00    +0.000 A 
ATOM      4  C   UNL     1       1.620   7.578  20.062  0.00  0.00    +0.000 A 
ATOM      5  C   UNL     1       1.481   8.763  19.340  0.00  0.00    +0.000 A 
ATOM      6  C   UNL     1       2.135   8.886  18.127  0.00  0.00    +0.000 A 
ATOM      7  C   UNL     1       2.907   7.844  17.628  0.00  0.00    +0.000 A 
ATOM      8  C   UNL     1       3.056   6.639  18.343  0.00  0.00    +0.000 A 
BRANCH   6   9
ATOM      9  O   UNL     1       2.048  10.033  17.405  0.00  0.00    +0.000 OA
ATOM     10  H   UNL     1       1.657   9.831  16.533  0.00  0.00    +0.000 HD
ENDBRANCH   6   9
BRANCH   3  11
ATOM     11  C   UNL     1       2.557   5.359  20.573  0.00  0.00    +0.000 C 
BRANCH  11  12
ATOM     12  C   UNL     1       1.308   4.478  20.570  0.00  0.00    +0.000 C 
BRANCH  12  13
ATOM     13  C   UNL     1       1.602   3.090  20.005  0.00  0.00    +0.000 C 
BRANCH  13  14
ATOM     14  C   UNL     1       1.214   3.006  18.528  0.00  0.00    +0.000 C 
BRANCH  14  16
ATOM     15  C   UNL     1       3.480   1.905  18.536  0.00  0.00    +0.000 C 
ATOM     16  C   UNL     1       2.380   2.507  17.677  0.00  0.00    +0.000 C 
ENDBRANCH  14  16
ENDBRANCH  13  14
ENDBRANCH  12  13
ENDBRANCH  11  12
ENDBRANCH   3  11
ENDBRANCH   2   8
ENDBRANCH   1   2
BRANCH   1  17
ATOM     17  C   UNL     1       6.102   6.719  17.171  0.00  0.00    +0.000 C 
BRANCH  17  18
ATOM     18  C   UNL     1       7.443   7.102  17.824  0.00  0.00    +0.000 C 
BRANCH  18  19
ATOM     19  C   UNL     1       7.805   8.566  17.570  0.00  0.00    +0.000 C 
BRANCH  19  20
ATOM     20  C   UNL     1       8.701   9.155  18.651  0.00  0.00    +0.000 C 
BRANCH  20  21
ATOM     21  C   UNL     1       9.052  10.589  18.304  0.00  0.00    +0.000 C 
ATOM     22  O   UNL     1       8.229  11.310  17.751  0.00  0.00    +0.000 OA
ATOM     23  N   UNL     1      10.344  10.942  18.666  0.00  0.00    +0.000 N 
ATOM     24  H   UNL     1      10.976  10.188  18.909  0.00  0.00    +0.000 HD
BRANCH  23  25
ATOM     25  C   UNL     1      10.917  12.221  18.522  0.00  0.00    +0.000 A 
ATOM     26  C   UNL     1      11.173  13.061  19.609  0.00  0.00    +0.000 A 
ATOM     27  C   UNL     1      11.634  14.364  19.410  0.00  0.00    +0.000 A 
ATOM     28  C   UNL     1      11.854  14.819  18.118  0.00  0.00    +0.000 A 
ATOM     29  C   UNL     1      11.681  13.973  17.029  0.00  0.00    +0.000 A 
ATOM     30  C   UNL     1      11.225  12.667  17.232  0.00  0.00    +0.000 A 
BRANCH  28  31
ATOM     31  O   UNL     1      12.232  16.106  17.879  0.00  0.00    +0.000 OA
ATOM     32  H   UNL     1      11.528  16.693  18.202  0.00  0.00    +0.000 HD
ENDBRANCH  28  31
ENDBRANCH  23  25
ENDBRANCH  20  21
ENDBRANCH  19  20
ENDBRANCH  18  19
ENDBRANCH  17  18
ENDBRANCH   1  17
TORSDOF 15
ENDMDL
MODEL 7
REMARK VINA RESULT:      -6.9      3.284      4.640
REMARK  Name = 
REMARK  16 active torsions:
REMARK  status: ('A' for Active; 'I' for Inactive)
REMARK    1  A    between atoms: C_1  and  C_2
REMARK    2  A    between atoms: C_2  and  C_3
REMARK    3  A    between atoms: C_3  and  C_4
REMARK    4  A    between atoms: C_4  and  C_5
REMARK    5  A    between atoms: C_5  and  C_6
REMARK    6  A    between atoms: C_6  and  C_7
REMARK    7  A    between atoms: C_10  and  O_11
REMARK    8  A    between atoms: C_13  and  O_14
REMARK    9  A    between atoms: O_14  and  C_15
REMARK   10  A    between atoms: C_15  and  C_16
REMARK   11  A    between atoms: C_16  and  C_17
REMARK   12  A    between atoms: C_17  and  C_18
REMARK   13  A    between atoms: C_18  and  C_19
REMARK   14  A    between atoms: C_19  and  C_20
REMARK   15  A    between atoms: N_22  and  C_23
REMARK   16  A    between atoms: C_26  and  O_27
REMARK                            x       y       z     vdW  Elec       q    Type
REMARK                         _______ _______ _______ _____ _____    ______ ____
ROOT
ATOM      1  C   UNL     1       3.047   5.911  18.206  0.00  0.00    +0.000 C 
ENDROOT
BRANCH   1   2
ATOM      2  O   UNL     1       3.970   6.223  17.172  0.00  0.00    +0.000 OA
BRANCH   2   8
ATOM      3  C   UNL     1       5.952   4.969  16.266  0.00  0.00    +0.000 A 
ATOM      4  C   UNL     1       7.236   4.475  16.585  0.00  0.00    +0.000 A 
ATOM      5  C   UNL     1       7.788   4.627  17.858  0.00  0.00    +0.000 A 
ATOM      6  C   UNL     1       7.053   5.280  18.830  0.00  0.00    +0.000 A 
ATOM      7  C   UNL     1       5.782   5.767  18.552  0.00  0.00    +0.000 A 
ATOM      8  C   UNL     1       5.208   5.620  17.274  0.00  0.00    +0.000 A 
BRANCH   6   9
ATOM      9  O   UNL     1       7.564   5.473  20.074  0.00  0.00    +0.000 OA
ATOM     10  H   UNL     1       6.829   5.531  20.714  0.00  0.00    +0.000 HD
ENDBRANCH   6   9
BRANCH   3  11
ATOM     11  C   UNL     1       5.579   4.840  14.802  0.00  0.00    +0.000 C 
BRANCH  11  12
ATOM     12  C   UNL     1       6.793   4.430  13.969  0.00  0.00    +0.000 C 
BRANCH  12  13
ATOM     13  C   UNL     1       6.379   3.879  12.606  0.00  0.00    +0.000 C 
BRANCH  13  14
ATOM     14  C   UNL     1       4.949   3.339  12.645  0.00  0.00    +0.000 C 
BRANCH  14  16
ATOM     15  C   UNL     1       3.641   3.809  10.544  0.00  0.00    +0.000 C 
ATOM     16  C   UNL     1       4.519   2.809  11.278  0.00  0.00    +0.000 C 
ENDBRANCH  14  16
ENDBRANCH  13  14
ENDBRANCH  12  13
ENDBRANCH  11  12
ENDBRANCH   3  11
ENDBRANCH   2   8
ENDBRANCH   1   2
BRANCH   1  17
ATOM     17  C   UNL     1       2.250   7.130  18.677  0.00  0.00    +0.000 C 
BRANCH  17  18
ATOM     18  C   UNL     1       2.630   8.379  17.861  0.00  0.00    +0.000 C 
BRANCH  18  19
ATOM     19  C   UNL     1       1.555   9.464  17.943  0.00  0.00    +0.000 C 
BRANCH  19  20
ATOM     20  C   UNL     1       1.026   9.674  19.355  0.00  0.00    +0.000 C 
BRANCH  20  21
ATOM     21  C   UNL     1      -0.319  10.374  19.303  0.00  0.00    +0.000 C 
ATOM     22  O   UNL     1      -0.689  11.072  20.241  0.00  0.00    +0.000 OA
ATOM     23  N   UNL     1      -1.024  10.124  18.135  0.00  0.00    +0.000 N 
ATOM     24  H   UNL     1      -0.698   9.361  17.554  0.00  0.00    +0.000 HD
BRANCH  23  25
ATOM     25  C   UNL     1      -2.268  10.689  17.789  0.00  0.00    +0.000 A 
ATOM     26  C   UNL     1      -3.114  11.284  18.729  0.00  0.00    +0.000 A 
ATOM     27  C   UNL     1      -4.387  11.726  18.362  0.00  0.00    +0.000 A 
ATOM     28  C   UNL     1      -4.805  11.585  17.046  0.00  0.00    +0.000 A 
ATOM     29  C   UNL     1      -3.948  11.069  16.082  0.00  0.00    +0.000 A 
ATOM     30  C   UNL     1      -2.672  10.632  16.451  0.00  0.00    +0.000 A 
BRANCH  28  31
ATOM     31  O   UNL     1      -6.065  11.936  16.666  0.00  0.00    +0.000 OA
ATOM     32  H   UNL     1      -6.112  11.890  15.696  0.00  0.00    +0.000 HD
ENDBRANCH  28  31
ENDBRANCH  23  25
ENDBRANCH  20  21
ENDBRANCH  19  20
ENDBRANCH  18  19
ENDBRANCH  17  18
ENDBRANCH   1  17
TORSDOF 15
ENDMDL
MODEL 8
REMARK VINA RESULT:      -6.8      4.128      7.240
REMARK  Name = 
REMARK  16 active torsions:
REMARK  status: ('A' for Active; 'I' for Inactive)
REMARK    1  A    between atoms: C_1  and  C_2
REMARK    2  A    between atoms: C_2  and  C_3
REMARK    3  A    between atoms: C_3  and  C_4
REMARK    4  A    between atoms: C_4  and  C_5
REMARK    5  A    between atoms: C_5  and  C_6
REMARK    6  A    between atoms: C_6  and  C_7
REMARK    7  A    between atoms: C_10  and  O_11
REMARK    8  A    between atoms: C_13  and  O_14
REMARK    9  A    between atoms: O_14  and  C_15
REMARK   10  A    between atoms: C_15  and  C_16
REMARK   11  A    between atoms: C_16  and  C_17
REMARK   12  A    between atoms: C_17  and  C_18
REMARK   13  A    between atoms: C_18  and  C_19
REMARK   14  A    between atoms: C_19  and  C_20
REMARK   15  A    between atoms: N_22  and  C_23
REMARK   16  A    between atoms: C_26  and  O_27
REMARK                            x       y       z     vdW  Elec       q    Type
REMARK                         _______ _______ _______ _____ _____    ______ ____
ROOT
ATOM      1  C   UNL     1      -0.124   9.050  21.372  0.00  0.00    +0.000 C 
ENDROOT
BRANCH   1   2
ATOM      2  O   UNL     1       0.809   7.984  21.258  0.00  0.00    +0.000 OA
BRANCH   2   8
ATOM      3  C   UNL     1       2.379   6.934  19.599  0.00  0.00    +0.000 A 
ATOM      4  C   UNL     1       3.012   7.116  18.350  0.00  0.00    +0.000 A 
ATOM      5  C   UNL     1       2.837   8.279  17.598  0.00  0.00    +0.000 A 
ATOM      6  C   UNL     1       2.020   9.278  18.096  0.00  0.00    +0.000 A 
ATOM      7  C   UNL     1       1.392   9.135  19.327  0.00  0.00    +0.000 A 
ATOM      8  C   UNL     1       1.561   7.969  20.100  0.00  0.00    +0.000 A 
BRANCH   6   9
ATOM      9  O   UNL     1       1.801  10.414  17.383  0.00  0.00    +0.000 OA
ATOM     10  H   UNL     1       1.898  10.215  16.432  0.00  0.00    +0.000 HD
ENDBRANCH   6   9
BRANCH   3  11
ATOM     11  C   UNL     1       2.569   5.555  20.201  0.00  0.00    +0.000 C 
BRANCH  11  12
ATOM     12  C   UNL     1       1.584   4.558  19.591  0.00  0.00    +0.000 C 
BRANCH  12  13
ATOM     13  C   UNL     1       1.118   3.528  20.618  0.00  0.00    +0.000 C 
BRANCH  13  14
ATOM     14  C   UNL     1       1.644   2.135  20.274  0.00  0.00    +0.000 C 
BRANCH  14  16
ATOM     15  C   UNL     1       3.454   1.630  18.596  0.00  0.00    +0.000 C 
ATOM     16  C   UNL     1       2.000   2.027  18.792  0.00  0.00    +0.000 C 
ENDBRANCH  14  16
ENDBRANCH  13  14
ENDBRANCH  12  13
ENDBRANCH  11  12
ENDBRANCH   3  11
ENDBRANCH   2   8
ENDBRANCH   1   2
BRANCH   1  17
ATOM     17  C   UNL     1      -0.530   9.329  22.821  0.00  0.00    +0.000 C 
BRANCH  17  18
ATOM     18  C   UNL     1      -0.960  10.797  22.995  0.00  0.00    +0.000 C 
BRANCH  18  19
ATOM     19  C   UNL     1      -0.383  11.695  21.898  0.00  0.00    +0.000 C 
BRANCH  19  20
ATOM     20  C   UNL     1      -1.427  12.603  21.262  0.00  0.00    +0.000 C 
BRANCH  20  21
ATOM     21  C   UNL     1      -1.500  12.336  19.770  0.00  0.00    +0.000 C 
ATOM     22  O   UNL     1      -0.660  12.813  19.015  0.00  0.00    +0.000 OA
ATOM     23  N   UNL     1      -2.578  11.543  19.406  0.00  0.00    +0.000 N 
ATOM     24  H   UNL     1      -3.306  11.409  20.098  0.00  0.00    +0.000 HD
BRANCH  23  25
ATOM     25  C   UNL     1      -2.859  11.086  18.102  0.00  0.00    +0.000 A 
ATOM     26  C   UNL     1      -2.024  10.198  17.418  0.00  0.00    +0.000 A 
ATOM     27  C   UNL     1      -2.280   9.863  16.087  0.00  0.00    +0.000 A 
ATOM     28  C   UNL     1      -3.385  10.407  15.447  0.00  0.00    +0.000 A 
ATOM     29  C   UNL     1      -4.269  11.228  16.136  0.00  0.00    +0.000 A 
ATOM     30  C   UNL     1      -4.014  11.558  17.470  0.00  0.00    +0.000 A 
BRANCH  28  31
ATOM     31  O   UNL     1      -3.626  10.163  14.129  0.00  0.00    +0.000 OA
ATOM     32  H   UNL     1      -4.560   9.913  14.034  0.00  0.00    +0.000 HD
ENDBRANCH  28  31
ENDBRANCH  23  25
ENDBRANCH  20  21
ENDBRANCH  19  20
ENDBRANCH  18  19
ENDBRANCH  17  18
ENDBRANCH   1  17
TORSDOF 15
ENDMDL
MODEL 9
REMARK VINA RESULT:      -6.7      3.312      5.720
REMARK  Name = 
REMARK  16 active torsions:
REMARK  status: ('A' for Active; 'I' for Inactive)
REMARK    1  A    between atoms: C_1  and  C_2
REMARK    2  A    between atoms: C_2  and  C_3
REMARK    3  A    between atoms: C_3  and  C_4
REMARK    4  A    between atoms: C_4  and  C_5
REMARK    5  A    between atoms: C_5  and  C_6
REMARK    6  A    between atoms: C_6  and  C_7
REMARK    7  A    between atoms: C_10  and  O_11
REMARK    8  A    between atoms: C_13  and  O_14
REMARK    9  A    between atoms: O_14  and  C_15
REMARK   10  A    between atoms: C_15  and  C_16
REMARK   11  A    between atoms: C_16  and  C_17
REMARK   12  A    between atoms: C_17  and  C_18
REMARK   13  A    between atoms: C_18  and  C_19
REMARK   14  A    between atoms: C_19  and  C_20
REMARK   15  A    between atoms: N_22  and  C_23
REMARK   16  A    between atoms: C_26  and  O_27
REMARK                            x       y       z     vdW  Elec       q    Type
REMARK                         _______ _______ _______ _____ _____    ______ ____
ROOT
ATOM      1  C   UNL     1       3.733   6.596  19.319  0.00  0.00    +0.000 C 
ENDROOT
BRANCH   1   2
ATOM      2  O   UNL     1       4.388   5.336  19.348  0.00  0.00    +0.000 OA
BRANCH   2   8
ATOM      3  C   UNL     1       4.850   3.880  17.351  0.00  0.00    +0.000 A 
ATOM      4  C   UNL     1       5.633   3.757  16.182  0.00  0.00    +0.000 A 
ATOM      5  C   UNL     1       6.597   4.705  15.838  0.00  0.00    +0.000 A 
ATOM      6  C   UNL     1       6.788   5.794  16.670  0.00  0.00    +0.000 A 
ATOM      7  C   UNL     1       6.043   5.938  17.833  0.00  0.00    +0.000 A 
ATOM      8  C   UNL     1       5.067   4.988  18.197  0.00  0.00    +0.000 A 
BRANCH   6   9
ATOM      9  O   UNL     1       7.697   6.754  16.358  0.00  0.00    +0.000 OA
ATOM     10  H   UNL     1       8.211   6.463  15.579  0.00  0.00    +0.000 HD
ENDBRANCH   6   9
BRANCH   3  11
ATOM     11  C   UNL     1       3.759   2.835  17.485  0.00  0.00    +0.000 C 
BRANCH  11  12
ATOM     12  C   UNL     1       2.392   3.437  17.157  0.00  0.00    +0.000 C 
BRANCH  12  13
ATOM     13  C   UNL     1       1.358   3.097  18.228  0.00  0.00    +0.000 C 
BRANCH  13  14
ATOM     14  C   UNL     1       1.995   2.316  19.377  0.00  0.00    +0.000 C 
BRANCH  14  16
ATOM     15  C   UNL     1       1.070   4.322  20.589  0.00  0.00    +0.000 C 
ATOM     16  C   UNL     1       2.031   3.146  20.659  0.00  0.00    +0.000 C 
ENDBRANCH  14  16
ENDBRANCH  13  14
ENDBRANCH  12  13
ENDBRANCH  11  12
ENDBRANCH   3  11
ENDBRANCH   2   8
ENDBRANCH   1   2
BRANCH   1  17
ATOM     17  C   UNL     1       2.948   6.826  18.025  0.00  0.00    +0.000 C 
BRANCH  17  18
ATOM     18  C   UNL     1       1.727   7.727  18.280  0.00  0.00    +0.000 C 
BRANCH  18  19
ATOM     19  C   UNL     1       1.931   9.138  17.725  0.00  0.00    +0.000 C 
BRANCH  19  20
ATOM     20  C   UNL     1       1.523  10.229  18.705  0.00  0.00    +0.000 C 
BRANCH  20  21
ATOM     21  C   UNL     1       0.012  10.283  18.816  0.00  0.00    +0.000 C 
ATOM     22  O   UNL     1      -0.553   9.799  19.792  0.00  0.00    +0.000 OA
ATOM     23  N   UNL     1      -0.598  10.902  17.736  0.00  0.00    +0.000 N 
ATOM     24  H   UNL     1      -0.031  11.052  16.910  0.00  0.00    +0.000 HD
BRANCH  23  25
ATOM     25  C   UNL     1      -1.980  11.147  17.601  0.00  0.00    +0.000 A 
ATOM     26  C   UNL     1      -2.739  11.760  18.601  0.00  0.00    +0.000 A 
ATOM     27  C   UNL     1      -4.125  11.878  18.473  0.00  0.00    +0.000 A 
ATOM     28  C   UNL     1      -4.747  11.392  17.331  0.00  0.00    +0.000 A 
ATOM     29  C   UNL     1      -4.000  10.851  16.292  0.00  0.00    +0.000 A 
ATOM     30  C   UNL     1      -2.612  10.740  16.421  0.00  0.00    +0.000 A 
BRANCH  28  31
ATOM     31  O   UNL     1      -6.103  11.421  17.202  0.00  0.00    +0.000 OA
ATOM     32  H   UNL     1      -6.454  12.063  17.842  0.00  0.00    +0.000 HD
ENDBRANCH  28  31
ENDBRANCH  23  25
ENDBRANCH  20  21
ENDBRANCH  19  20
ENDBRANCH  18  19
ENDBRANCH  17  18
ENDBRANCH   1  17
TORSDOF 15
ENDMDL
