MODEL 1
REMARK VINA RESULT:      -7.2      0.000      0.000
REMARK  Name = 
REMARK  5 active torsions:
REMARK  status: ('A' for Active; 'I' for Inactive)
REMARK    1  A    between atoms: C_1  and  O_2
REMARK    2  A    between atoms: O_2  and  C_3
REMARK    3  A    between atoms: C_6  and  O_7
REMARK    4  A    between atoms: O_7  and  C_8
REMARK    5  A    between atoms: C_11  and  N_12
REMARK                            x       y       z     vdW  Elec       q    Type
REMARK                         _______ _______ _______ _____ _____    ______ ____
ROOT
ATOM      1  C   UNL     1       6.663   5.754  16.597  0.00  0.00    +0.000 A 
ATOM      2  C   UNL     1       7.033   5.128  17.792  0.00  0.00    +0.000 A 
ATOM      3  C   UNL     1       6.117   5.014  18.839  0.00  0.00    +0.000 A 
ATOM      4  C   UNL     1       4.850   5.599  18.752  0.00  0.00    +0.000 A 
ATOM      5  C   UNL     1       4.503   6.246  17.557  0.00  0.00    +0.000 A 
ATOM      6  C   UNL     1       5.402   6.330  16.488  0.00  0.00    +0.000 A 
ENDROOT
BRANCH   4   7
ATOM      7  N   UNL     1       3.983   5.513  19.861  0.00  0.00    +0.000 N 
ATOM      8  C   UNL     1       3.154   4.468  20.124  0.00  0.00    +0.000 C 
ATOM      9  N   UNL     1       3.082   3.305  19.546  0.00  0.00    +0.000 NA
ATOM     10  C   UNL     1       1.962   2.615  20.226  0.00  0.00    +0.000 C 
ATOM     11  C   UNL     1       1.685   3.422  21.493  0.00  0.00    +0.000 C 
ATOM     12  N   UNL     1       2.283   4.701  21.153  0.00  0.00    +0.000 N 
ATOM     13  H   UNL     1       3.607   6.407  20.144  0.00  0.00    +0.000 HD
ATOM     14  H   UNL     1       2.673   5.207  21.936  0.00  0.00    +0.000 HD
ENDBRANCH   4   7
BRANCH   1  15
ATOM     15  O   UNL     1       7.491   5.853  15.498  0.00  0.00    +0.000 OA
BRANCH  15  19
ATOM     16  C   UNL     1       6.706   3.571  12.102  0.00  0.00    +0.000 A 
ATOM     17  C   UNL     1       6.051   3.269  13.294  0.00  0.00    +0.000 A 
ATOM     18  C   UNL     1       6.238   4.065  14.419  0.00  0.00    +0.000 A 
ATOM     19  C   UNL     1       7.161   5.114  14.380  0.00  0.00    +0.000 A 
ATOM     20  C   UNL     1       7.793   5.444  13.186  0.00  0.00    +0.000 A 
ATOM     21  C   UNL     1       7.567   4.671  12.040  0.00  0.00    +0.000 A 
BRANCH  16  23
ATOM     22  C   UNL     1       5.790   1.504  11.448  0.00  0.00    +0.000 C 
ATOM     23  O   UNL     1       6.480   2.691  11.081  0.00  0.00    +0.000 OA
ENDBRANCH  16  23
ENDBRANCH  15  19
ENDBRANCH   1  15
TORSDOF 4
ENDMDL
MODEL 2
REMARK VINA RESULT:      -7.2      0.265      1.081
REMARK  Name = 
REMARK  5 active torsions:
REMARK  status: ('A' for Active; 'I' for Inactive)
REMARK    1  A    between atoms: C_1  and  O_2
REMARK    2  A    between atoms: O_2  and  C_3
REMARK    3  A    between atoms: C_6  and  O_7
REMARK    4  A    between atoms: O_7  and  C_8
REMARK    5  A    between atoms: C_11  and  N_12
REMARK                            x       y       z     vdW  Elec       q    Type
REMARK                         _______ _______ _______ _____ _____    ______ ____
ROOT
ATOM      1  C   UNL     1       6.524   5.782  16.521  0.00  0.00    +0.000 A 
ATOM      2  C   UNL     1       6.913   5.079  17.665  0.00  0.00    +0.000 A 
ATOM      3  C   UNL     1       6.041   4.959  18.749  0.00  0.00    +0.000 A 
ATOM      4  C   UNL     1       4.804   5.613  18.749  0.00  0.00    +0.000 A 
ATOM      5  C   UNL     1       4.440   6.336  17.605  0.00  0.00    +0.000 A 
ATOM      6  C   UNL     1       5.293   6.428  16.499  0.00  0.00    +0.000 A 
ENDROOT
BRANCH   4   7
ATOM      7  N   UNL     1       3.985   5.517  19.893  0.00  0.00    +0.000 N 
ATOM      8  C   UNL     1       3.145   4.483  20.166  0.00  0.00    +0.000 C 
ATOM      9  N   UNL     1       3.022   3.337  19.563  0.00  0.00    +0.000 NA
ATOM     10  C   UNL     1       1.917   2.653  20.273  0.00  0.00    +0.000 C 
ATOM     11  C   UNL     1       1.713   3.433  21.571  0.00  0.00    +0.000 C 
ATOM     12  N   UNL     1       2.324   4.707  21.237  0.00  0.00    +0.000 N 
ATOM     13  H   UNL     1       3.641   6.411  20.214  0.00  0.00    +0.000 HD
ATOM     14  H   UNL     1       2.759   5.184  22.015  0.00  0.00    +0.000 HD
ENDBRANCH   4   7
BRANCH   1  15
ATOM     15  O   UNL     1       7.307   5.893  15.390  0.00  0.00    +0.000 OA
BRANCH  15  19
ATOM     16  C   UNL     1       6.300   3.361  12.239  0.00  0.00    +0.000 A 
ATOM     17  C   UNL     1       7.301   4.313  12.056  0.00  0.00    +0.000 A 
ATOM     18  C   UNL     1       7.708   5.116  13.117  0.00  0.00    +0.000 A 
ATOM     19  C   UNL     1       7.043   5.033  14.344  0.00  0.00    +0.000 A 
ATOM     20  C   UNL     1       6.067   4.062  14.545  0.00  0.00    +0.000 A 
ATOM     21  C   UNL     1       5.691   3.221  13.490  0.00  0.00    +0.000 A 
BRANCH  16  23
ATOM     22  C   UNL     1       6.102   1.254  11.208  0.00  0.00    +0.000 C 
ATOM     23  O   UNL     1       5.955   2.665  11.114  0.00  0.00    +0.000 OA
ENDBRANCH  16  23
ENDBRANCH  15  19
ENDBRANCH   1  15
TORSDOF 4
ENDMDL
MODEL 3
REMARK VINA RESULT:      -7.1      6.681      9.117
REMARK  Name = 
REMARK  5 active torsions:
REMARK  status: ('A' for Active; 'I' for Inactive)
REMARK    1  A    between atoms: C_1  and  O_2
REMARK    2  A    between atoms: O_2  and  C_3
REMARK    3  A    between atoms: C_6  and  O_7
REMARK    4  A    between atoms: O_7  and  C_8
REMARK    5  A    between atoms: C_11  and  N_12
REMARK                            x       y       z     vdW  Elec       q    Type
REMARK                         _______ _______ _______ _____ _____    ______ ____
ROOT
ATOM      1  C   UNL     1       0.973   9.708  18.960  0.00  0.00    +0.000 A 
ATOM      2  C   UNL     1       0.854   9.120  20.223  0.00  0.00    +0.000 A 
ATOM      3  C   UNL     1       1.564   7.958  20.530  0.00  0.00    +0.000 A 
ATOM      4  C   UNL     1       2.333   7.310  19.557  0.00  0.00    +0.000 A 
ATOM      5  C   UNL     1       2.422   7.897  18.287  0.00  0.00    +0.000 A 
ATOM      6  C   UNL     1       1.744   9.083  17.985  0.00  0.00    +0.000 A 
ENDROOT
BRANCH   4   7
ATOM      7  N   UNL     1       2.980   6.103  19.895  0.00  0.00    +0.000 N 
ATOM      8  C   UNL     1       2.594   4.868  19.477  0.00  0.00    +0.000 C 
ATOM      9  N   UNL     1       1.698   4.536  18.596  0.00  0.00    +0.000 NA
ATOM     10  C   UNL     1       1.688   3.056  18.606  0.00  0.00    +0.000 C 
ATOM     11  C   UNL     1       2.959   2.638  19.342  0.00  0.00    +0.000 C 
ATOM     12  N   UNL     1       3.268   3.845  20.087  0.00  0.00    +0.000 N 
ATOM     13  H   UNL     1       3.375   6.109  20.825  0.00  0.00    +0.000 HD
ATOM     14  H   UNL     1       4.254   4.011  20.234  0.00  0.00    +0.000 HD
ENDBRANCH   4   7
BRANCH   1  15
ATOM     15  O   UNL     1       0.350  10.886  18.603  0.00  0.00    +0.000 OA
BRANCH  15  19
ATOM     16  C   UNL     1      -3.736  10.963  17.797  0.00  0.00    +0.000 A 
ATOM     17  C   UNL     1      -2.918  10.084  17.091  0.00  0.00    +0.000 A 
ATOM     18  C   UNL     1      -1.564   9.985  17.398  0.00  0.00    +0.000 A 
ATOM     19  C   UNL     1      -1.006  10.840  18.351  0.00  0.00    +0.000 A 
ATOM     20  C   UNL     1      -1.821  11.696  19.085  0.00  0.00    +0.000 A 
ATOM     21  C   UNL     1      -3.193  11.760  18.810  0.00  0.00    +0.000 A 
BRANCH  16  23
ATOM     22  C   UNL     1      -6.009  10.949  18.410  0.00  0.00    +0.000 C 
ATOM     23  O   UNL     1      -5.036  11.005  17.375  0.00  0.00    +0.000 OA
ENDBRANCH  16  23
ENDBRANCH  15  19
ENDBRANCH   1  15
TORSDOF 4
ENDMDL
MODEL 4
REMARK VINA RESULT:      -7.1      0.351      1.100
REMARK  Name = 
REMARK  5 active torsions:
REMARK  status: ('A' for Active; 'I' for Inactive)
REMARK    1  A    between atoms: C_1  and  O_2
REMARK    2  A    between atoms: O_2  and  C_3
REMARK    3  A    between atoms: C_6  and  O_7
REMARK    4  A    between atoms: O_7  and  C_8
REMARK    5  A    between atoms: C_11  and  N_12
REMARK                            x       y       z     vdW  Elec       q    Type
REMARK                         _______ _______ _______ _____ _____    ______ ____
ROOT
ATOM      1  C   UNL     1       6.325   5.854  16.732  0.00  0.00    +0.000 A 
ATOM      2  C   UNL     1       5.080   6.492  16.773  0.00  0.00    +0.000 A 
ATOM      3  C   UNL     1       4.250   6.345  17.887  0.00  0.00    +0.000 A 
ATOM      4  C   UNL     1       4.603   5.490  18.936  0.00  0.00    +0.000 A 
ATOM      5  C   UNL     1       5.842   4.837  18.868  0.00  0.00    +0.000 A 
ATOM      6  C   UNL     1       6.696   5.011  17.773  0.00  0.00    +0.000 A 
ENDROOT
BRANCH   4   7
ATOM      7  N   UNL     1       3.703   5.324  20.009  0.00  0.00    +0.000 N 
ATOM      8  C   UNL     1       2.851   4.274  20.157  0.00  0.00    +0.000 C 
ATOM      9  N   UNL     1       2.779   3.166  19.479  0.00  0.00    +0.000 NA
ATOM     10  C   UNL     1       1.629   2.440  20.064  0.00  0.00    +0.000 C 
ATOM     11  C   UNL     1       1.327   3.140  21.388  0.00  0.00    +0.000 C 
ATOM     12  N   UNL     1       1.953   4.432  21.177  0.00  0.00    +0.000 N 
ATOM     13  H   UNL     1       3.332   6.196  20.358  0.00  0.00    +0.000 HD
ATOM     14  H   UNL     1       2.328   4.862  22.012  0.00  0.00    +0.000 HD
ENDBRANCH   4   7
BRANCH   1  15
ATOM     15  O   UNL     1       7.222   5.999  15.695  0.00  0.00    +0.000 OA
BRANCH  15  19
ATOM     16  C   UNL     1       6.803   3.665  12.270  0.00  0.00    +0.000 A 
ATOM     17  C   UNL     1       6.011   3.391  13.383  0.00  0.00    +0.000 A 
ATOM     18  C   UNL     1       6.078   4.206  14.509  0.00  0.00    +0.000 A 
ATOM     19  C   UNL     1       7.013   5.243  14.559  0.00  0.00    +0.000 A 
ATOM     20  C   UNL     1       7.783   5.545  13.440  0.00  0.00    +0.000 A 
ATOM     21  C   UNL     1       7.680   4.754  12.289  0.00  0.00    +0.000 A 
BRANCH  16  23
ATOM     22  C   UNL     1       5.578   1.882  11.342  0.00  0.00    +0.000 C 
ATOM     23  O   UNL     1       6.684   2.769  11.243  0.00  0.00    +0.000 OA
ENDBRANCH  16  23
ENDBRANCH  15  19
ENDBRANCH   1  15
TORSDOF 4
ENDMDL
MODEL 5
REMARK VINA RESULT:      -7.1      6.694      9.144
REMARK  Name = 
REMARK  5 active torsions:
REMARK  status: ('A' for Active; 'I' for Inactive)
REMARK    1  A    between atoms: C_1  and  O_2
REMARK    2  A    between atoms: O_2  and  C_3
REMARK    3  A    between atoms: C_6  and  O_7
REMARK    4  A    between atoms: O_7  and  C_8
REMARK    5  A    between atoms: C_11  and  N_12
REMARK                            x       y       z     vdW  Elec       q    Type
REMARK                         _______ _______ _______ _____ _____    ______ ____
ROOT
ATOM      1  C   UNL     1       1.016   9.783  18.823  0.00  0.00    +0.000 A 
ATOM      2  C   UNL     1       1.789   9.086  17.889  0.00  0.00    +0.000 A 
ATOM      3  C   UNL     1       2.381   7.869  18.233  0.00  0.00    +0.000 A 
ATOM      4  C   UNL     1       2.290   7.370  19.536  0.00  0.00    +0.000 A 
ATOM      5  C   UNL     1       1.533   8.094  20.468  0.00  0.00    +0.000 A 
ATOM      6  C   UNL     1       0.905   9.295  20.120  0.00  0.00    +0.000 A 
ENDROOT
BRANCH   4   7
ATOM      7  N   UNL     1       2.959   6.170  19.852  0.00  0.00    +0.000 N 
ATOM      8  C   UNL     1       2.597   4.935  19.412  0.00  0.00    +0.000 C 
ATOM      9  N   UNL     1       1.707   4.603  18.523  0.00  0.00    +0.000 NA
ATOM     10  C   UNL     1       1.725   3.123  18.506  0.00  0.00    +0.000 C 
ATOM     11  C   UNL     1       3.003   2.715  19.235  0.00  0.00    +0.000 C 
ATOM     12  N   UNL     1       3.289   3.913  20.003  0.00  0.00    +0.000 N 
ATOM     13  H   UNL     1       3.354   6.166  20.783  0.00  0.00    +0.000 HD
ATOM     14  H   UNL     1       4.272   4.095  20.154  0.00  0.00    +0.000 HD
ENDBRANCH   4   7
BRANCH   1  15
ATOM     15  O   UNL     1       0.353  10.959  18.540  0.00  0.00    +0.000 OA
BRANCH  15  19
ATOM     16  C   UNL     1      -3.756  10.963  17.856  0.00  0.00    +0.000 A 
ATOM     17  C   UNL     1      -2.952  10.052  17.174  0.00  0.00    +0.000 A 
ATOM     18  C   UNL     1      -1.589   9.980  17.444  0.00  0.00    +0.000 A 
ATOM     19  C   UNL     1      -1.009  10.890  18.332  0.00  0.00    +0.000 A 
ATOM     20  C   UNL     1      -1.810  11.779  19.043  0.00  0.00    +0.000 A 
ATOM     21  C   UNL     1      -3.190  11.818  18.806  0.00  0.00    +0.000 A 
BRANCH  16  23
ATOM     22  C   UNL     1      -6.005  10.754  18.518  0.00  0.00    +0.000 C 
ATOM     23  O   UNL     1      -5.069  10.972  17.472  0.00  0.00    +0.000 OA
ENDBRANCH  16  23
ENDBRANCH  15  19
ENDBRANCH   1  15
TORSDOF 4
ENDMDL
MODEL 6
REMARK VINA RESULT:      -7.1      0.331      1.518
REMARK  Name = 
REMARK  5 active torsions:
REMARK  status: ('A' for Active; 'I' for Inactive)
REMARK    1  A    between atoms: C_1  and  O_2
REMARK    2  A    between atoms: O_2  and  C_3
REMARK    3  A    between atoms: C_6  and  O_7
REMARK    4  A    between atoms: O_7  and  C_8
REMARK    5  A    between atoms: C_11  and  N_12
REMARK                            x       y       z     vdW  Elec       q    Type
REMARK                         _______ _______ _______ _____ _____    ______ ____
ROOT
ATOM      1  C   UNL     1       6.358   5.752  16.576  0.00  0.00    +0.000 A 
ATOM      2  C   UNL     1       5.101   6.363  16.625  0.00  0.00    +0.000 A 
ATOM      3  C   UNL     1       4.312   6.261  17.772  0.00  0.00    +0.000 A 
ATOM      4  C   UNL     1       4.719   5.475  18.855  0.00  0.00    +0.000 A 
ATOM      5  C   UNL     1       5.970   4.847  18.781  0.00  0.00    +0.000 A 
ATOM      6  C   UNL     1       6.783   4.977  17.649  0.00  0.00    +0.000 A 
ENDROOT
BRANCH   4   7
ATOM      7  N   UNL     1       3.859   5.350  19.965  0.00  0.00    +0.000 N 
ATOM      8  C   UNL     1       3.007   4.312  20.179  0.00  0.00    +0.000 C 
ATOM      9  N   UNL     1       2.903   3.184  19.541  0.00  0.00    +0.000 NA
ATOM     10  C   UNL     1       1.771   2.485  20.193  0.00  0.00    +0.000 C 
ATOM     11  C   UNL     1       1.523   3.230  21.503  0.00  0.00    +0.000 C 
ATOM     12  N   UNL     1       2.149   4.510  21.227  0.00  0.00    +0.000 N 
ATOM     13  H   UNL     1       3.506   6.237  20.299  0.00  0.00    +0.000 HD
ATOM     14  H   UNL     1       2.557   4.965  22.033  0.00  0.00    +0.000 HD
ENDBRANCH   4   7
BRANCH   1  15
ATOM     15  O   UNL     1       7.217   5.857  15.503  0.00  0.00    +0.000 OA
BRANCH  15  19
ATOM     16  C   UNL     1       6.358   3.388  12.259  0.00  0.00    +0.000 A 
ATOM     17  C   UNL     1       7.364   4.346  12.140  0.00  0.00    +0.000 A 
ATOM     18  C   UNL     1       7.721   5.128  13.234  0.00  0.00    +0.000 A 
ATOM     19  C   UNL     1       7.002   5.018  14.428  0.00  0.00    +0.000 A 
ATOM     20  C   UNL     1       6.021   4.041  14.566  0.00  0.00    +0.000 A 
ATOM     21  C   UNL     1       5.695   3.221  13.479  0.00  0.00    +0.000 A 
BRANCH  16  23
ATOM     22  C   UNL     1       6.409   1.336  11.107  0.00  0.00    +0.000 C 
ATOM     23  O   UNL     1       6.065   2.715  11.105  0.00  0.00    +0.000 OA
ENDBRANCH  16  23
ENDBRANCH  15  19
ENDBRANCH   1  15
TORSDOF 4
ENDMDL
MODEL 7
REMARK VINA RESULT:      -7.0      5.820      8.004
REMARK  Name = 
REMARK  5 active torsions:
REMARK  status: ('A' for Active; 'I' for Inactive)
REMARK    1  A    between atoms: C_1  and  O_2
REMARK    2  A    between atoms: O_2  and  C_3
REMARK    3  A    between atoms: C_6  and  O_7
REMARK    4  A    between atoms: O_7  and  C_8
REMARK    5  A    between atoms: C_11  and  N_12
REMARK                            x       y       z     vdW  Elec       q    Type
REMARK                         _______ _______ _______ _____ _____    ______ ____
ROOT
ATOM      1  C   UNL     1       1.731   8.167  19.928  0.00  0.00    +0.000 A 
ATOM      2  C   UNL     1       1.868   8.459  18.566  0.00  0.00    +0.000 A 
ATOM      3  C   UNL     1       1.077   9.446  17.974  0.00  0.00    +0.000 A 
ATOM      4  C   UNL     1       0.075  10.095  18.704  0.00  0.00    +0.000 A 
ATOM      5  C   UNL     1      -0.067   9.773  20.061  0.00  0.00    +0.000 A 
ATOM      6  C   UNL     1       0.748   8.813  20.670  0.00  0.00    +0.000 A 
ENDROOT
BRANCH   4   7
ATOM      7  N   UNL     1      -0.741  11.038  18.046  0.00  0.00    +0.000 N 
ATOM      8  C   UNL     1      -1.720  10.734  17.152  0.00  0.00    +0.000 C 
ATOM      9  N   UNL     1      -2.215   9.575  16.832  0.00  0.00    +0.000 NA
ATOM     10  C   UNL     1      -3.208   9.868  15.774  0.00  0.00    +0.000 C 
ATOM     11  C   UNL     1      -3.443  11.376  15.832  0.00  0.00    +0.000 C 
ATOM     12  N   UNL     1      -2.244  11.826  16.515  0.00  0.00    +0.000 N 
ATOM     13  H   UNL     1      -0.264  11.906  17.842  0.00  0.00    +0.000 HD
ATOM     14  H   UNL     1      -2.370  12.641  17.100  0.00  0.00    +0.000 HD
ENDBRANCH   4   7
BRANCH   1  15
ATOM     15  O   UNL     1       2.515   7.249  20.594  0.00  0.00    +0.000 OA
BRANCH  15  19
ATOM     16  C   UNL     1       2.224   3.346  19.167  0.00  0.00    +0.000 A 
ATOM     17  C   UNL     1       3.347   4.108  18.847  0.00  0.00    +0.000 A 
ATOM     18  C   UNL     1       3.501   5.385  19.377  0.00  0.00    +0.000 A 
ATOM     19  C   UNL     1       2.482   5.942  20.154  0.00  0.00    +0.000 A 
ATOM     20  C   UNL     1       1.375   5.176  20.506  0.00  0.00    +0.000 A 
ATOM     21  C   UNL     1       1.243   3.872  20.012  0.00  0.00    +0.000 A 
BRANCH  16  23
ATOM     22  C   UNL     1       3.412   1.590  18.145  0.00  0.00    +0.000 C 
ATOM     23  O   UNL     1       2.161   2.127  18.550  0.00  0.00    +0.000 OA
ENDBRANCH  16  23
ENDBRANCH  15  19
ENDBRANCH   1  15
TORSDOF 4
ENDMDL
MODEL 8
REMARK VINA RESULT:      -7.0      6.581      9.012
REMARK  Name = 
REMARK  5 active torsions:
REMARK  status: ('A' for Active; 'I' for Inactive)
REMARK    1  A    between atoms: C_1  and  O_2
REMARK    2  A    between atoms: O_2  and  C_3
REMARK    3  A    between atoms: C_6  and  O_7
REMARK    4  A    between atoms: O_7  and  C_8
REMARK    5  A    between atoms: C_11  and  N_12
REMARK                            x       y       z     vdW  Elec       q    Type
REMARK                         _______ _______ _______ _____ _____    ______ ____
ROOT
ATOM      1  C   UNL     1       1.153   9.650  18.877  0.00  0.00    +0.000 A 
ATOM      2  C   UNL     1       1.940   8.887  18.009  0.00  0.00    +0.000 A 
ATOM      3  C   UNL     1       2.432   7.644  18.412  0.00  0.00    +0.000 A 
ATOM      4  C   UNL     1       2.226   7.180  19.716  0.00  0.00    +0.000 A 
ATOM      5  C   UNL     1       1.458   7.969  20.584  0.00  0.00    +0.000 A 
ATOM      6  C   UNL     1       0.929   9.198  20.173  0.00  0.00    +0.000 A 
ENDROOT
BRANCH   4   7
ATOM      7  N   UNL     1       2.798   5.949  20.097  0.00  0.00    +0.000 N 
ATOM      8  C   UNL     1       2.354   4.727  19.700  0.00  0.00    +0.000 C 
ATOM      9  N   UNL     1       1.459   4.423  18.806  0.00  0.00    +0.000 NA
ATOM     10  C   UNL     1       1.367   2.946  18.850  0.00  0.00    +0.000 C 
ATOM     11  C   UNL     1       2.597   2.477  19.625  0.00  0.00    +0.000 C 
ATOM     12  N   UNL     1       2.956   3.683  20.348  0.00  0.00    +0.000 N 
ATOM     13  H   UNL     1       3.172   5.956  21.036  0.00  0.00    +0.000 HD
ATOM     14  H   UNL     1       3.947   3.799  20.514  0.00  0.00    +0.000 HD
ENDBRANCH   4   7
BRANCH   1  15
ATOM     15  O   UNL     1       0.584  10.858  18.530  0.00  0.00    +0.000 OA
BRANCH  15  19
ATOM     16  C   UNL     1      -3.537  10.723  17.933  0.00  0.00    +0.000 A 
ATOM     17  C   UNL     1      -2.999  11.706  18.763  0.00  0.00    +0.000 A 
ATOM     18  C   UNL     1      -1.621  11.818  18.914  0.00  0.00    +0.000 A 
ATOM     19  C   UNL     1      -0.778  10.882  18.309  0.00  0.00    +0.000 A 
ATOM     20  C   UNL     1      -1.304   9.920  17.452  0.00  0.00    +0.000 A 
ATOM     21  C   UNL     1      -2.689   9.837  17.262  0.00  0.00    +0.000 A 
BRANCH  16  23
ATOM     22  C   UNL     1      -5.539  11.922  17.624  0.00  0.00    +0.000 C 
ATOM     23  O   UNL     1      -4.903  10.681  17.900  0.00  0.00    +0.000 OA
ENDBRANCH  16  23
ENDBRANCH  15  19
ENDBRANCH   1  15
TORSDOF 4
ENDMDL
MODEL 9
REMARK VINA RESULT:      -7.0      4.562      6.140
REMARK  Name = 
REMARK  5 active torsions:
REMARK  status: ('A' for Active; 'I' for Inactive)
REMARK    1  A    between atoms: C_1  and  O_2
REMARK    2  A    between atoms: O_2  and  C_3
REMARK    3  A    between atoms: C_6  and  O_7
REMARK    4  A    between atoms: O_7  and  C_8
REMARK    5  A    between atoms: C_11  and  N_12
REMARK                            x       y       z     vdW  Elec       q    Type
REMARK                         _______ _______ _______ _____ _____    ______ ____
ROOT
ATOM      1  C   UNL     1       2.682   6.491  19.317  0.00  0.00    +0.000 A 
ATOM      2  C   UNL     1       2.702   7.261  18.149  0.00  0.00    +0.000 A 
ATOM      3  C   UNL     1       2.117   8.528  18.132  0.00  0.00    +0.000 A 
ATOM      4  C   UNL     1       1.424   9.015  19.246  0.00  0.00    +0.000 A 
ATOM      5  C   UNL     1       1.392   8.220  20.401  0.00  0.00    +0.000 A 
ATOM      6  C   UNL     1       2.009   6.965  20.438  0.00  0.00    +0.000 A 
ENDROOT
BRANCH   4   7
ATOM      7  N   UNL     1       0.795  10.273  19.159  0.00  0.00    +0.000 N 
ATOM      8  C   UNL     1      -0.312  10.542  18.415  0.00  0.00    +0.000 C 
ATOM      9  N   UNL     1      -1.098   9.725  17.778  0.00  0.00    +0.000 NA
ATOM     10  C   UNL     1      -2.093  10.598  17.115  0.00  0.00    +0.000 C 
ATOM     11  C   UNL     1      -1.955  11.965  17.782  0.00  0.00    +0.000 C 
ATOM     12  N   UNL     1      -0.622  11.873  18.349  0.00  0.00    +0.000 N 
ATOM     13  H   UNL     1       1.442  11.048  19.213  0.00  0.00    +0.000 HD
ATOM     14  H   UNL     1      -0.492  12.385  19.211  0.00  0.00    +0.000 HD
ENDBRANCH   4   7
BRANCH   1  15
ATOM     15  O   UNL     1       3.289   5.257  19.429  0.00  0.00    +0.000 OA
BRANCH  15  19
ATOM     16  C   UNL     1       6.410   4.575  16.755  0.00  0.00    +0.000 A 
ATOM     17  C   UNL     1       6.684   5.164  17.988  0.00  0.00    +0.000 A 
ATOM     18  C   UNL     1       5.671   5.330  18.927  0.00  0.00    +0.000 A 
ATOM     19  C   UNL     1       4.356   4.992  18.595  0.00  0.00    +0.000 A 
ATOM     20  C   UNL     1       4.080   4.372  17.380  0.00  0.00    +0.000 A 
ATOM     21  C   UNL     1       5.108   4.161  16.454  0.00  0.00    +0.000 A 
BRANCH  16  23
ATOM     22  C   UNL     1       7.174   4.791  14.539  0.00  0.00    +0.000 C 
ATOM     23  O   UNL     1       7.474   4.508  15.899  0.00  0.00    +0.000 OA
ENDBRANCH  16  23
ENDBRANCH  15  19
ENDBRANCH   1  15
TORSDOF 4
ENDMDL
