MODEL 1
REMARK VINA RESULT:      -7.6      0.000      0.000
REMARK  Name = 
REMARK  4 active torsions:
REMARK  status: ('A' for Active; 'I' for Inactive)
REMARK    1  A    between atoms: C_1  and  C_2
REMARK    2  A    between atoms: C_4  and  S_5
REMARK    3  A    between atoms: S_5  and  C_8
REMARK    4  A    between atoms: C_8  and  C_9
REMARK                            x       y       z     vdW  Elec       q    Type
REMARK                         _______ _______ _______ _____ _____    ______ ____
ROOT
ATOM      1  C   UNL     1       3.697   1.441  18.222  0.00  0.00    +0.000 C 
ATOM      2  C   UNL     1       3.731   2.930  18.385  0.00  0.00    +0.000 A 
ATOM      3  N   UNL     1       4.621   3.630  17.647  0.00  0.00    +0.000 NA
ATOM      4  C   UNL     1       4.625   4.977  17.828  0.00  0.00    +0.000 A 
ATOM      5  N   UNL     1       3.864   5.702  18.677  0.00  0.00    +0.000 NA
ATOM      6  C   UNL     1       2.988   4.950  19.355  0.00  0.00    +0.000 A 
ATOM      7  C   UNL     1       2.880   3.572  19.253  0.00  0.00    +0.000 A 
ATOM      8  C   UNL     1       1.849   3.031  20.182  0.00  0.00    +0.000 C 
ATOM      9  C   UNL     1       1.049   4.298  20.519  0.00  0.00    +0.000 C 
ATOM     10  C   UNL     1       2.011   5.485  20.365  0.00  0.00    +0.000 C 
ENDROOT
BRANCH   4  11
ATOM     11  S   UNL     1       5.728   5.925  16.766  0.00  0.00    +0.000 S 
ATOM     12  O   UNL     1       4.976   6.345  15.592  0.00  0.00    +0.000 OA
ATOM     13  O   UNL     1       6.397   6.911  17.604  0.00  0.00    +0.000 OA
BRANCH  11  14
ATOM     14  C   UNL     1       6.914   4.692  16.245  0.00  0.00    +0.000 C 
BRANCH  14  15
ATOM     15  C   UNL     1       6.870   4.529  14.741  0.00  0.00    +0.000 A 
ATOM     16  C   UNL     1       7.716   5.280  13.911  0.00  0.00    +0.000 A 
ATOM     17  C   UNL     1       7.682   5.118  12.522  0.00  0.00    +0.000 A 
ATOM     18  C   UNL     1       6.801   4.206  11.946  0.00  0.00    +0.000 A 
ATOM     19  C   UNL     1       5.948   3.458  12.757  0.00  0.00    +0.000 A 
ATOM     20  C   UNL     1       5.983   3.618  14.145  0.00  0.00    +0.000 A 
ENDBRANCH  14  15
ENDBRANCH  11  14
ENDBRANCH   4  11
TORSDOF 3
ENDMDL
MODEL 2
REMARK VINA RESULT:      -7.5      0.783      2.361
REMARK  Name = 
REMARK  4 active torsions:
REMARK  status: ('A' for Active; 'I' for Inactive)
REMARK    1  A    between atoms: C_1  and  C_2
REMARK    2  A    between atoms: C_4  and  S_5
REMARK    3  A    between atoms: S_5  and  C_8
REMARK    4  A    between atoms: C_8  and  C_9
REMARK                            x       y       z     vdW  Elec       q    Type
REMARK                         _______ _______ _______ _____ _____    ______ ____
ROOT
ATOM      1  C   UNL     1       2.160   7.266  19.932  0.00  0.00    +0.000 C 
ATOM      2  C   UNL     1       2.958   6.255  19.165  0.00  0.00    +0.000 A 
ATOM      3  N   UNL     1       3.829   6.705  18.235  0.00  0.00    +0.000 NA
ATOM      4  C   UNL     1       4.528   5.756  17.557  0.00  0.00    +0.000 A 
ATOM      5  N   UNL     1       4.440   4.414  17.682  0.00  0.00    +0.000 NA
ATOM      6  C   UNL     1       3.581   4.039  18.638  0.00  0.00    +0.000 A 
ATOM      7  C   UNL     1       2.818   4.908  19.402  0.00  0.00    +0.000 A 
ATOM      8  C   UNL     1       1.919   4.174  20.337  0.00  0.00    +0.000 C 
ATOM      9  C   UNL     1       2.569   2.782  20.351  0.00  0.00    +0.000 C 
ATOM     10  C   UNL     1       3.284   2.611  19.003  0.00  0.00    +0.000 C 
ENDROOT
BRANCH   4  11
ATOM     11  S   UNL     1       5.771   6.352  16.398  0.00  0.00    +0.000 S 
ATOM     12  O   UNL     1       5.096   6.724  15.162  0.00  0.00    +0.000 OA
ATOM     13  O   UNL     1       6.597   7.320  17.106  0.00  0.00    +0.000 OA
BRANCH  11  14
ATOM     14  C   UNL     1       6.732   4.880  16.075  0.00  0.00    +0.000 C 
BRANCH  14  15
ATOM     15  C   UNL     1       6.806   4.620  14.586  0.00  0.00    +0.000 A 
ATOM     16  C   UNL     1       5.970   3.670  13.979  0.00  0.00    +0.000 A 
ATOM     17  C   UNL     1       6.032   3.442  12.600  0.00  0.00    +0.000 A 
ATOM     18  C   UNL     1       6.931   4.157  11.813  0.00  0.00    +0.000 A 
ATOM     19  C   UNL     1       7.774   5.099  12.403  0.00  0.00    +0.000 A 
ATOM     20  C   UNL     1       7.711   5.328  13.779  0.00  0.00    +0.000 A 
ENDBRANCH  14  15
ENDBRANCH  11  14
ENDBRANCH   4  11
TORSDOF 3
ENDMDL
MODEL 3
REMARK VINA RESULT:      -7.5      2.729      6.268
REMARK  Name = 
REMARK  4 active torsions:
REMARK  status: ('A' for Active; 'I' for Inactive)
REMARK    1  A    between atoms: C_1  and  C_2
REMARK    2  A    between atoms: C_4  and  S_5
REMARK    3  A    between atoms: S_5  and  C_8
REMARK    4  A    between atoms: C_8  and  C_9
REMARK                            x       y       z     vdW  Elec       q    Type
REMARK                         _______ _______ _______ _____ _____    ______ ____
ROOT
ATOM      1  C   UNL     1       7.282   5.594  19.267  0.00  0.00    +0.000 C 
ATOM      2  C   UNL     1       6.302   4.786  18.472  0.00  0.00    +0.000 A 
ATOM      3  N   UNL     1       5.384   4.057  19.145  0.00  0.00    +0.000 NA
ATOM      4  C   UNL     1       4.519   3.333  18.387  0.00  0.00    +0.000 A 
ATOM      5  N   UNL     1       4.479   3.233  17.041  0.00  0.00    +0.000 NA
ATOM      6  C   UNL     1       5.395   4.001  16.438  0.00  0.00    +0.000 A 
ATOM      7  C   UNL     1       6.325   4.788  17.097  0.00  0.00    +0.000 A 
ATOM      8  C   UNL     1       7.241   5.474  16.142  0.00  0.00    +0.000 C 
ATOM      9  C   UNL     1       6.454   5.351  14.828  0.00  0.00    +0.000 C 
ATOM     10  C   UNL     1       5.580   4.095  14.949  0.00  0.00    +0.000 C 
ENDROOT
BRANCH   4  11
ATOM     11  S   UNL     1       3.223   2.450  19.274  0.00  0.00    +0.000 S 
ATOM     12  O   UNL     1       3.135   1.104  18.725  0.00  0.00    +0.000 OA
ATOM     13  O   UNL     1       3.458   2.649  20.698  0.00  0.00    +0.000 OA
BRANCH  11  14
ATOM     14  C   UNL     1       1.750   3.339  18.789  0.00  0.00    +0.000 C 
BRANCH  14  15
ATOM     15  C   UNL     1       1.901   4.811  19.106  0.00  0.00    +0.000 A 
ATOM     16  C   UNL     1       2.292   5.725  18.115  0.00  0.00    +0.000 A 
ATOM     17  C   UNL     1       2.418   7.086  18.409  0.00  0.00    +0.000 A 
ATOM     18  C   UNL     1       2.159   7.551  19.696  0.00  0.00    +0.000 A 
ATOM     19  C   UNL     1       1.777   6.655  20.693  0.00  0.00    +0.000 A 
ATOM     20  C   UNL     1       1.650   5.294  20.400  0.00  0.00    +0.000 A 
ENDBRANCH  14  15
ENDBRANCH  11  14
ENDBRANCH   4  11
TORSDOF 3
ENDMDL
MODEL 4
REMARK VINA RESULT:      -7.4      2.760      6.292
REMARK  Name = 
REMARK  4 active torsions:
REMARK  status: ('A' for Active; 'I' for Inactive)
REMARK    1  A    between atoms: C_1  and  C_2
REMARK    2  A    between atoms: C_4  and  S_5
REMARK    3  A    between atoms: S_5  and  C_8
REMARK    4  A    between atoms: C_8  and  C_9
REMARK                            x       y       z     vdW  Elec       q    Type
REMARK                         _______ _______ _______ _____ _____    ______ ____
ROOT
ATOM      1  C   UNL     1       7.263   5.569  19.308  0.00  0.00    +0.000 C 
ATOM      2  C   UNL     1       6.265   4.779  18.516  0.00  0.00    +0.000 A 
ATOM      3  N   UNL     1       5.354   4.046  19.193  0.00  0.00    +0.000 NA
ATOM      4  C   UNL     1       4.472   3.338  18.438  0.00  0.00    +0.000 A 
ATOM      5  N   UNL     1       4.410   3.258  17.091  0.00  0.00    +0.000 NA
ATOM      6  C   UNL     1       5.323   4.029  16.486  0.00  0.00    +0.000 A 
ATOM      7  C   UNL     1       6.268   4.801  17.142  0.00  0.00    +0.000 A 
ATOM      8  C   UNL     1       7.173   5.495  16.182  0.00  0.00    +0.000 C 
ATOM      9  C   UNL     1       6.366   5.397  14.879  0.00  0.00    +0.000 C 
ATOM     10  C   UNL     1       5.485   4.145  14.996  0.00  0.00    +0.000 C 
ENDROOT
BRANCH   4  11
ATOM     11  S   UNL     1       3.185   2.450  19.332  0.00  0.00    +0.000 S 
ATOM     12  O   UNL     1       3.098   1.104  18.782  0.00  0.00    +0.000 OA
ATOM     13  O   UNL     1       3.426   2.650  20.755  0.00  0.00    +0.000 OA
BRANCH  11  14
ATOM     14  C   UNL     1       1.706   3.333  18.854  0.00  0.00    +0.000 C 
BRANCH  14  15
ATOM     15  C   UNL     1       1.867   4.812  19.136  0.00  0.00    +0.000 A 
ATOM     16  C   UNL     1       1.631   5.329  20.419  0.00  0.00    +0.000 A 
ATOM     17  C   UNL     1       1.793   6.694  20.679  0.00  0.00    +0.000 A 
ATOM     18  C   UNL     1       2.189   7.558  19.661  0.00  0.00    +0.000 A 
ATOM     19  C   UNL     1       2.419   7.060  18.379  0.00  0.00    +0.000 A 
ATOM     20  C   UNL     1       2.259   5.696  18.119  0.00  0.00    +0.000 A 
ENDBRANCH  14  15
ENDBRANCH  11  14
ENDBRANCH   4  11
TORSDOF 3
ENDMDL
MODEL 5
REMARK VINA RESULT:      -7.4      0.513      1.194
REMARK  Name = 
REMARK  4 active torsions:
REMARK  status: ('A' for Active; 'I' for Inactive)
REMARK    1  A    between atoms: C_1  and  C_2
REMARK    2  A    between atoms: C_4  and  S_5
REMARK    3  A    between atoms: S_5  and  C_8
REMARK    4  A    between atoms: C_8  and  C_9
REMARK                            x       y       z     vdW  Elec       q    Type
REMARK                         _______ _______ _______ _____ _____    ______ ____
ROOT
ATOM      1  C   UNL     1       3.941   1.904  18.886  0.00  0.00    +0.000 C 
ATOM      2  C   UNL     1       3.950   3.397  18.757  0.00  0.00    +0.000 A 
ATOM      3  N   UNL     1       4.840   3.957  17.908  0.00  0.00    +0.000 NA
ATOM      4  C   UNL     1       4.821   5.313  17.825  0.00  0.00    +0.000 A 
ATOM      5  N   UNL     1       4.037   6.175  18.509  0.00  0.00    +0.000 NA
ATOM      6  C   UNL     1       3.162   5.553  19.309  0.00  0.00    +0.000 A 
ATOM      7  C   UNL     1       3.077   4.180  19.474  0.00  0.00    +0.000 A 
ATOM      8  C   UNL     1       2.040   3.810  20.479  0.00  0.00    +0.000 C 
ATOM      9  C   UNL     1       1.216   5.104  20.554  0.00  0.00    +0.000 C 
ATOM     10  C   UNL     1       2.162   6.256  20.184  0.00  0.00    +0.000 C 
ENDROOT
BRANCH   4  11
ATOM     11  S   UNL     1       5.926   6.058  16.612  0.00  0.00    +0.000 S 
ATOM     12  O   UNL     1       5.131   6.453  15.458  0.00  0.00    +0.000 OA
ATOM     13  O   UNL     1       6.744   7.038  17.314  0.00  0.00    +0.000 OA
BRANCH  11  14
ATOM     14  C   UNL     1       6.949   4.675  16.125  0.00  0.00    +0.000 C 
BRANCH  14  15
ATOM     15  C   UNL     1       6.950   4.532  14.618  0.00  0.00    +0.000 A 
ATOM     16  C   UNL     1       6.114   3.601  13.983  0.00  0.00    +0.000 A 
ATOM     17  C   UNL     1       6.108   3.480  12.590  0.00  0.00    +0.000 A 
ATOM     18  C   UNL     1       6.939   4.284  11.815  0.00  0.00    +0.000 A 
ATOM     19  C   UNL     1       7.782   5.209  12.431  0.00  0.00    +0.000 A 
ATOM     20  C   UNL     1       7.787   5.331  13.823  0.00  0.00    +0.000 A 
ENDBRANCH  14  15
ENDBRANCH  11  14
ENDBRANCH   4  11
TORSDOF 3
ENDMDL
MODEL 6
REMARK VINA RESULT:      -7.3      1.465      2.010
REMARK  Name = 
REMARK  4 active torsions:
REMARK  status: ('A' for Active; 'I' for Inactive)
REMARK    1  A    between atoms: C_1  and  C_2
REMARK    2  A    between atoms: C_4  and  S_5
REMARK    3  A    between atoms: S_5  and  C_8
REMARK    4  A    between atoms: C_8  and  C_9
REMARK                            x       y       z     vdW  Elec       q    Type
REMARK                         _______ _______ _______ _____ _____    ______ ____
ROOT
ATOM      1  C   UNL     1       4.809   1.965  20.586  0.00  0.00    +0.000 C 
ATOM      2  C   UNL     1       4.511   2.956  19.502  0.00  0.00    +0.000 A 
ATOM      3  N   UNL     1       5.548   3.618  18.943  0.00  0.00    +0.000 NA
ATOM      4  C   UNL     1       5.235   4.512  17.968  0.00  0.00    +0.000 A 
ATOM      5  N   UNL     1       4.009   4.840  17.507  0.00  0.00    +0.000 NA
ATOM      6  C   UNL     1       3.032   4.128  18.084  0.00  0.00    +0.000 A 
ATOM      7  C   UNL     1       3.223   3.184  19.080  0.00  0.00    +0.000 A 
ATOM      8  C   UNL     1       1.930   2.613  19.551  0.00  0.00    +0.000 C 
ATOM      9  C   UNL     1       0.989   3.005  18.402  0.00  0.00    +0.000 C 
ATOM     10  C   UNL     1       1.571   4.275  17.764  0.00  0.00    +0.000 C 
ENDROOT
BRANCH   4  11
ATOM     11  S   UNL     1       6.620   5.313  17.141  0.00  0.00    +0.000 S 
ATOM     12  O   UNL     1       7.068   6.419  17.975  0.00  0.00    +0.000 OA
ATOM     13  O   UNL     1       7.552   4.267  16.743  0.00  0.00    +0.000 OA
BRANCH  11  14
ATOM     14  C   UNL     1       5.849   6.003  15.683  0.00  0.00    +0.000 C 
BRANCH  14  15
ATOM     15  C   UNL     1       6.212   5.183  14.463  0.00  0.00    +0.000 A 
ATOM     16  C   UNL     1       5.386   4.135  14.029  0.00  0.00    +0.000 A 
ATOM     17  C   UNL     1       5.718   3.388  12.894  0.00  0.00    +0.000 A 
ATOM     18  C   UNL     1       6.879   3.675  12.182  0.00  0.00    +0.000 A 
ATOM     19  C   UNL     1       7.715   4.708  12.606  0.00  0.00    +0.000 A 
ATOM     20  C   UNL     1       7.383   5.456  13.738  0.00  0.00    +0.000 A 
ENDBRANCH  14  15
ENDBRANCH  11  14
ENDBRANCH   4  11
TORSDOF 3
ENDMDL
MODEL 7
REMARK VINA RESULT:      -7.2      1.458      1.690
REMARK  Name = 
REMARK  4 active torsions:
REMARK  status: ('A' for Active; 'I' for Inactive)
REMARK    1  A    between atoms: C_1  and  C_2
REMARK    2  A    between atoms: C_4  and  S_5
REMARK    3  A    between atoms: S_5  and  C_8
REMARK    4  A    between atoms: C_8  and  C_9
REMARK                            x       y       z     vdW  Elec       q    Type
REMARK                         _______ _______ _______ _____ _____    ______ ____
ROOT
ATOM      1  C   UNL     1       4.875   1.757  20.547  0.00  0.00    +0.000 C 
ATOM      2  C   UNL     1       4.514   2.776  19.510  0.00  0.00    +0.000 A 
ATOM      3  N   UNL     1       5.514   3.479  18.934  0.00  0.00    +0.000 NA
ATOM      4  C   UNL     1       5.145   4.398  18.003  0.00  0.00    +0.000 A 
ATOM      5  N   UNL     1       3.895   4.714  17.599  0.00  0.00    +0.000 NA
ATOM      6  C   UNL     1       2.957   3.962  18.189  0.00  0.00    +0.000 A 
ATOM      7  C   UNL     1       3.206   2.990  19.144  0.00  0.00    +0.000 A 
ATOM      8  C   UNL     1       1.944   2.375  19.645  0.00  0.00    +0.000 C 
ATOM      9  C   UNL     1       0.951   2.783  18.547  0.00  0.00    +0.000 C 
ATOM     10  C   UNL     1       1.481   4.087  17.931  0.00  0.00    +0.000 C 
ENDROOT
BRANCH   4  11
ATOM     11  S   UNL     1       6.480   5.256  17.150  0.00  0.00    +0.000 S 
ATOM     12  O   UNL     1       6.890   6.386  17.972  0.00  0.00    +0.000 OA
ATOM     13  O   UNL     1       7.453   4.251  16.743  0.00  0.00    +0.000 OA
BRANCH  11  14
ATOM     14  C   UNL     1       5.657   5.902  15.701  0.00  0.00    +0.000 C 
BRANCH  14  15
ATOM     15  C   UNL     1       6.120   5.161  14.464  0.00  0.00    +0.000 A 
ATOM     16  C   UNL     1       7.344   5.474  13.854  0.00  0.00    +0.000 A 
ATOM     17  C   UNL     1       7.775   4.779  12.719  0.00  0.00    +0.000 A 
ATOM     18  C   UNL     1       6.986   3.766  12.178  0.00  0.00    +0.000 A 
ATOM     19  C   UNL     1       5.763   3.449  12.769  0.00  0.00    +0.000 A 
ATOM     20  C   UNL     1       5.334   4.142  13.904  0.00  0.00    +0.000 A 
ENDBRANCH  14  15
ENDBRANCH  11  14
ENDBRANCH   4  11
TORSDOF 3
ENDMDL
MODEL 8
REMARK VINA RESULT:      -7.2      2.846      6.106
REMARK  Name = 
REMARK  4 active torsions:
REMARK  status: ('A' for Active; 'I' for Inactive)
REMARK    1  A    between atoms: C_1  and  C_2
REMARK    2  A    between atoms: C_4  and  S_5
REMARK    3  A    between atoms: S_5  and  C_8
REMARK    4  A    between atoms: C_8  and  C_9
REMARK                            x       y       z     vdW  Elec       q    Type
REMARK                         _______ _______ _______ _____ _____    ______ ____
ROOT
ATOM      1  C   UNL     1       5.543   4.522  15.094  0.00  0.00    +0.000 C 
ATOM      2  C   UNL     1       5.454   4.417  16.586  0.00  0.00    +0.000 A 
ATOM      3  N   UNL     1       4.519   3.593  17.110  0.00  0.00    +0.000 NA
ATOM      4  C   UNL     1       4.466   3.531  18.467  0.00  0.00    +0.000 A 
ATOM      5  N   UNL     1       5.218   4.212  19.359  0.00  0.00    +0.000 NA
ATOM      6  C   UNL     1       6.140   4.986  18.772  0.00  0.00    +0.000 A 
ATOM      7  C   UNL     1       6.300   5.128  17.403  0.00  0.00    +0.000 A 
ATOM      8  C   UNL     1       7.374   6.107  17.074  0.00  0.00    +0.000 C 
ATOM      9  C   UNL     1       8.131   6.186  18.408  0.00  0.00    +0.000 C 
ATOM     10  C   UNL     1       7.120   5.852  19.513  0.00  0.00    +0.000 C 
ENDROOT
BRANCH   4  11
ATOM     11  S   UNL     1       3.300   2.351  19.170  0.00  0.00    +0.000 S 
ATOM     12  O   UNL     1       3.325   1.147  18.351  0.00  0.00    +0.000 OA
ATOM     13  O   UNL     1       3.568   2.275  20.600  0.00  0.00    +0.000 OA
BRANCH  11  14
ATOM     14  C   UNL     1       1.728   3.161  18.906  0.00  0.00    +0.000 C 
BRANCH  14  15
ATOM     15  C   UNL     1       1.858   4.648  19.159  0.00  0.00    +0.000 A 
ATOM     16  C   UNL     1       1.731   5.171  20.455  0.00  0.00    +0.000 A 
ATOM     17  C   UNL     1       1.865   6.544  20.687  0.00  0.00    +0.000 A 
ATOM     18  C   UNL     1       2.123   7.410  19.628  0.00  0.00    +0.000 A 
ATOM     19  C   UNL     1       2.244   6.906  18.333  0.00  0.00    +0.000 A 
ATOM     20  C   UNL     1       2.113   5.535  18.101  0.00  0.00    +0.000 A 
ENDBRANCH  14  15
ENDBRANCH  11  14
ENDBRANCH   4  11
TORSDOF 3
ENDMDL
MODEL 9
REMARK VINA RESULT:      -7.2      1.693      2.611
REMARK  Name = 
REMARK  4 active torsions:
REMARK  status: ('A' for Active; 'I' for Inactive)
REMARK    1  A    between atoms: C_1  and  C_2
REMARK    2  A    between atoms: C_4  and  S_5
REMARK    3  A    between atoms: S_5  and  C_8
REMARK    4  A    between atoms: C_8  and  C_9
REMARK                            x       y       z     vdW  Elec       q    Type
REMARK                         _______ _______ _______ _____ _____    ______ ____
ROOT
ATOM      1  C   UNL     1       2.504   6.916  19.473  0.00  0.00    +0.000 C 
ATOM      2  C   UNL     1       3.493   5.790  19.439  0.00  0.00    +0.000 A 
ATOM      3  N   UNL     1       4.706   6.026  18.893  0.00  0.00    +0.000 NA
ATOM      4  C   UNL     1       5.571   4.978  18.875  0.00  0.00    +0.000 A 
ATOM      5  N   UNL     1       5.358   3.718  19.315  0.00  0.00    +0.000 NA
ATOM      6  C   UNL     1       4.148   3.563  19.868  0.00  0.00    +0.000 A 
ATOM      7  C   UNL     1       3.183   4.554  19.954  0.00  0.00    +0.000 A 
ATOM      8  C   UNL     1       1.926   4.045  20.571  0.00  0.00    +0.000 C 
ATOM      9  C   UNL     1       2.420   2.758  21.249  0.00  0.00    +0.000 C 
ATOM     10  C   UNL     1       3.637   2.273  20.447  0.00  0.00    +0.000 C 
ENDROOT
BRANCH   4  11
ATOM     11  S   UNL     1       7.227   5.316  18.252  0.00  0.00    +0.000 S 
ATOM     12  O   UNL     1       7.921   6.137  19.233  0.00  0.00    +0.000 OA
ATOM     13  O   UNL     1       7.797   4.046  17.820  0.00  0.00    +0.000 OA
BRANCH  11  14
ATOM     14  C   UNL     1       6.898   6.333  16.819  0.00  0.00    +0.000 C 
BRANCH  14  15
ATOM     15  C   UNL     1       6.585   5.462  15.621  0.00  0.00    +0.000 A 
ATOM     16  C   UNL     1       7.510   5.315  14.577  0.00  0.00    +0.000 A 
ATOM     17  C   UNL     1       7.222   4.499  13.478  0.00  0.00    +0.000 A 
ATOM     18  C   UNL     1       6.006   3.824  13.407  0.00  0.00    +0.000 A 
ATOM     19  C   UNL     1       5.073   3.967  14.434  0.00  0.00    +0.000 A 
ATOM     20  C   UNL     1       5.361   4.780  15.533  0.00  0.00    +0.000 A 
ENDBRANCH  14  15
ENDBRANCH  11  14
ENDBRANCH   4  11
TORSDOF 3
ENDMDL
