MODEL 1
REMARK VINA RESULT:      -7.4      0.000      0.000
REMARK  Name = 
REMARK  4 active torsions:
REMARK  status: ('A' for Active; 'I' for Inactive)
REMARK    1  A    between atoms: C_1  and  C_2
REMARK    2  A    between atoms: C_5  and  S_6
REMARK    3  A    between atoms: S_6  and  O_9
REMARK    4  A    between atoms: O_9  and  C_10
REMARK                            x       y       z     vdW  Elec       q    Type
REMARK                         _______ _______ _______ _____ _____    ______ ____
ROOT
ATOM      1  S   UNL     1       5.394   4.848  19.112  0.00  0.00    +0.000 S 
ATOM      2  O   UNL     1       6.651   5.102  19.794  0.00  0.00    +0.000 OA
ATOM      3  O   UNL     1       4.322   5.827  19.150  0.00  0.00    +0.000 OA
ENDROOT
BRANCH   1   8
ATOM      4  C   UNL     1       6.815   4.345  13.224  0.00  0.00    +0.000 C 
ATOM      5  C   UNL     1       6.475   4.429  14.684  0.00  0.00    +0.000 A 
ATOM      6  C   UNL     1       7.462   4.721  15.633  0.00  0.00    +0.000 A 
ATOM      7  C   UNL     1       7.136   4.812  16.987  0.00  0.00    +0.000 A 
ATOM      8  C   UNL     1       5.816   4.604  17.396  0.00  0.00    +0.000 A 
ATOM      9  C   UNL     1       4.819   4.314  16.461  0.00  0.00    +0.000 A 
ATOM     10  C   UNL     1       5.153   4.224  15.108  0.00  0.00    +0.000 A 
ENDBRANCH   1   8
BRANCH   1  11
ATOM     11  O   UNL     1       4.805   3.397  19.575  0.00  0.00    +0.000 OA
BRANCH  11  12
ATOM     12  C   UNL     1       3.453   3.193  19.721  0.00  0.00    +0.000 A 
ATOM     13  C   UNL     1       2.788   2.641  18.623  0.00  0.00    +0.000 A 
ATOM     14  C   UNL     1       1.415   2.384  18.688  0.00  0.00    +0.000 A 
ATOM     15  C   UNL     1       0.706   2.665  19.855  0.00  0.00    +0.000 A 
ATOM     16  C   UNL     1       1.371   3.194  20.958  0.00  0.00    +0.000 A 
ATOM     17  C   UNL     1       2.743   3.455  20.893  0.00  0.00    +0.000 A 
ENDBRANCH  11  12
ENDBRANCH   1  11
TORSDOF 3
ENDMDL
MODEL 2
REMARK VINA RESULT:      -7.3      0.180      1.186
REMARK  Name = 
REMARK  4 active torsions:
REMARK  status: ('A' for Active; 'I' for Inactive)
REMARK    1  A    between atoms: C_1  and  C_2
REMARK    2  A    between atoms: C_5  and  S_6
REMARK    3  A    between atoms: S_6  and  O_9
REMARK    4  A    between atoms: O_9  and  C_10
REMARK                            x       y       z     vdW  Elec       q    Type
REMARK                         _______ _______ _______ _____ _____    ______ ____
ROOT
ATOM      1  S   UNL     1       5.329   4.814  19.094  0.00  0.00    +0.000 S 
ATOM      2  O   UNL     1       6.596   4.952  19.790  0.00  0.00    +0.000 OA
ATOM      3  O   UNL     1       4.295   5.824  19.235  0.00  0.00    +0.000 OA
ENDROOT
BRANCH   1   8
ATOM      4  C   UNL     1       6.704   4.176  13.209  0.00  0.00    +0.000 C 
ATOM      5  C   UNL     1       6.358   4.375  14.656  0.00  0.00    +0.000 A 
ATOM      6  C   UNL     1       5.025   4.339  15.084  0.00  0.00    +0.000 A 
ATOM      7  C   UNL     1       4.712   4.510  16.433  0.00  0.00    +0.000 A 
ATOM      8  C   UNL     1       5.736   4.724  17.360  0.00  0.00    +0.000 A 
ATOM      9  C   UNL     1       7.071   4.759  16.949  0.00  0.00    +0.000 A 
ATOM     10  C   UNL     1       7.377   4.588  15.597  0.00  0.00    +0.000 A 
ENDBRANCH   1   8
BRANCH   1  11
ATOM     11  O   UNL     1       4.686   3.347  19.416  0.00  0.00    +0.000 OA
BRANCH  11  12
ATOM     12  C   UNL     1       3.335   3.192  19.615  0.00  0.00    +0.000 A 
ATOM     13  C   UNL     1       2.584   2.815  18.498  0.00  0.00    +0.000 A 
ATOM     14  C   UNL     1       1.204   2.619  18.611  0.00  0.00    +0.000 A 
ATOM     15  C   UNL     1       0.574   2.784  19.843  0.00  0.00    +0.000 A 
ATOM     16  C   UNL     1       1.323   3.139  20.961  0.00  0.00    +0.000 A 
ATOM     17  C   UNL     1       2.701   3.338  20.849  0.00  0.00    +0.000 A 
ENDBRANCH  11  12
ENDBRANCH   1  11
TORSDOF 3
ENDMDL
MODEL 3
REMARK VINA RESULT:      -7.3      0.699      1.131
REMARK  Name = 
REMARK  4 active torsions:
REMARK  status: ('A' for Active; 'I' for Inactive)
REMARK    1  A    between atoms: C_1  and  C_2
REMARK    2  A    between atoms: C_5  and  S_6
REMARK    3  A    between atoms: S_6  and  O_9
REMARK    4  A    between atoms: O_9  and  C_10
REMARK                            x       y       z     vdW  Elec       q    Type
REMARK                         _______ _______ _______ _____ _____    ______ ____
ROOT
ATOM      1  S   UNL     1       5.468   4.614  19.046  0.00  0.00    +0.000 S 
ATOM      2  O   UNL     1       5.359   3.248  19.529  0.00  0.00    +0.000 OA
ATOM      3  O   UNL     1       6.405   5.540  19.656  0.00  0.00    +0.000 OA
ENDROOT
BRANCH   1   8
ATOM      4  C   UNL     1       6.898   4.489  13.140  0.00  0.00    +0.000 C 
ATOM      5  C   UNL     1       6.563   4.482  14.604  0.00  0.00    +0.000 A 
ATOM      6  C   UNL     1       7.488   4.937  15.551  0.00  0.00    +0.000 A 
ATOM      7  C   UNL     1       7.165   4.941  16.909  0.00  0.00    +0.000 A 
ATOM      8  C   UNL     1       5.911   4.483  17.323  0.00  0.00    +0.000 A 
ATOM      9  C   UNL     1       4.976   4.029  16.389  0.00  0.00    +0.000 A 
ATOM     10  C   UNL     1       5.307   4.026  15.032  0.00  0.00    +0.000 A 
ENDBRANCH   1   8
BRANCH   1  11
ATOM     11  O   UNL     1       3.986   5.301  19.012  0.00  0.00    +0.000 OA
BRANCH  11  12
ATOM     12  C   UNL     1       2.865   4.588  19.364  0.00  0.00    +0.000 A 
ATOM     13  C   UNL     1       2.186   3.948  18.324  0.00  0.00    +0.000 A 
ATOM     14  C   UNL     1       1.044   3.187  18.591  0.00  0.00    +0.000 A 
ATOM     15  C   UNL     1       0.587   3.051  19.901  0.00  0.00    +0.000 A 
ATOM     16  C   UNL     1       1.274   3.669  20.941  0.00  0.00    +0.000 A 
ATOM     17  C   UNL     1       2.413   4.433  20.675  0.00  0.00    +0.000 A 
ENDBRANCH  11  12
ENDBRANCH   1  11
TORSDOF 3
ENDMDL
MODEL 4
REMARK VINA RESULT:      -7.3      0.185      1.174
REMARK  Name = 
REMARK  4 active torsions:
REMARK  status: ('A' for Active; 'I' for Inactive)
REMARK    1  A    between atoms: C_1  and  C_2
REMARK    2  A    between atoms: C_5  and  S_6
REMARK    3  A    between atoms: S_6  and  O_9
REMARK    4  A    between atoms: O_9  and  C_10
REMARK                            x       y       z     vdW  Elec       q    Type
REMARK                         _______ _______ _______ _____ _____    ______ ____
ROOT
ATOM      1  S   UNL     1       5.297   4.847  19.060  0.00  0.00    +0.000 S 
ATOM      2  O   UNL     1       6.532   5.085  19.787  0.00  0.00    +0.000 OA
ATOM      3  O   UNL     1       4.227   5.827  19.080  0.00  0.00    +0.000 OA
ENDROOT
BRANCH   1   8
ATOM      4  C   UNL     1       6.916   4.440  13.216  0.00  0.00    +0.000 C 
ATOM      5  C   UNL     1       6.526   4.499  14.664  0.00  0.00    +0.000 A 
ATOM      6  C   UNL     1       7.487   4.734  15.655  0.00  0.00    +0.000 A 
ATOM      7  C   UNL     1       7.114   4.802  16.999  0.00  0.00    +0.000 A 
ATOM      8  C   UNL     1       5.773   4.630  17.354  0.00  0.00    +0.000 A 
ATOM      9  C   UNL     1       4.802   4.399  16.377  0.00  0.00    +0.000 A 
ATOM     10  C   UNL     1       5.183   4.330  15.035  0.00  0.00    +0.000 A 
ENDBRANCH   1   8
BRANCH   1  11
ATOM     11  O   UNL     1       4.690   3.389  19.479  0.00  0.00    +0.000 OA
BRANCH  11  12
ATOM     12  C   UNL     1       3.334   3.186  19.575  0.00  0.00    +0.000 A 
ATOM     13  C   UNL     1       2.771   3.360  20.842  0.00  0.00    +0.000 A 
ATOM     14  C   UNL     1       1.396   3.191  21.032  0.00  0.00    +0.000 A 
ATOM     15  C   UNL     1       0.578   2.862  19.952  0.00  0.00    +0.000 A 
ATOM     16  C   UNL     1       1.134   2.709  18.685  0.00  0.00    +0.000 A 
ATOM     17  C   UNL     1       2.508   2.874  18.495  0.00  0.00    +0.000 A 
ENDBRANCH  11  12
ENDBRANCH   1  11
TORSDOF 3
ENDMDL
MODEL 5
REMARK VINA RESULT:      -7.2      0.733      1.636
REMARK  Name = 
REMARK  4 active torsions:
REMARK  status: ('A' for Active; 'I' for Inactive)
REMARK    1  A    between atoms: C_1  and  C_2
REMARK    2  A    between atoms: C_5  and  S_6
REMARK    3  A    between atoms: S_6  and  O_9
REMARK    4  A    between atoms: O_9  and  C_10
REMARK                            x       y       z     vdW  Elec       q    Type
REMARK                         _______ _______ _______ _____ _____    ______ ____
ROOT
ATOM      1  S   UNL     1       5.549   4.640  19.052  0.00  0.00    +0.000 S 
ATOM      2  O   UNL     1       5.442   3.282  19.559  0.00  0.00    +0.000 OA
ATOM      3  O   UNL     1       6.497   5.572  19.636  0.00  0.00    +0.000 OA
ENDROOT
BRANCH   1   8
ATOM      4  C   UNL     1       6.879   4.411  13.127  0.00  0.00    +0.000 C 
ATOM      5  C   UNL     1       6.572   4.431  14.596  0.00  0.00    +0.000 A 
ATOM      6  C   UNL     1       7.476   4.987  15.508  0.00  0.00    +0.000 A 
ATOM      7  C   UNL     1       7.178   5.016  16.871  0.00  0.00    +0.000 A 
ATOM      8  C   UNL     1       5.970   4.481  17.326  0.00  0.00    +0.000 A 
ATOM      9  C   UNL     1       5.055   3.925  16.428  0.00  0.00    +0.000 A 
ATOM     10  C   UNL     1       5.362   3.898  15.066  0.00  0.00    +0.000 A 
ENDBRANCH   1   8
BRANCH   1  11
ATOM     11  O   UNL     1       4.069   5.331  19.027  0.00  0.00    +0.000 OA
BRANCH  11  12
ATOM     12  C   UNL     1       2.936   4.589  19.258  0.00  0.00    +0.000 A 
ATOM     13  C   UNL     1       2.484   4.544  20.579  0.00  0.00    +0.000 A 
ATOM     14  C   UNL     1       1.328   3.827  20.905  0.00  0.00    +0.000 A 
ATOM     15  C   UNL     1       0.613   3.165  19.908  0.00  0.00    +0.000 A 
ATOM     16  C   UNL     1       1.049   3.227  18.587  0.00  0.00    +0.000 A 
ATOM     17  C   UNL     1       2.205   3.941  18.262  0.00  0.00    +0.000 A 
ENDBRANCH  11  12
ENDBRANCH   1  11
TORSDOF 3
ENDMDL
MODEL 6
REMARK VINA RESULT:      -7.2      2.028      6.242
REMARK  Name = 
REMARK  4 active torsions:
REMARK  status: ('A' for Active; 'I' for Inactive)
REMARK    1  A    between atoms: C_1  and  C_2
REMARK    2  A    between atoms: C_5  and  S_6
REMARK    3  A    between atoms: S_6  and  O_9
REMARK    4  A    between atoms: O_9  and  C_10
REMARK                            x       y       z     vdW  Elec       q    Type
REMARK                         _______ _______ _______ _____ _____    ______ ____
ROOT
ATOM      1  S   UNL     1       5.617   5.888  16.593  0.00  0.00    +0.000 S 
ATOM      2  O   UNL     1       5.120   6.747  15.531  0.00  0.00    +0.000 OA
ATOM      3  O   UNL     1       6.243   6.458  17.772  0.00  0.00    +0.000 OA
ENDROOT
BRANCH   1   8
ATOM      4  C   UNL     1       0.935   2.711  18.812  0.00  0.00    +0.000 C 
ATOM      5  C   UNL     1       2.071   3.499  18.227  0.00  0.00    +0.000 A 
ATOM      6  C   UNL     1       2.055   4.899  18.247  0.00  0.00    +0.000 A 
ATOM      7  C   UNL     1       3.122   5.625  17.714  0.00  0.00    +0.000 A 
ATOM      8  C   UNL     1       4.208   4.948  17.153  0.00  0.00    +0.000 A 
ATOM      9  C   UNL     1       4.240   3.551  17.129  0.00  0.00    +0.000 A 
ATOM     10  C   UNL     1       3.168   2.831  17.662  0.00  0.00    +0.000 A 
ENDBRANCH   1   8
BRANCH   1  11
ATOM     11  O   UNL     1       6.609   4.755  15.959  0.00  0.00    +0.000 OA
BRANCH  11  12
ATOM     12  C   UNL     1       6.682   4.556  14.601  0.00  0.00    +0.000 A 
ATOM     13  C   UNL     1       7.662   5.283  13.920  0.00  0.00    +0.000 A 
ATOM     14  C   UNL     1       7.820   5.132  12.539  0.00  0.00    +0.000 A 
ATOM     15  C   UNL     1       7.009   4.242  11.837  0.00  0.00    +0.000 A 
ATOM     16  C   UNL     1       6.047   3.500  12.516  0.00  0.00    +0.000 A 
ATOM     17  C   UNL     1       5.886   3.653  13.896  0.00  0.00    +0.000 A 
ENDBRANCH  11  12
ENDBRANCH   1  11
TORSDOF 3
ENDMDL
MODEL 7
REMARK VINA RESULT:      -7.1      0.816      1.755
REMARK  Name = 
REMARK  4 active torsions:
REMARK  status: ('A' for Active; 'I' for Inactive)
REMARK    1  A    between atoms: C_1  and  C_2
REMARK    2  A    between atoms: C_5  and  S_6
REMARK    3  A    between atoms: S_6  and  O_9
REMARK    4  A    between atoms: O_9  and  C_10
REMARK                            x       y       z     vdW  Elec       q    Type
REMARK                         _______ _______ _______ _____ _____    ______ ____
ROOT
ATOM      1  S   UNL     1       5.153   4.565  18.398  0.00  0.00    +0.000 S 
ATOM      2  O   UNL     1       6.333   4.307  19.205  0.00  0.00    +0.000 OA
ATOM      3  O   UNL     1       4.345   5.749  18.630  0.00  0.00    +0.000 OA
ENDROOT
BRANCH   1   8
ATOM      4  C   UNL     1       7.174   4.522  12.667  0.00  0.00    +0.000 C 
ATOM      5  C   UNL     1       6.660   4.572  14.076  0.00  0.00    +0.000 A 
ATOM      6  C   UNL     1       5.336   4.222  14.368  0.00  0.00    +0.000 A 
ATOM      7  C   UNL     1       4.868   4.256  15.682  0.00  0.00    +0.000 A 
ATOM      8  C   UNL     1       5.729   4.648  16.712  0.00  0.00    +0.000 A 
ATOM      9  C   UNL     1       7.053   4.998  16.438  0.00  0.00    +0.000 A 
ATOM     10  C   UNL     1       7.513   4.962  15.119  0.00  0.00    +0.000 A 
ENDBRANCH   1   8
BRANCH   1  11
ATOM     11  O   UNL     1       4.184   3.249  18.411  0.00  0.00    +0.000 OA
BRANCH  11  12
ATOM     12  C   UNL     1       3.134   3.150  19.292  0.00  0.00    +0.000 A 
ATOM     13  C   UNL     1       3.454   2.755  20.594  0.00  0.00    +0.000 A 
ATOM     14  C   UNL     1       2.452   2.642  21.562  0.00  0.00    +0.000 A 
ATOM     15  C   UNL     1       1.130   2.939  21.236  0.00  0.00    +0.000 A 
ATOM     16  C   UNL     1       0.812   3.353  19.946  0.00  0.00    +0.000 A 
ATOM     17  C   UNL     1       1.812   3.463  18.977  0.00  0.00    +0.000 A 
ENDBRANCH  11  12
ENDBRANCH   1  11
TORSDOF 3
ENDMDL
MODEL 8
REMARK VINA RESULT:      -7.1      2.285      3.117
REMARK  Name = 
REMARK  4 active torsions:
REMARK  status: ('A' for Active; 'I' for Inactive)
REMARK    1  A    between atoms: C_1  and  C_2
REMARK    2  A    between atoms: C_5  and  S_6
REMARK    3  A    between atoms: S_6  and  O_9
REMARK    4  A    between atoms: O_9  and  C_10
REMARK                            x       y       z     vdW  Elec       q    Type
REMARK                         _______ _______ _______ _____ _____    ______ ____
ROOT
ATOM      1  S   UNL     1       5.151   4.284  17.782  0.00  0.00    +0.000 S 
ATOM      2  O   UNL     1       5.384   3.637  16.503  0.00  0.00    +0.000 OA
ATOM      3  O   UNL     1       5.375   3.565  19.024  0.00  0.00    +0.000 OA
ENDROOT
BRANCH   1   8
ATOM      4  C   UNL     1       8.645   9.243  18.142  0.00  0.00    +0.000 C 
ATOM      5  C   UNL     1       7.807   8.003  18.022  0.00  0.00    +0.000 A 
ATOM      6  C   UNL     1       8.142   6.842  18.730  0.00  0.00    +0.000 A 
ATOM      7  C   UNL     1       7.351   5.698  18.627  0.00  0.00    +0.000 A 
ATOM      8  C   UNL     1       6.220   5.711  17.805  0.00  0.00    +0.000 A 
ATOM      9  C   UNL     1       5.870   6.862  17.094  0.00  0.00    +0.000 A 
ATOM     10  C   UNL     1       6.668   8.004  17.202  0.00  0.00    +0.000 A 
ENDBRANCH   1   8
BRANCH   1  11
ATOM     11  O   UNL     1       3.648   4.926  17.804  0.00  0.00    +0.000 OA
BRANCH  11  12
ATOM     12  C   UNL     1       2.651   4.373  18.571  0.00  0.00    +0.000 A 
ATOM     13  C   UNL     1       2.034   3.230  18.055  0.00  0.00    +0.000 A 
ATOM     14  C   UNL     1       1.020   2.591  18.774  0.00  0.00    +0.000 A 
ATOM     15  C   UNL     1       0.631   3.083  20.019  0.00  0.00    +0.000 A 
ATOM     16  C   UNL     1       1.259   4.209  20.545  0.00  0.00    +0.000 A 
ATOM     17  C   UNL     1       2.270   4.850  19.825  0.00  0.00    +0.000 A 
ENDBRANCH  11  12
ENDBRANCH   1  11
TORSDOF 3
ENDMDL
MODEL 9
REMARK VINA RESULT:      -6.9      2.326      3.270
REMARK  Name = 
REMARK  4 active torsions:
REMARK  status: ('A' for Active; 'I' for Inactive)
REMARK    1  A    between atoms: C_1  and  C_2
REMARK    2  A    between atoms: C_5  and  S_6
REMARK    3  A    between atoms: S_6  and  O_9
REMARK    4  A    between atoms: O_9  and  C_10
REMARK                            x       y       z     vdW  Elec       q    Type
REMARK                         _______ _______ _______ _____ _____    ______ ____
ROOT
ATOM      1  S   UNL     1       5.173   4.235  17.668  0.00  0.00    +0.000 S 
ATOM      2  O   UNL     1       5.560   3.683  16.381  0.00  0.00    +0.000 OA
ATOM      3  O   UNL     1       5.325   3.454  18.882  0.00  0.00    +0.000 OA
ENDROOT
BRANCH   1   8
ATOM      4  C   UNL     1       8.649   9.203  18.078  0.00  0.00    +0.000 C 
ATOM      5  C   UNL     1       7.767   7.991  18.009  0.00  0.00    +0.000 A 
ATOM      6  C   UNL     1       6.590   8.005  17.250  0.00  0.00    +0.000 A 
ATOM      7  C   UNL     1       5.782   6.870  17.177  0.00  0.00    +0.000 A 
ATOM      8  C   UNL     1       6.149   5.714  17.873  0.00  0.00    +0.000 A 
ATOM      9  C   UNL     1       7.322   5.683  18.632  0.00  0.00    +0.000 A 
ATOM     10  C   UNL     1       8.125   6.824  18.700  0.00  0.00    +0.000 A 
ENDBRANCH   1   8
BRANCH   1  11
ATOM     11  O   UNL     1       3.640   4.793  17.583  0.00  0.00    +0.000 OA
BRANCH  11  12
ATOM     12  C   UNL     1       2.680   4.367  18.469  0.00  0.00    +0.000 A 
ATOM     13  C   UNL     1       1.980   3.211  18.114  0.00  0.00    +0.000 A 
ATOM     14  C   UNL     1       0.995   2.695  18.963  0.00  0.00    +0.000 A 
ATOM     15  C   UNL     1       0.720   3.324  20.176  0.00  0.00    +0.000 A 
ATOM     16  C   UNL     1       1.431   4.463  20.541  0.00  0.00    +0.000 A 
ATOM     17  C   UNL     1       2.412   4.982  19.692  0.00  0.00    +0.000 A 
ENDBRANCH  11  12
ENDBRANCH   1  11
TORSDOF 3
ENDMDL
