MODEL 1
REMARK VINA RESULT:      -8.9      0.000      0.000
REMARK  Name = 
REMARK  6 active torsions:
REMARK  status: ('A' for Active; 'I' for Inactive)
REMARK    1  A    between atoms: C_1  and  C_2
REMARK    2  A    between atoms: C_2  and  C_3
REMARK    3  A    between atoms: C_3  and  C_4
REMARK    4  A    between atoms: C_8  and  C_9
REMARK    5  A    between atoms: C_13  and  C_15
REMARK    6  A    between atoms: N_24  and  C_25
REMARK                            x       y       z     vdW  Elec       q    Type
REMARK                         _______ _______ _______ _____ _____    ______ ____
ROOT
ATOM      1  C   UNL     1       3.848   6.928  17.823  0.00  0.00    +0.000 A 
ATOM      2  C   UNL     1       3.796   8.314  17.802  0.00  0.00    +0.000 A 
ATOM      3  C   UNL     1       2.476   8.666  18.132  0.00  0.00    +0.000 A 
ATOM      4  N   UNL     1       2.028   9.961  18.195  0.00  0.00    +0.000 N 
ATOM      5  C   UNL     1       0.732  10.319  18.521  0.00  0.00    +0.000 C 
ATOM      6  O   UNL     1      -0.205   9.569  18.759  0.00  0.00    +0.000 OA
ATOM      7  N   UNL     1       1.741   7.579  18.344  0.00  0.00    +0.000 NA
ATOM      8  N   UNL     1       2.600   6.539  18.314  0.00  0.00    +0.000 N 
ATOM      9  H   UNL     1       2.713  10.684  18.023  0.00  0.00    +0.000 HD
ENDROOT
BRANCH   5  10
ATOM     10  C   UNL     1       0.500  11.818  18.568  0.00  0.00    +0.000 C 
ATOM     11  C   UNL     1       1.824  12.552  18.305  0.00  0.00    +0.000 C 
ATOM     12  N   UNL     1       2.261  13.022  19.601  0.00  0.00    +0.000 N 
ATOM     13  C   UNL     1       1.232  13.105  20.504  0.00  0.00    +0.000 C 
ATOM     14  O   UNL     1       1.256  13.642  21.595  0.00  0.00    +0.000 OA
ATOM     15  C   UNL     1       0.084  12.355  19.929  0.00  0.00    +0.000 C 
ATOM     16  C   UNL     1      -1.352  12.781  20.159  0.00  0.00    +0.000 C 
ATOM     17  C   UNL     1      -0.823  11.559  20.850  0.00  0.00    +0.000 C 
ATOM     18  H   UNL     1       3.096  13.575  19.756  0.00  0.00    +0.000 HD
ENDBRANCH   5  10
BRANCH   1  23
ATOM     19  C   UNL     1       6.219   5.060  15.551  0.00  0.00    +0.000 A 
ATOM     20  C   UNL     1       7.053   4.426  16.478  0.00  0.00    +0.000 A 
ATOM     21  C   UNL     1       6.828   4.577  17.842  0.00  0.00    +0.000 A 
ATOM     22  C   UNL     1       5.750   5.339  18.285  0.00  0.00    +0.000 A 
ATOM     23  C   UNL     1       4.948   6.056  17.383  0.00  0.00    +0.000 A 
ATOM     24  C   UNL     1       5.193   5.896  16.014  0.00  0.00    +0.000 A 
BRANCH  19  25
ATOM     25  C   UNL     1       6.387   4.812  14.075  0.00  0.00    +0.000 C 
BRANCH  25  27
ATOM     26  C   UNL     1       5.943   3.272  12.096  0.00  0.00    +0.000 C 
ATOM     27  C   UNL     1       5.558   3.651  13.518  0.00  0.00    +0.000 C 
ENDBRANCH  25  27
ENDBRANCH  19  25
ENDBRANCH   1  23
BRANCH   8  28
ATOM     28  C   UNL     1       2.160   5.252  18.732  0.00  0.00    +0.000 A 
ATOM     29  C   UNL     1       1.885   5.020  20.085  0.00  0.00    +0.000 A 
ATOM     30  C   UNL     1       1.288   3.816  20.469  0.00  0.00    +0.000 A 
ATOM     31  C   UNL     1       0.987   2.843  19.513  0.00  0.00    +0.000 A 
ATOM     32  C   UNL     1       1.320   3.047  18.178  0.00  0.00    +0.000 A 
ATOM     33  C   UNL     1       1.939   4.234  17.795  0.00  0.00    +0.000 A 
ENDBRANCH   8  28
TORSDOF 5
ENDMDL
MODEL 2
REMARK VINA RESULT:      -8.7      1.394      1.642
REMARK  Name = 
REMARK  6 active torsions:
REMARK  status: ('A' for Active; 'I' for Inactive)
REMARK    1  A    between atoms: C_1  and  C_2
REMARK    2  A    between atoms: C_2  and  C_3
REMARK    3  A    between atoms: C_3  and  C_4
REMARK    4  A    between atoms: C_8  and  C_9
REMARK    5  A    between atoms: C_13  and  C_15
REMARK    6  A    between atoms: N_24  and  C_25
REMARK                            x       y       z     vdW  Elec       q    Type
REMARK                         _______ _______ _______ _____ _____    ______ ____
ROOT
ATOM      1  C   UNL     1       4.009   6.467  17.443  0.00  0.00    +0.000 A 
ATOM      2  C   UNL     1       3.910   7.849  17.507  0.00  0.00    +0.000 A 
ATOM      3  C   UNL     1       2.696   8.130  18.157  0.00  0.00    +0.000 A 
ATOM      4  N   UNL     1       2.235   9.401  18.391  0.00  0.00    +0.000 N 
ATOM      5  C   UNL     1       1.044   9.689  19.031  0.00  0.00    +0.000 C 
ATOM      6  O   UNL     1       0.213   8.890  19.444  0.00  0.00    +0.000 OA
ATOM      7  N   UNL     1       2.066   7.005  18.480  0.00  0.00    +0.000 NA
ATOM      8  N   UNL     1       2.925   6.005  18.194  0.00  0.00    +0.000 N 
ATOM      9  H   UNL     1       2.837  10.160  18.101  0.00  0.00    +0.000 HD
ENDROOT
BRANCH   5  10
ATOM     10  C   UNL     1       0.782  11.174  19.209  0.00  0.00    +0.000 C 
ATOM     11  C   UNL     1       1.123  11.586  20.649  0.00  0.00    +0.000 C 
ATOM     12  N   UNL     1      -0.153  11.729  21.315  0.00  0.00    +0.000 N 
ATOM     13  C   UNL     1      -1.186  11.926  20.435  0.00  0.00    +0.000 C 
ATOM     14  O   UNL     1      -2.322  12.267  20.702  0.00  0.00    +0.000 OA
ATOM     15  C   UNL     1      -0.678  11.582  19.080  0.00  0.00    +0.000 C 
ATOM     16  C   UNL     1      -1.144  12.312  17.837  0.00  0.00    +0.000 C 
ATOM     17  C   UNL     1      -1.604  10.906  18.085  0.00  0.00    +0.000 C 
ATOM     18  H   UNL     1      -0.265  12.026  22.278  0.00  0.00    +0.000 HD
ENDBRANCH   5  10
BRANCH   1  23
ATOM     19  C   UNL     1       5.642   4.496  14.666  0.00  0.00    +0.000 A 
ATOM     20  C   UNL     1       6.865   4.149  15.251  0.00  0.00    +0.000 A 
ATOM     21  C   UNL     1       7.149   4.527  16.559  0.00  0.00    +0.000 A 
ATOM     22  C   UNL     1       6.198   5.227  17.298  0.00  0.00    +0.000 A 
ATOM     23  C   UNL     1       5.000   5.663  16.712  0.00  0.00    +0.000 A 
ATOM     24  C   UNL     1       4.734   5.278  15.393  0.00  0.00    +0.000 A 
BRANCH  19  25
ATOM     25  C   UNL     1       5.282   3.996  13.292  0.00  0.00    +0.000 C 
BRANCH  25  27
ATOM     26  C   UNL     1       6.182   2.262  11.659  0.00  0.00    +0.000 C 
ATOM     27  C   UNL     1       6.469   3.534  12.442  0.00  0.00    +0.000 C 
ENDBRANCH  25  27
ENDBRANCH  19  25
ENDBRANCH   1  23
BRANCH   8  28
ATOM     28  C   UNL     1       2.638   4.683  18.636  0.00  0.00    +0.000 A 
ATOM     29  C   UNL     1       3.345   4.146  19.719  0.00  0.00    +0.000 A 
ATOM     30  C   UNL     1       2.945   2.923  20.263  0.00  0.00    +0.000 A 
ATOM     31  C   UNL     1       1.861   2.231  19.719  0.00  0.00    +0.000 A 
ATOM     32  C   UNL     1       1.199   2.733  18.602  0.00  0.00    +0.000 A 
ATOM     33  C   UNL     1       1.612   3.938  18.040  0.00  0.00    +0.000 A 
ENDBRANCH   8  28
TORSDOF 5
ENDMDL
MODEL 3
REMARK VINA RESULT:      -8.7      2.757      8.488
REMARK  Name = 
REMARK  6 active torsions:
REMARK  status: ('A' for Active; 'I' for Inactive)
REMARK    1  A    between atoms: C_1  and  C_2
REMARK    2  A    between atoms: C_2  and  C_3
REMARK    3  A    between atoms: C_3  and  C_4
REMARK    4  A    between atoms: C_8  and  C_9
REMARK    5  A    between atoms: C_13  and  C_15
REMARK    6  A    between atoms: N_24  and  C_25
REMARK                            x       y       z     vdW  Elec       q    Type
REMARK                         _______ _______ _______ _____ _____    ______ ____
ROOT
ATOM      1  C   UNL     1       1.372  10.326  18.749  0.00  0.00    +0.000 A 
ATOM      2  C   UNL     1       2.004   9.517  17.817  0.00  0.00    +0.000 A 
ATOM      3  C   UNL     1       2.271   8.299  18.467  0.00  0.00    +0.000 A 
ATOM      4  N   UNL     1       2.912   7.244  17.869  0.00  0.00    +0.000 N 
ATOM      5  C   UNL     1       3.178   6.041  18.497  0.00  0.00    +0.000 C 
ATOM      6  O   UNL     1       2.932   5.742  19.659  0.00  0.00    +0.000 OA
ATOM      7  N   UNL     1       1.841   8.335  19.724  0.00  0.00    +0.000 NA
ATOM      8  N   UNL     1       1.160   9.492  19.850  0.00  0.00    +0.000 N 
ATOM      9  H   UNL     1       3.165   7.361  16.898  0.00  0.00    +0.000 HD
ENDROOT
BRANCH   5  10
ATOM     10  C   UNL     1       3.856   5.015  17.606  0.00  0.00    +0.000 C 
ATOM     11  C   UNL     1       3.974   3.680  18.357  0.00  0.00    +0.000 C 
ATOM     12  N   UNL     1       5.359   3.595  18.764  0.00  0.00    +0.000 N 
ATOM     13  C   UNL     1       6.179   4.396  18.010  0.00  0.00    +0.000 C 
ATOM     14  O   UNL     1       7.394   4.388  17.989  0.00  0.00    +0.000 OA
ATOM     15  C   UNL     1       5.302   5.333  17.258  0.00  0.00    +0.000 C 
ATOM     16  C   UNL     1       5.648   5.815  15.863  0.00  0.00    +0.000 C 
ATOM     17  C   UNL     1       5.765   6.760  17.022  0.00  0.00    +0.000 C 
ATOM     18  H   UNL     1       5.762   2.806  19.256  0.00  0.00    +0.000 HD
ENDBRANCH   5  10
BRANCH   1  23
ATOM     19  C   UNL     1       1.782  14.080  18.657  0.00  0.00    +0.000 A 
ATOM     20  C   UNL     1       0.474  14.498  18.386  0.00  0.00    +0.000 A 
ATOM     21  C   UNL     1      -0.549  13.564  18.266  0.00  0.00    +0.000 A 
ATOM     22  C   UNL     1      -0.275  12.211  18.445  0.00  0.00    +0.000 A 
ATOM     23  C   UNL     1       1.039  11.755  18.631  0.00  0.00    +0.000 A 
ATOM     24  C   UNL     1       2.057  12.708  18.744  0.00  0.00    +0.000 A 
BRANCH  19  25
ATOM     25  C   UNL     1       2.873  15.090  18.899  0.00  0.00    +0.000 C 
BRANCH  25  27
ATOM     26  C   UNL     1       5.185  14.876  17.854  0.00  0.00    +0.000 C 
ATOM     27  C   UNL     1       3.760  15.383  17.688  0.00  0.00    +0.000 C 
ENDBRANCH  25  27
ENDBRANCH  19  25
ENDBRANCH   1  23
BRANCH   8  28
ATOM     28  C   UNL     1       0.380   9.726  21.016  0.00  0.00    +0.000 A 
ATOM     29  C   UNL     1       0.702   9.065  22.209  0.00  0.00    +0.000 A 
ATOM     30  C   UNL     1       0.051   9.425  23.391  0.00  0.00    +0.000 A 
ATOM     31  C   UNL     1      -0.928  10.420  23.382  0.00  0.00    +0.000 A 
ATOM     32  C   UNL     1      -1.294  11.030  22.186  0.00  0.00    +0.000 A 
ATOM     33  C   UNL     1      -0.667  10.656  21.001  0.00  0.00    +0.000 A 
ENDBRANCH   8  28
TORSDOF 5
ENDMDL
MODEL 4
REMARK VINA RESULT:      -8.7      1.556      1.841
REMARK  Name = 
REMARK  6 active torsions:
REMARK  status: ('A' for Active; 'I' for Inactive)
REMARK    1  A    between atoms: C_1  and  C_2
REMARK    2  A    between atoms: C_2  and  C_3
REMARK    3  A    between atoms: C_3  and  C_4
REMARK    4  A    between atoms: C_8  and  C_9
REMARK    5  A    between atoms: C_13  and  C_15
REMARK    6  A    between atoms: N_24  and  C_25
REMARK                            x       y       z     vdW  Elec       q    Type
REMARK                         _______ _______ _______ _____ _____    ______ ____
ROOT
ATOM      1  C   UNL     1       4.032   6.659  17.883  0.00  0.00    +0.000 A 
ATOM      2  C   UNL     1       3.717   7.980  17.602  0.00  0.00    +0.000 A 
ATOM      3  C   UNL     1       2.530   8.261  18.301  0.00  0.00    +0.000 A 
ATOM      4  N   UNL     1       1.890   9.473  18.255  0.00  0.00    +0.000 N 
ATOM      5  C   UNL     1       0.723   9.762  18.939  0.00  0.00    +0.000 C 
ATOM      6  O   UNL     1       0.070   9.001  19.641  0.00  0.00    +0.000 OA
ATOM      7  N   UNL     1       2.119   7.192  18.975  0.00  0.00    +0.000 NA
ATOM      8  N   UNL     1       3.103   6.276  18.853  0.00  0.00    +0.000 N 
ATOM      9  H   UNL     1       2.335  10.198  17.709  0.00  0.00    +0.000 HD
ENDROOT
BRANCH   5  10
ATOM     10  C   UNL     1       0.240  11.190  18.762  0.00  0.00    +0.000 C 
ATOM     11  C   UNL     1       0.611  12.016  20.003  0.00  0.00    +0.000 C 
ATOM     12  N   UNL     1      -0.621  12.156  20.747  0.00  0.00    +0.000 N 
ATOM     13  C   UNL     1      -1.732  11.968  19.965  0.00  0.00    +0.000 C 
ATOM     14  O   UNL     1      -2.886  12.210  20.260  0.00  0.00    +0.000 OA
ATOM     15  C   UNL     1      -1.272  11.346  18.694  0.00  0.00    +0.000 C 
ATOM     16  C   UNL     1      -1.935  11.645  17.365  0.00  0.00    +0.000 C 
ATOM     17  C   UNL     1      -2.145  10.308  18.013  0.00  0.00    +0.000 C 
ATOM     18  H   UNL     1      -0.711  12.684  21.608  0.00  0.00    +0.000 HD
ENDBRANCH   5  10
BRANCH   1  23
ATOM     19  C   UNL     1       5.819   4.458  15.386  0.00  0.00    +0.000 A 
ATOM     20  C   UNL     1       7.047   4.250  16.024  0.00  0.00    +0.000 A 
ATOM     21  C   UNL     1       7.284   4.797  17.281  0.00  0.00    +0.000 A 
ATOM     22  C   UNL     1       6.285   5.528  17.917  0.00  0.00    +0.000 A 
ATOM     23  C   UNL     1       5.077   5.826  17.267  0.00  0.00    +0.000 A 
ATOM     24  C   UNL     1       4.857   5.272  16.001  0.00  0.00    +0.000 A 
BRANCH  19  25
ATOM     25  C   UNL     1       5.512   3.778  14.078  0.00  0.00    +0.000 C 
BRANCH  25  27
ATOM     26  C   UNL     1       6.485   2.978  11.865  0.00  0.00    +0.000 C 
ATOM     27  C   UNL     1       6.536   4.025  12.967  0.00  0.00    +0.000 C 
ENDBRANCH  25  27
ENDBRANCH  19  25
ENDBRANCH   1  23
BRANCH   8  28
ATOM     28  C   UNL     1       3.070   5.098  19.651  0.00  0.00    +0.000 A 
ATOM     29  C   UNL     1       2.278   5.066  20.806  0.00  0.00    +0.000 A 
ATOM     30  C   UNL     1       2.108   3.860  21.489  0.00  0.00    +0.000 A 
ATOM     31  C   UNL     1       2.739   2.698  21.036  0.00  0.00    +0.000 A 
ATOM     32  C   UNL     1       3.577   2.745  19.927  0.00  0.00    +0.000 A 
ATOM     33  C   UNL     1       3.771   3.951  19.258  0.00  0.00    +0.000 A 
ENDBRANCH   8  28
TORSDOF 5
ENDMDL
MODEL 5
REMARK VINA RESULT:      -8.4      1.319      1.670
REMARK  Name = 
REMARK  6 active torsions:
REMARK  status: ('A' for Active; 'I' for Inactive)
REMARK    1  A    between atoms: C_1  and  C_2
REMARK    2  A    between atoms: C_2  and  C_3
REMARK    3  A    between atoms: C_3  and  C_4
REMARK    4  A    between atoms: C_8  and  C_9
REMARK    5  A    between atoms: C_13  and  C_15
REMARK    6  A    between atoms: N_24  and  C_25
REMARK                            x       y       z     vdW  Elec       q    Type
REMARK                         _______ _______ _______ _____ _____    ______ ____
ROOT
ATOM      1  C   UNL     1       4.118   6.593  17.608  0.00  0.00    +0.000 A 
ATOM      2  C   UNL     1       3.958   7.971  17.590  0.00  0.00    +0.000 A 
ATOM      3  C   UNL     1       2.642   8.222  18.015  0.00  0.00    +0.000 A 
ATOM      4  N   UNL     1       2.101   9.479  18.109  0.00  0.00    +0.000 N 
ATOM      5  C   UNL     1       0.809   9.739  18.529  0.00  0.00    +0.000 C 
ATOM      6  O   UNL     1      -0.049   8.920  18.835  0.00  0.00    +0.000 OA
ATOM      7  N   UNL     1       2.010   7.084  18.281  0.00  0.00    +0.000 NA
ATOM      8  N   UNL     1       2.942   6.112  18.189  0.00  0.00    +0.000 N 
ATOM      9  H   UNL     1       2.714  10.252  17.888  0.00  0.00    +0.000 HD
ENDROOT
BRANCH   5  10
ATOM     10  C   UNL     1       0.465  11.216  18.592  0.00  0.00    +0.000 C 
ATOM     11  C   UNL     1       1.150  11.851  19.812  0.00  0.00    +0.000 C 
ATOM     12  N   UNL     1       0.100  12.014  20.793  0.00  0.00    +0.000 N 
ATOM     13  C   UNL     1      -1.150  12.023  20.229  0.00  0.00    +0.000 C 
ATOM     14  O   UNL     1      -2.196  12.333  20.767  0.00  0.00    +0.000 OA
ATOM     15  C   UNL     1      -1.006  11.517  18.838  0.00  0.00    +0.000 C 
ATOM     16  C   UNL     1      -1.865  12.032  17.701  0.00  0.00    +0.000 C 
ATOM     17  C   UNL     1      -2.101  10.652  18.241  0.00  0.00    +0.000 C 
ATOM     18  H   UNL     1       0.230  12.441  21.703  0.00  0.00    +0.000 HD
ENDBRANCH   5  10
BRANCH   1  23
ATOM     19  C   UNL     1       6.376   4.778  15.184  0.00  0.00    +0.000 A 
ATOM     20  C   UNL     1       7.395   4.331  16.032  0.00  0.00    +0.000 A 
ATOM     21  C   UNL     1       7.335   4.589  17.397  0.00  0.00    +0.000 A 
ATOM     22  C   UNL     1       6.240   5.270  17.924  0.00  0.00    +0.000 A 
ATOM     23  C   UNL     1       5.247   5.805  17.089  0.00  0.00    +0.000 A 
ATOM     24  C   UNL     1       5.327   5.540  15.718  0.00  0.00    +0.000 A 
BRANCH  19  25
ATOM     25  C   UNL     1       6.377   4.406  13.725  0.00  0.00    +0.000 C 
BRANCH  25  27
ATOM     26  C   UNL     1       5.236   3.134  11.838  0.00  0.00    +0.000 C 
ATOM     27  C   UNL     1       5.098   3.725  13.232  0.00  0.00    +0.000 C 
ENDBRANCH  25  27
ENDBRANCH  19  25
ENDBRANCH   1  23
BRANCH   8  28
ATOM     28  C   UNL     1       2.634   4.798  18.638  0.00  0.00    +0.000 A 
ATOM     29  C   UNL     1       2.176   3.843  17.723  0.00  0.00    +0.000 A 
ATOM     30  C   UNL     1       2.043   2.512  18.126  0.00  0.00    +0.000 A 
ATOM     31  C   UNL     1       2.345   2.140  19.438  0.00  0.00    +0.000 A 
ATOM     32  C   UNL     1       2.737   3.101  20.365  0.00  0.00    +0.000 A 
ATOM     33  C   UNL     1       2.845   4.433  19.974  0.00  0.00    +0.000 A 
ENDBRANCH   8  28
TORSDOF 5
ENDMDL
MODEL 6
REMARK VINA RESULT:      -8.4      2.193      3.223
REMARK  Name = 
REMARK  6 active torsions:
REMARK  status: ('A' for Active; 'I' for Inactive)
REMARK    1  A    between atoms: C_1  and  C_2
REMARK    2  A    between atoms: C_2  and  C_3
REMARK    3  A    between atoms: C_3  and  C_4
REMARK    4  A    between atoms: C_8  and  C_9
REMARK    5  A    between atoms: C_13  and  C_15
REMARK    6  A    between atoms: N_24  and  C_25
REMARK                            x       y       z     vdW  Elec       q    Type
REMARK                         _______ _______ _______ _____ _____    ______ ____
ROOT
ATOM      1  C   UNL     1       2.735   6.720  18.990  0.00  0.00    +0.000 A 
ATOM      2  C   UNL     1       2.607   8.100  19.009  0.00  0.00    +0.000 A 
ATOM      3  C   UNL     1       1.535   8.387  19.872  0.00  0.00    +0.000 A 
ATOM      4  N   UNL     1       1.089   9.657  20.134  0.00  0.00    +0.000 N 
ATOM      5  C   UNL     1       0.037   9.950  20.983  0.00  0.00    +0.000 C 
ATOM      6  O   UNL     1      -0.671   9.155  21.587  0.00  0.00    +0.000 OA
ATOM      7  N   UNL     1       1.016   7.266  20.363  0.00  0.00    +0.000 NA
ATOM      8  N   UNL     1       1.834   6.271  19.959  0.00  0.00    +0.000 N 
ATOM      9  H   UNL     1       1.598  10.413  19.698  0.00  0.00    +0.000 HD
ENDROOT
BRANCH   5  10
ATOM     10  C   UNL     1      -0.232  11.436  21.142  0.00  0.00    +0.000 C 
ATOM     11  C   UNL     1      -0.750  11.715  22.561  0.00  0.00    +0.000 C 
ATOM     12  N   UNL     1      -2.174  11.921  22.412  0.00  0.00    +0.000 N 
ATOM     13  C   UNL     1      -2.523  12.269  21.132  0.00  0.00    +0.000 C 
ATOM     14  O   UNL     1      -3.600  12.687  20.754  0.00  0.00    +0.000 OA
ATOM     15  C   UNL     1      -1.351  11.978  20.264  0.00  0.00    +0.000 C 
ATOM     16  C   UNL     1      -1.010  12.831  19.059  0.00  0.00    +0.000 C 
ATOM     17  C   UNL     1      -1.575  11.456  18.857  0.00  0.00    +0.000 C 
ATOM     18  H   UNL     1      -2.800  12.159  23.173  0.00  0.00    +0.000 HD
ENDBRANCH   5  10
BRANCH   1  23
ATOM     19  C   UNL     1       5.765   5.534  17.070  0.00  0.00    +0.000 A 
ATOM     20  C   UNL     1       5.279   4.364  16.475  0.00  0.00    +0.000 A 
ATOM     21  C   UNL     1       3.958   3.976  16.669  0.00  0.00    +0.000 A 
ATOM     22  C   UNL     1       3.109   4.771  17.435  0.00  0.00    +0.000 A 
ATOM     23  C   UNL     1       3.588   5.901  18.114  0.00  0.00    +0.000 A 
ATOM     24  C   UNL     1       4.922   6.275  17.911  0.00  0.00    +0.000 A 
BRANCH  19  25
ATOM     25  C   UNL     1       7.159   6.021  16.775  0.00  0.00    +0.000 C 
BRANCH  25  27
ATOM     26  C   UNL     1       7.890   8.305  17.632  0.00  0.00    +0.000 C 
ATOM     27  C   UNL     1       7.819   6.810  17.908  0.00  0.00    +0.000 C 
ENDBRANCH  25  27
ENDBRANCH  19  25
ENDBRANCH   1  23
BRANCH   8  28
ATOM     28  C   UNL     1       1.681   4.968  20.508  0.00  0.00    +0.000 A 
ATOM     29  C   UNL     1       0.707   4.107  19.987  0.00  0.00    +0.000 A 
ATOM     30  C   UNL     1       0.673   2.774  20.404  0.00  0.00    +0.000 A 
ATOM     31  C   UNL     1       1.591   2.307  21.348  0.00  0.00    +0.000 A 
ATOM     32  C   UNL     1       2.516   3.179  21.914  0.00  0.00    +0.000 A 
ATOM     33  C   UNL     1       2.536   4.515  21.521  0.00  0.00    +0.000 A 
ENDBRANCH   8  28
TORSDOF 5
ENDMDL
MODEL 7
REMARK VINA RESULT:      -8.4      1.592      2.124
REMARK  Name = 
REMARK  6 active torsions:
REMARK  status: ('A' for Active; 'I' for Inactive)
REMARK    1  A    between atoms: C_1  and  C_2
REMARK    2  A    between atoms: C_2  and  C_3
REMARK    3  A    between atoms: C_3  and  C_4
REMARK    4  A    between atoms: C_8  and  C_9
REMARK    5  A    between atoms: C_13  and  C_15
REMARK    6  A    between atoms: N_24  and  C_25
REMARK                            x       y       z     vdW  Elec       q    Type
REMARK                         _______ _______ _______ _____ _____    ______ ____
ROOT
ATOM      1  C   UNL     1       3.406   6.637  18.504  0.00  0.00    +0.000 A 
ATOM      2  C   UNL     1       3.289   8.018  18.471  0.00  0.00    +0.000 A 
ATOM      3  C   UNL     1       2.059   8.326  19.078  0.00  0.00    +0.000 A 
ATOM      4  N   UNL     1       1.578   9.603  19.215  0.00  0.00    +0.000 N 
ATOM      5  C   UNL     1       0.370   9.918  19.811  0.00  0.00    +0.000 C 
ATOM      6  O   UNL     1      -0.458   9.138  20.263  0.00  0.00    +0.000 OA
ATOM      7  N   UNL     1       1.437   7.217  19.465  0.00  0.00    +0.000 NA
ATOM      8  N   UNL     1       2.314   6.212  19.265  0.00  0.00    +0.000 N 
ATOM      9  H   UNL     1       2.175  10.349  18.884  0.00  0.00    +0.000 HD
ENDROOT
BRANCH   5  10
ATOM     10  C   UNL     1       0.087  11.408  19.882  0.00  0.00    +0.000 C 
ATOM     11  C   UNL     1      -0.174  11.813  21.341  0.00  0.00    +0.000 C 
ATOM     12  N   UNL     1      -1.607  11.981  21.438  0.00  0.00    +0.000 N 
ATOM     13  C   UNL     1      -2.194  12.200  20.218  0.00  0.00    +0.000 C 
ATOM     14  O   UNL     1      -3.335  12.564  20.008  0.00  0.00    +0.000 OA
ATOM     15  C   UNL     1      -1.190  11.847  19.179  0.00  0.00    +0.000 C 
ATOM     16  C   UNL     1      -1.101  12.586  17.860  0.00  0.00    +0.000 C 
ATOM     17  C   UNL     1      -1.649  11.190  17.890  0.00  0.00    +0.000 C 
ATOM     18  H   UNL     1      -2.091  12.281  22.276  0.00  0.00    +0.000 HD
ENDBRANCH   5  10
BRANCH   1  23
ATOM     19  C   UNL     1       5.307   4.812  15.798  0.00  0.00    +0.000 A 
ATOM     20  C   UNL     1       6.347   4.229  16.531  0.00  0.00    +0.000 A 
ATOM     21  C   UNL     1       6.415   4.401  17.909  0.00  0.00    +0.000 A 
ATOM     22  C   UNL     1       5.426   5.130  18.565  0.00  0.00    +0.000 A 
ATOM     23  C   UNL     1       4.421   5.797  17.848  0.00  0.00    +0.000 A 
ATOM     24  C   UNL     1       4.371   5.618  16.461  0.00  0.00    +0.000 A 
BRANCH  19  25
ATOM     25  C   UNL     1       5.163   4.538  14.324  0.00  0.00    +0.000 C 
BRANCH  25  27
ATOM     26  C   UNL     1       6.116   3.293  12.318  0.00  0.00    +0.000 C 
ATOM     27  C   UNL     1       6.412   3.966  13.650  0.00  0.00    +0.000 C 
ENDBRANCH  25  27
ENDBRANCH  19  25
ENDBRANCH   1  23
BRANCH   8  28
ATOM     28  C   UNL     1       2.035   4.920  19.792  0.00  0.00    +0.000 A 
ATOM     29  C   UNL     1       1.511   3.928  18.953  0.00  0.00    +0.000 A 
ATOM     30  C   UNL     1       1.402   2.617  19.423  0.00  0.00    +0.000 A 
ATOM     31  C   UNL     1       1.794   2.300  20.726  0.00  0.00    +0.000 A 
ATOM     32  C   UNL     1       2.253   3.298  21.580  0.00  0.00    +0.000 A 
ATOM     33  C   UNL     1       2.338   4.612  21.124  0.00  0.00    +0.000 A 
ENDBRANCH   8  28
TORSDOF 5
ENDMDL
MODEL 8
REMARK VINA RESULT:      -8.3      3.240      9.747
REMARK  Name = 
REMARK  6 active torsions:
REMARK  status: ('A' for Active; 'I' for Inactive)
REMARK    1  A    between atoms: C_1  and  C_2
REMARK    2  A    between atoms: C_2  and  C_3
REMARK    3  A    between atoms: C_3  and  C_4
REMARK    4  A    between atoms: C_8  and  C_9
REMARK    5  A    between atoms: C_13  and  C_15
REMARK    6  A    between atoms: N_24  and  C_25
REMARK                            x       y       z     vdW  Elec       q    Type
REMARK                         _______ _______ _______ _____ _____    ______ ____
ROOT
ATOM      1  C   UNL     1       0.192  10.346  21.595  0.00  0.00    +0.000 A 
ATOM      2  C   UNL     1       0.685   9.131  22.048  0.00  0.00    +0.000 A 
ATOM      3  C   UNL     1       1.268   8.500  20.935  0.00  0.00    +0.000 A 
ATOM      4  N   UNL     1       1.849   7.259  20.983  0.00  0.00    +0.000 N 
ATOM      5  C   UNL     1       2.427   6.630  19.896  0.00  0.00    +0.000 C 
ATOM      6  O   UNL     1       2.479   7.041  18.744  0.00  0.00    +0.000 OA
ATOM      7  N   UNL     1       1.149   9.260  19.851  0.00  0.00    +0.000 NA
ATOM      8  N   UNL     1       0.644  10.437  20.276  0.00  0.00    +0.000 N 
ATOM      9  H   UNL     1       1.878   6.809  21.888  0.00  0.00    +0.000 HD
ENDROOT
BRANCH   5  10
ATOM     10  C   UNL     1       3.045   5.281  20.219  0.00  0.00    +0.000 C 
ATOM     11  C   UNL     1       4.265   5.045  19.316  0.00  0.00    +0.000 C 
ATOM     12  N   UNL     1       3.816   4.106  18.311  0.00  0.00    +0.000 N 
ATOM     13  C   UNL     1       2.713   3.395  18.711  0.00  0.00    +0.000 C 
ATOM     14  O   UNL     1       2.236   2.416  18.171  0.00  0.00    +0.000 OA
ATOM     15  C   UNL     1       2.159   4.084  19.907  0.00  0.00    +0.000 C 
ATOM     16  C   UNL     1       1.500   3.325  21.040  0.00  0.00    +0.000 C 
ATOM     17  C   UNL     1       0.655   4.140  20.105  0.00  0.00    +0.000 C 
ATOM     18  H   UNL     1       4.407   3.725  17.581  0.00  0.00    +0.000 HD
ENDBRANCH   5  10
BRANCH   1  23
ATOM     19  C   UNL     1      -1.126  13.616  22.950  0.00  0.00    +0.000 A 
ATOM     20  C   UNL     1      -2.259  13.191  23.654  0.00  0.00    +0.000 A 
ATOM     21  C   UNL     1      -2.578  11.839  23.718  0.00  0.00    +0.000 A 
ATOM     22  C   UNL     1      -1.750  10.903  23.102  0.00  0.00    +0.000 A 
ATOM     23  C   UNL     1      -0.658  11.305  22.318  0.00  0.00    +0.000 A 
ATOM     24  C   UNL     1      -0.354  12.670  22.261  0.00  0.00    +0.000 A 
BRANCH  19  25
ATOM     25  C   UNL     1      -0.711  15.063  22.971  0.00  0.00    +0.000 C 
BRANCH  25  27
ATOM     26  C   UNL     1       0.412  16.173  20.973  0.00  0.00    +0.000 C 
ATOM     27  C   UNL     1       0.604  15.367  22.249  0.00  0.00    +0.000 C 
ENDBRANCH  25  27
ENDBRANCH  19  25
ENDBRANCH   1  23
BRANCH   8  28
ATOM     28  C   UNL     1       0.609  11.549  19.389  0.00  0.00    +0.000 A 
ATOM     29  C   UNL     1      -0.603  11.927  18.800  0.00  0.00    +0.000 A 
ATOM     30  C   UNL     1      -0.672  13.117  18.072  0.00  0.00    +0.000 A 
ATOM     31  C   UNL     1       0.463  13.915  17.916  0.00  0.00    +0.000 A 
ATOM     32  C   UNL     1       1.683  13.506  18.447  0.00  0.00    +0.000 A 
ATOM     33  C   UNL     1       1.763  12.307  19.150  0.00  0.00    +0.000 A 
ENDBRANCH   8  28
TORSDOF 5
ENDMDL
MODEL 9
REMARK VINA RESULT:      -8.2      1.390      1.609
REMARK  Name = 
REMARK  6 active torsions:
REMARK  status: ('A' for Active; 'I' for Inactive)
REMARK    1  A    between atoms: C_1  and  C_2
REMARK    2  A    between atoms: C_2  and  C_3
REMARK    3  A    between atoms: C_3  and  C_4
REMARK    4  A    between atoms: C_8  and  C_9
REMARK    5  A    between atoms: C_13  and  C_15
REMARK    6  A    between atoms: N_24  and  C_25
REMARK                            x       y       z     vdW  Elec       q    Type
REMARK                         _______ _______ _______ _____ _____    ______ ____
ROOT
ATOM      1  C   UNL     1       3.430   6.333  17.916  0.00  0.00    +0.000 A 
ATOM      2  C   UNL     1       3.441   7.710  17.747  0.00  0.00    +0.000 A 
ATOM      3  C   UNL     1       2.369   8.211  18.504  0.00  0.00    +0.000 A 
ATOM      4  N   UNL     1       2.042   9.541  18.572  0.00  0.00    +0.000 N 
ATOM      5  C   UNL     1       0.990  10.046  19.315  0.00  0.00    +0.000 C 
ATOM      6  O   UNL     1       0.181   9.411  19.979  0.00  0.00    +0.000 OA
ATOM      7  N   UNL     1       1.719   7.221  19.109  0.00  0.00    +0.000 NA
ATOM      8  N   UNL     1       2.449   6.108  18.885  0.00  0.00    +0.000 N 
ATOM      9  H   UNL     1       2.642  10.180  18.068  0.00  0.00    +0.000 HD
ENDROOT
BRANCH   5  10
ATOM     10  C   UNL     1       0.867  11.558  19.262  0.00  0.00    +0.000 C 
ATOM     11  C   UNL     1       1.273  12.154  20.619  0.00  0.00    +0.000 C 
ATOM     12  N   UNL     1       0.028  12.514  21.262  0.00  0.00    +0.000 N 
ATOM     13  C   UNL     1      -1.001  12.667  20.369  0.00  0.00    +0.000 C 
ATOM     14  O   UNL     1      -2.096  13.148  20.587  0.00  0.00    +0.000 OA
ATOM     15  C   UNL     1      -0.554  12.074  19.081  0.00  0.00    +0.000 C 
ATOM     16  C   UNL     1      -0.977  12.643  17.742  0.00  0.00    +0.000 C 
ATOM     17  C   UNL     1      -1.557  11.340  18.209  0.00  0.00    +0.000 C 
ATOM     18  H   UNL     1      -0.037  12.966  22.168  0.00  0.00    +0.000 HD
ENDBRANCH   5  10
BRANCH   1  23
ATOM     19  C   UNL     1       5.599   4.732  15.271  0.00  0.00    +0.000 A 
ATOM     20  C   UNL     1       5.802   3.456  15.810  0.00  0.00    +0.000 A 
ATOM     21  C   UNL     1       5.209   3.103  17.017  0.00  0.00    +0.000 A 
ATOM     22  C   UNL     1       4.386   4.013  17.675  0.00  0.00    +0.000 A 
ATOM     23  C   UNL     1       4.233   5.326  17.204  0.00  0.00    +0.000 A 
ATOM     24  C   UNL     1       4.841   5.666  15.991  0.00  0.00    +0.000 A 
BRANCH  19  25
ATOM     25  C   UNL     1       6.145   5.084  13.912  0.00  0.00    +0.000 C 
BRANCH  25  27
ATOM     26  C   UNL     1       5.451   3.397  12.135  0.00  0.00    +0.000 C 
ATOM     27  C   UNL     1       6.560   3.886  13.054  0.00  0.00    +0.000 C 
ENDBRANCH  25  27
ENDBRANCH  19  25
ENDBRANCH   1  23
BRANCH   8  28
ATOM     28  C   UNL     1       2.142   4.912  19.592  0.00  0.00    +0.000 A 
ATOM     29  C   UNL     1       2.642   4.726  20.887  0.00  0.00    +0.000 A 
ATOM     30  C   UNL     1       2.199   3.639  21.644  0.00  0.00    +0.000 A 
ATOM     31  C   UNL     1       1.282   2.733  21.108  0.00  0.00    +0.000 A 
ATOM     32  C   UNL     1       0.836   2.882  19.798  0.00  0.00    +0.000 A 
ATOM     33  C   UNL     1       1.295   3.949  19.030  0.00  0.00    +0.000 A 
ENDBRANCH   8  28
TORSDOF 5
ENDMDL
