MODEL 1
REMARK VINA RESULT:      -7.2      0.000      0.000
REMARK  Name = 
REMARK  7 active torsions:
REMARK  status: ('A' for Active; 'I' for Inactive)
REMARK    1  A    between atoms: C_1  and  C_2
REMARK    2  A    between atoms: C_2  and  C_3
REMARK    3  A    between atoms: C_3  and  N_4
REMARK    4  A    between atoms: C_7  and  N_8
REMARK    5  A    between atoms: N_8  and  C_9
REMARK    6  A    between atoms: C_15  and  C_16
REMARK    7  A    between atoms: C_16  and  C_17
REMARK                            x       y       z     vdW  Elec       q    Type
REMARK                         _______ _______ _______ _____ _____    ______ ____
ROOT
ATOM      1  C   UNL     1       6.669   4.416  16.793  0.00  0.00    +0.000 A 
ATOM      2  N   UNL     1       7.762   4.847  17.458  0.00  0.00    +0.000 NA
ATOM      3  C   UNL     1       7.636   5.263  18.728  0.00  0.00    +0.000 A 
ATOM      4  N   UNL     1       6.524   5.297  19.464  0.00  0.00    +0.000 NA
ATOM      5  C   UNL     1       5.454   4.866  18.782  0.00  0.00    +0.000 A 
ATOM      6  S   UNL     1       3.918   4.810  19.523  0.00  0.00    +0.000 S 
ATOM      7  C   UNL     1       3.172   4.214  18.103  0.00  0.00    +0.000 A 
ATOM      8  C   UNL     1       4.089   4.070  17.079  0.00  0.00    +0.000 A 
ATOM      9  C   UNL     1       5.429   4.430  17.469  0.00  0.00    +0.000 A 
ENDROOT
BRANCH   1  10
ATOM     10  N   UNL     1       6.779   3.983  15.470  0.00  0.00    +0.000 N 
ATOM     11  H   UNL     1       7.601   3.408  15.341  0.00  0.00    +0.000 HD
BRANCH  10  15
ATOM     12  N   UNL     1       5.700   3.433  12.044  0.00  0.00    +0.000 NA
ATOM     13  C   UNL     1       4.786   3.687  13.171  0.00  0.00    +0.000 C 
ATOM     14  C   UNL     1       5.128   4.986  13.899  0.00  0.00    +0.000 C 
ATOM     15  C   UNL     1       6.569   4.984  14.413  0.00  0.00    +0.000 C 
ATOM     16  C   UNL     1       7.502   4.682  13.234  0.00  0.00    +0.000 C 
ATOM     17  C   UNL     1       7.100   3.404  12.499  0.00  0.00    +0.000 C 
BRANCH  12  18
ATOM     18  C   UNL     1       5.377   2.161  11.368  0.00  0.00    +0.000 C 
BRANCH  18  20
ATOM     19  C   UNL     1       6.224  -0.245  11.315  0.00  0.00    +0.000 C 
ATOM     20  C   UNL     1       6.574   1.225  11.144  0.00  0.00    +0.000 C 
ENDBRANCH  18  20
ENDBRANCH  12  18
ENDBRANCH  10  15
ENDBRANCH   1  10
BRANCH   7  21
ATOM     21  C   UNL     1       1.696   3.933  18.088  0.00  0.00    +0.000 C 
BRANCH  21  22
ATOM     22  C   UNL     1       1.267   2.782  18.991  0.00  0.00    +0.000 C 
ATOM     23  F   UNL     1       0.203   2.097  18.525  0.00  0.00    +0.000 F 
ATOM     24  F   UNL     1       2.279   1.900  19.157  0.00  0.00    +0.000 F 
ATOM     25  F   UNL     1       0.936   3.246  20.220  0.00  0.00    +0.000 F 
ENDBRANCH  21  22
ENDBRANCH   7  21
TORSDOF 6
ENDMDL
MODEL 2
REMARK VINA RESULT:      -7.0      0.833      1.527
REMARK  Name = 
REMARK  7 active torsions:
REMARK  status: ('A' for Active; 'I' for Inactive)
REMARK    1  A    between atoms: C_1  and  C_2
REMARK    2  A    between atoms: C_2  and  C_3
REMARK    3  A    between atoms: C_3  and  N_4
REMARK    4  A    between atoms: C_7  and  N_8
REMARK    5  A    between atoms: N_8  and  C_9
REMARK    6  A    between atoms: C_15  and  C_16
REMARK    7  A    between atoms: C_16  and  C_17
REMARK                            x       y       z     vdW  Elec       q    Type
REMARK                         _______ _______ _______ _____ _____    ______ ____
ROOT
ATOM      1  C   UNL     1       6.742   4.422  16.871  0.00  0.00    +0.000 A 
ATOM      2  N   UNL     1       7.813   4.834  17.582  0.00  0.00    +0.000 NA
ATOM      3  C   UNL     1       7.651   5.189  18.866  0.00  0.00    +0.000 A 
ATOM      4  N   UNL     1       6.521   5.176  19.576  0.00  0.00    +0.000 NA
ATOM      5  C   UNL     1       5.473   4.766  18.848  0.00  0.00    +0.000 A 
ATOM      6  S   UNL     1       3.921   4.659  19.548  0.00  0.00    +0.000 S 
ATOM      7  C   UNL     1       3.217   4.121  18.084  0.00  0.00    +0.000 A 
ATOM      8  C   UNL     1       4.160   4.035  17.077  0.00  0.00    +0.000 A 
ATOM      9  C   UNL     1       5.485   4.391  17.516  0.00  0.00    +0.000 A 
ENDROOT
BRANCH   1  10
ATOM     10  N   UNL     1       6.888   4.051  15.532  0.00  0.00    +0.000 N 
ATOM     11  H   UNL     1       7.681   3.434  15.409  0.00  0.00    +0.000 HD
BRANCH  10  15
ATOM     12  N   UNL     1       5.515   3.837  12.175  0.00  0.00    +0.000 NA
ATOM     13  C   UNL     1       4.732   4.196  13.371  0.00  0.00    +0.000 C 
ATOM     14  C   UNL     1       5.340   5.386  14.112  0.00  0.00    +0.000 C 
ATOM     15  C   UNL     1       6.788   5.117  14.523  0.00  0.00    +0.000 C 
ATOM     16  C   UNL     1       7.578   4.709  13.274  0.00  0.00    +0.000 C 
ATOM     17  C   UNL     1       6.914   3.550  12.530  0.00  0.00    +0.000 C 
BRANCH  12  18
ATOM     18  C   UNL     1       4.933   2.668  11.485  0.00  0.00    +0.000 C 
BRANCH  18  20
ATOM     19  C   UNL     1       3.355   4.018  10.006  0.00  0.00    +0.000 C 
ATOM     20  C   UNL     1       3.496   2.862  10.984  0.00  0.00    +0.000 C 
ENDBRANCH  18  20
ENDBRANCH  12  18
ENDBRANCH  10  15
ENDBRANCH   1  10
BRANCH   7  21
ATOM     21  C   UNL     1       1.745   3.825  18.019  0.00  0.00    +0.000 C 
BRANCH  21  22
ATOM     22  C   UNL     1       1.281   2.737  18.982  0.00  0.00    +0.000 C 
ATOM     23  F   UNL     1       0.915   3.207  20.192  0.00  0.00    +0.000 F 
ATOM     24  F   UNL     1       0.225   2.062  18.471  0.00  0.00    +0.000 F 
ATOM     25  F   UNL     1       2.271   1.835  19.186  0.00  0.00    +0.000 F 
ENDBRANCH  21  22
ENDBRANCH   7  21
TORSDOF 6
ENDMDL
MODEL 3
REMARK VINA RESULT:      -7.0      3.689      6.810
REMARK  Name = 
REMARK  7 active torsions:
REMARK  status: ('A' for Active; 'I' for Inactive)
REMARK    1  A    between atoms: C_1  and  C_2
REMARK    2  A    between atoms: C_2  and  C_3
REMARK    3  A    between atoms: C_3  and  N_4
REMARK    4  A    between atoms: C_7  and  N_8
REMARK    5  A    between atoms: N_8  and  C_9
REMARK    6  A    between atoms: C_15  and  C_16
REMARK    7  A    between atoms: C_16  and  C_17
REMARK                            x       y       z     vdW  Elec       q    Type
REMARK                         _______ _______ _______ _____ _____    ______ ____
ROOT
ATOM      1  C   UNL     1       5.499   4.364  17.311  0.00  0.00    +0.000 A 
ATOM      2  N   UNL     1       6.014   5.243  18.196  0.00  0.00    +0.000 NA
ATOM      3  C   UNL     1       6.959   6.105  17.789  0.00  0.00    +0.000 A 
ATOM      4  N   UNL     1       7.476   6.226  16.565  0.00  0.00    +0.000 NA
ATOM      5  C   UNL     1       6.950   5.342  15.707  0.00  0.00    +0.000 A 
ATOM      6  S   UNL     1       7.451   5.314  14.076  0.00  0.00    +0.000 S 
ATOM      7  C   UNL     1       6.407   4.011  13.700  0.00  0.00    +0.000 A 
ATOM      8  C   UNL     1       5.695   3.603  14.812  0.00  0.00    +0.000 A 
ATOM      9  C   UNL     1       5.989   4.385  15.987  0.00  0.00    +0.000 A 
ENDROOT
BRANCH   1  10
ATOM     10  N   UNL     1       4.517   3.456  17.714  0.00  0.00    +0.000 N 
ATOM     11  H   UNL     1       4.881   2.512  17.742  0.00  0.00    +0.000 HD
BRANCH  10  15
ATOM     12  N   UNL     1       1.261   3.382  19.326  0.00  0.00    +0.000 NA
ATOM     13  C   UNL     1       2.044   4.609  19.092  0.00  0.00    +0.000 C 
ATOM     14  C   UNL     1       2.409   4.777  17.618  0.00  0.00    +0.000 C 
ATOM     15  C   UNL     1       3.191   3.574  17.088  0.00  0.00    +0.000 C 
ATOM     16  C   UNL     1       2.379   2.305  17.373  0.00  0.00    +0.000 C 
ATOM     17  C   UNL     1       1.988   2.195  18.847  0.00  0.00    +0.000 C 
BRANCH  12  18
ATOM     18  C   UNL     1       0.940   3.217  20.758  0.00  0.00    +0.000 C 
BRANCH  18  20
ATOM     19  C   UNL     1       3.152   2.277  21.613  0.00  0.00    +0.000 C 
ATOM     20  C   UNL     1       2.129   3.398  21.712  0.00  0.00    +0.000 C 
ENDBRANCH  18  20
ENDBRANCH  12  18
ENDBRANCH  10  15
ENDBRANCH   1  10
BRANCH   7  21
ATOM     21  C   UNL     1       6.367   3.455  12.304  0.00  0.00    +0.000 C 
BRANCH  21  22
ATOM     22  C   UNL     1       4.962   3.173  11.781  0.00  0.00    +0.000 C 
ATOM     23  F   UNL     1       4.003   3.290  12.721  0.00  0.00    +0.000 F 
ATOM     24  F   UNL     1       4.648   4.016  10.771  0.00  0.00    +0.000 F 
ATOM     25  F   UNL     1       4.888   1.914  11.288  0.00  0.00    +0.000 F 
ENDBRANCH  21  22
ENDBRANCH   7  21
TORSDOF 6
ENDMDL
MODEL 4
REMARK VINA RESULT:      -6.9      3.789      6.966
REMARK  Name = 
REMARK  7 active torsions:
REMARK  status: ('A' for Active; 'I' for Inactive)
REMARK    1  A    between atoms: C_1  and  C_2
REMARK    2  A    between atoms: C_2  and  C_3
REMARK    3  A    between atoms: C_3  and  N_4
REMARK    4  A    between atoms: C_7  and  N_8
REMARK    5  A    between atoms: N_8  and  C_9
REMARK    6  A    between atoms: C_15  and  C_16
REMARK    7  A    between atoms: C_16  and  C_17
REMARK                            x       y       z     vdW  Elec       q    Type
REMARK                         _______ _______ _______ _____ _____    ______ ____
ROOT
ATOM      1  C   UNL     1       5.163   4.894  16.897  0.00  0.00    +0.000 A 
ATOM      2  N   UNL     1       5.798   5.731  17.744  0.00  0.00    +0.000 NA
ATOM      3  C   UNL     1       6.939   6.321  17.350  0.00  0.00    +0.000 A 
ATOM      4  N   UNL     1       7.553   6.197  16.173  0.00  0.00    +0.000 NA
ATOM      5  C   UNL     1       6.904   5.360  15.351  0.00  0.00    +0.000 A 
ATOM      6  S   UNL     1       7.499   5.050  13.782  0.00  0.00    +0.000 S 
ATOM      7  C   UNL     1       6.219   3.970  13.430  0.00  0.00    +0.000 A 
ATOM      8  C   UNL     1       5.358   3.846  14.504  0.00  0.00    +0.000 A 
ATOM      9  C   UNL     1       5.737   4.668  15.626  0.00  0.00    +0.000 A 
ENDROOT
BRANCH   1  10
ATOM     10  N   UNL     1       3.977   4.267  17.288  0.00  0.00    +0.000 N 
ATOM     11  H   UNL     1       3.473   4.829  17.961  0.00  0.00    +0.000 HD
BRANCH  10  15
ATOM     12  N   UNL     1       2.250   2.504  19.954  0.00  0.00    +0.000 NA
ATOM     13  C   UNL     1       1.717   2.676  18.591  0.00  0.00    +0.000 C 
ATOM     14  C   UNL     1       2.685   2.154  17.531  0.00  0.00    +0.000 C 
ATOM     15  C   UNL     1       4.050   2.838  17.626  0.00  0.00    +0.000 C 
ATOM     16  C   UNL     1       4.572   2.679  19.058  0.00  0.00    +0.000 C 
ATOM     17  C   UNL     1       3.558   3.165  20.094  0.00  0.00    +0.000 C 
BRANCH  12  18
ATOM     18  C   UNL     1       1.318   3.039  20.966  0.00  0.00    +0.000 C 
BRANCH  18  20
ATOM     19  C   UNL     1       1.605   5.566  20.769  0.00  0.00    +0.000 C 
ATOM     20  C   UNL     1       0.667   4.380  20.600  0.00  0.00    +0.000 C 
ENDBRANCH  18  20
ENDBRANCH  12  18
ENDBRANCH  10  15
ENDBRANCH   1  10
BRANCH   7  21
ATOM     21  C   UNL     1       6.153   3.290  12.091  0.00  0.00    +0.000 C 
BRANCH  21  22
ATOM     22  C   UNL     1       4.741   3.119  11.543  0.00  0.00    +0.000 C 
ATOM     23  F   UNL     1       3.787   3.120  12.497  0.00  0.00    +0.000 F 
ATOM     24  F   UNL     1       4.442   4.106  10.667  0.00  0.00    +0.000 F 
ATOM     25  F   UNL     1       4.634   1.946  10.873  0.00  0.00    +0.000 F 
ENDBRANCH  21  22
ENDBRANCH   7  21
TORSDOF 6
ENDMDL
MODEL 5
REMARK VINA RESULT:      -6.8      3.656      6.721
REMARK  Name = 
REMARK  7 active torsions:
REMARK  status: ('A' for Active; 'I' for Inactive)
REMARK    1  A    between atoms: C_1  and  C_2
REMARK    2  A    between atoms: C_2  and  C_3
REMARK    3  A    between atoms: C_3  and  N_4
REMARK    4  A    between atoms: C_7  and  N_8
REMARK    5  A    between atoms: N_8  and  C_9
REMARK    6  A    between atoms: C_15  and  C_16
REMARK    7  A    between atoms: C_16  and  C_17
REMARK                            x       y       z     vdW  Elec       q    Type
REMARK                         _______ _______ _______ _____ _____    ______ ____
ROOT
ATOM      1  C   UNL     1       5.733   4.475  17.537  0.00  0.00    +0.000 A 
ATOM      2  N   UNL     1       6.192   5.470  18.326  0.00  0.00    +0.000 NA
ATOM      3  C   UNL     1       7.013   6.395  17.803  0.00  0.00    +0.000 A 
ATOM      4  N   UNL     1       7.447   6.478  16.545  0.00  0.00    +0.000 NA
ATOM      5  C   UNL     1       6.979   5.479  15.783  0.00  0.00    +0.000 A 
ATOM      6  S   UNL     1       7.394   5.382  14.131  0.00  0.00    +0.000 S 
ATOM      7  C   UNL     1       6.484   3.949  13.911  0.00  0.00    +0.000 A 
ATOM      8  C   UNL     1       5.881   3.553  15.090  0.00  0.00    +0.000 A 
ATOM      9  C   UNL     1       6.148   4.449  16.187  0.00  0.00    +0.000 A 
ENDROOT
BRANCH   1  10
ATOM     10  N   UNL     1       4.881   3.501  18.061  0.00  0.00    +0.000 N 
ATOM     11  H   UNL     1       5.403   2.786  18.552  0.00  0.00    +0.000 HD
BRANCH  10  15
ATOM     12  N   UNL     1       1.378   2.933  18.844  0.00  0.00    +0.000 NA
ATOM     13  C   UNL     1       1.915   4.196  18.304  0.00  0.00    +0.000 C 
ATOM     14  C   UNL     1       2.680   3.977  17.000  0.00  0.00    +0.000 C 
ATOM     15  C   UNL     1       3.826   2.980  17.178  0.00  0.00    +0.000 C 
ATOM     16  C   UNL     1       3.256   1.687  17.772  0.00  0.00    +0.000 C 
ATOM     17  C   UNL     1       2.454   1.950  19.048  0.00  0.00    +0.000 C 
BRANCH  12  18
ATOM     18  C   UNL     1       0.667   3.154  20.118  0.00  0.00    +0.000 C 
BRANCH  18  20
ATOM     19  C   UNL     1       2.408   3.846  21.849  0.00  0.00    +0.000 C 
ATOM     20  C   UNL     1       1.454   2.760  21.376  0.00  0.00    +0.000 C 
ENDBRANCH  18  20
ENDBRANCH  12  18
ENDBRANCH  10  15
ENDBRANCH   1  10
BRANCH   7  21
ATOM     21  C   UNL     1       6.433   3.288  12.562  0.00  0.00    +0.000 C 
BRANCH  21  22
ATOM     22  C   UNL     1       5.047   3.263  11.928  0.00  0.00    +0.000 C 
ATOM     23  F   UNL     1       4.724   2.072  11.383  0.00  0.00    +0.000 F 
ATOM     24  F   UNL     1       4.095   3.565  12.841  0.00  0.00    +0.000 F 
ATOM     25  F   UNL     1       4.963   4.189  10.942  0.00  0.00    +0.000 F 
ENDBRANCH  21  22
ENDBRANCH   7  21
TORSDOF 6
ENDMDL
MODEL 6
REMARK VINA RESULT:      -6.8      1.064      1.537
REMARK  Name = 
REMARK  7 active torsions:
REMARK  status: ('A' for Active; 'I' for Inactive)
REMARK    1  A    between atoms: C_1  and  C_2
REMARK    2  A    between atoms: C_2  and  C_3
REMARK    3  A    between atoms: C_3  and  N_4
REMARK    4  A    between atoms: C_7  and  N_8
REMARK    5  A    between atoms: N_8  and  C_9
REMARK    6  A    between atoms: C_15  and  C_16
REMARK    7  A    between atoms: C_16  and  C_17
REMARK                            x       y       z     vdW  Elec       q    Type
REMARK                         _______ _______ _______ _____ _____    ______ ____
ROOT
ATOM      1  C   UNL     1       6.938   4.582  16.960  0.00  0.00    +0.000 A 
ATOM      2  N   UNL     1       7.801   5.359  17.650  0.00  0.00    +0.000 NA
ATOM      3  C   UNL     1       7.546   5.637  18.938  0.00  0.00    +0.000 A 
ATOM      4  N   UNL     1       6.513   5.218  19.671  0.00  0.00    +0.000 NA
ATOM      5  C   UNL     1       5.671   4.452  18.964  0.00  0.00    +0.000 A 
ATOM      6  S   UNL     1       4.278   3.792  19.696  0.00  0.00    +0.000 S 
ATOM      7  C   UNL     1       3.788   3.028  18.245  0.00  0.00    +0.000 A 
ATOM      8  C   UNL     1       4.677   3.285  17.219  0.00  0.00    +0.000 A 
ATOM      9  C   UNL     1       5.792   4.100  17.631  0.00  0.00    +0.000 A 
ENDROOT
BRANCH   1  10
ATOM     10  N   UNL     1       7.181   4.284  15.618  0.00  0.00    +0.000 N 
ATOM     11  H   UNL     1       8.078   3.829  15.502  0.00  0.00    +0.000 HD
BRANCH  10  15
ATOM     12  N   UNL     1       5.675   3.942  12.329  0.00  0.00    +0.000 NA
ATOM     13  C   UNL     1       4.917   4.195  13.567  0.00  0.00    +0.000 C 
ATOM     14  C   UNL     1       5.418   5.441  14.296  0.00  0.00    +0.000 C 
ATOM     15  C   UNL     1       6.906   5.340  14.631  0.00  0.00    +0.000 C 
ATOM     16  C   UNL     1       7.675   5.041  13.339  0.00  0.00    +0.000 C 
ATOM     17  C   UNL     1       7.114   3.819  12.610  0.00  0.00    +0.000 C 
BRANCH  12  18
ATOM     18  C   UNL     1       5.200   2.720  11.650  0.00  0.00    +0.000 C 
BRANCH  18  20
ATOM     19  C   UNL     1       3.481   3.908  10.187  0.00  0.00    +0.000 C 
ATOM     20  C   UNL     1       3.744   2.773  11.166  0.00  0.00    +0.000 C 
ENDBRANCH  18  20
ENDBRANCH  12  18
ENDBRANCH  10  15
ENDBRANCH   1  10
BRANCH   7  21
ATOM     21  C   UNL     1       2.523   2.217  18.210  0.00  0.00    +0.000 C 
BRANCH  21  22
ATOM     22  C   UNL     1       1.282   2.969  18.681  0.00  0.00    +0.000 C 
ATOM     23  F   UNL     1       0.125   2.354  18.364  0.00  0.00    +0.000 F 
ATOM     24  F   UNL     1       1.302   3.135  20.023  0.00  0.00    +0.000 F 
ATOM     25  F   UNL     1       1.243   4.205  18.127  0.00  0.00    +0.000 F 
ENDBRANCH  21  22
ENDBRANCH   7  21
TORSDOF 6
ENDMDL
MODEL 7
REMARK VINA RESULT:      -6.8      3.617      4.796
REMARK  Name = 
REMARK  7 active torsions:
REMARK  status: ('A' for Active; 'I' for Inactive)
REMARK    1  A    between atoms: C_1  and  C_2
REMARK    2  A    between atoms: C_2  and  C_3
REMARK    3  A    between atoms: C_3  and  N_4
REMARK    4  A    between atoms: C_7  and  N_8
REMARK    5  A    between atoms: N_8  and  C_9
REMARK    6  A    between atoms: C_15  and  C_16
REMARK    7  A    between atoms: C_16  and  C_17
REMARK                            x       y       z     vdW  Elec       q    Type
REMARK                         _______ _______ _______ _____ _____    ______ ____
ROOT
ATOM      1  C   UNL     1       3.850   4.318  19.151  0.00  0.00    +0.000 A 
ATOM      2  N   UNL     1       3.722   3.177  19.861  0.00  0.00    +0.000 NA
ATOM      3  C   UNL     1       2.855   3.137  20.885  0.00  0.00    +0.000 A 
ATOM      4  N   UNL     1       2.053   4.115  21.310  0.00  0.00    +0.000 NA
ATOM      5  C   UNL     1       2.201   5.236  20.590  0.00  0.00    +0.000 A 
ATOM      6  S   UNL     1       1.271   6.622  20.944  0.00  0.00    +0.000 S 
ATOM      7  C   UNL     1       2.009   7.527  19.693  0.00  0.00    +0.000 A 
ATOM      8  C   UNL     1       2.957   6.777  19.024  0.00  0.00    +0.000 A 
ATOM      9  C   UNL     1       3.066   5.430  19.527  0.00  0.00    +0.000 A 
ENDROOT
BRANCH   1  10
ATOM     10  N   UNL     1       4.749   4.382  18.084  0.00  0.00    +0.000 N 
ATOM     11  H   UNL     1       5.088   3.461  17.836  0.00  0.00    +0.000 HD
BRANCH  10  15
ATOM     12  N   UNL     1       7.027   5.422  15.450  0.00  0.00    +0.000 NA
ATOM     13  C   UNL     1       5.704   6.025  15.689  0.00  0.00    +0.000 C 
ATOM     14  C   UNL     1       5.560   6.531  17.124  0.00  0.00    +0.000 C 
ATOM     15  C   UNL     1       5.795   5.415  18.143  0.00  0.00    +0.000 C 
ATOM     16  C   UNL     1       7.158   4.776  17.857  0.00  0.00    +0.000 C 
ATOM     17  C   UNL     1       7.285   4.328  16.401  0.00  0.00    +0.000 C 
BRANCH  12  18
ATOM     18  C   UNL     1       7.142   4.911  14.070  0.00  0.00    +0.000 C 
BRANCH  18  20
ATOM     19  C   UNL     1       6.228   3.385  12.241  0.00  0.00    +0.000 C 
ATOM     20  C   UNL     1       6.069   3.889  13.668  0.00  0.00    +0.000 C 
ENDBRANCH  18  20
ENDBRANCH  12  18
ENDBRANCH  10  15
ENDBRANCH   1  10
BRANCH   7  21
ATOM     21  C   UNL     1       1.603   8.955  19.456  0.00  0.00    +0.000 C 
BRANCH  21  22
ATOM     22  C   UNL     1       1.594   9.369  17.989  0.00  0.00    +0.000 C 
ATOM     23  F   UNL     1       2.077  10.610  17.775  0.00  0.00    +0.000 F 
ATOM     24  F   UNL     1       2.328   8.512  17.243  0.00  0.00    +0.000 F 
ATOM     25  F   UNL     1       0.331   9.342  17.500  0.00  0.00    +0.000 F 
ENDBRANCH  21  22
ENDBRANCH   7  21
TORSDOF 6
ENDMDL
MODEL 8
REMARK VINA RESULT:      -6.8      3.701      6.853
REMARK  Name = 
REMARK  7 active torsions:
REMARK  status: ('A' for Active; 'I' for Inactive)
REMARK    1  A    between atoms: C_1  and  C_2
REMARK    2  A    between atoms: C_2  and  C_3
REMARK    3  A    between atoms: C_3  and  N_4
REMARK    4  A    between atoms: C_7  and  N_8
REMARK    5  A    between atoms: N_8  and  C_9
REMARK    6  A    between atoms: C_15  and  C_16
REMARK    7  A    between atoms: C_16  and  C_17
REMARK                            x       y       z     vdW  Elec       q    Type
REMARK                         _______ _______ _______ _____ _____    ______ ____
ROOT
ATOM      1  C   UNL     1       5.747   4.198  17.401  0.00  0.00    +0.000 A 
ATOM      2  N   UNL     1       6.203   5.142  18.252  0.00  0.00    +0.000 NA
ATOM      3  C   UNL     1       6.995   6.119  17.784  0.00  0.00    +0.000 A 
ATOM      4  N   UNL     1       7.404   6.301  16.527  0.00  0.00    +0.000 NA
ATOM      5  C   UNL     1       6.940   5.351  15.704  0.00  0.00    +0.000 A 
ATOM      6  S   UNL     1       7.325   5.382  14.042  0.00  0.00    +0.000 S 
ATOM      7  C   UNL     1       6.438   3.951  13.734  0.00  0.00    +0.000 A 
ATOM      8  C   UNL     1       5.866   3.458  14.892  0.00  0.00    +0.000 A 
ATOM      9  C   UNL     1       6.136   4.277  16.046  0.00  0.00    +0.000 A 
ENDROOT
BRANCH   1  10
ATOM     10  N   UNL     1       4.924   3.170  17.869  0.00  0.00    +0.000 N 
ATOM     11  H   UNL     1       5.450   2.317  18.010  0.00  0.00    +0.000 HD
BRANCH  10  15
ATOM     12  N   UNL     1       1.593   3.803  19.174  0.00  0.00    +0.000 NA
ATOM     13  C   UNL     1       2.403   4.798  18.450  0.00  0.00    +0.000 C 
ATOM     14  C   UNL     1       2.843   4.284  17.080  0.00  0.00    +0.000 C 
ATOM     15  C   UNL     1       3.633   2.980  17.191  0.00  0.00    +0.000 C 
ATOM     16  C   UNL     1       2.790   1.969  17.978  0.00  0.00    +0.000 C 
ATOM     17  C   UNL     1       2.325   2.534  19.321  0.00  0.00    +0.000 C 
BRANCH  12  18
ATOM     18  C   UNL     1       1.200   4.300  20.508  0.00  0.00    +0.000 C 
BRANCH  18  20
ATOM     19  C   UNL     1       1.253   6.818  20.907  0.00  0.00    +0.000 C 
ATOM     20  C   UNL     1       2.008   5.502  21.014  0.00  0.00    +0.000 C 
ENDBRANCH  18  20
ENDBRANCH  12  18
ENDBRANCH  10  15
ENDBRANCH   1  10
BRANCH   7  21
ATOM     21  C   UNL     1       6.374   3.388  12.342  0.00  0.00    +0.000 C 
BRANCH  21  22
ATOM     22  C   UNL     1       4.958   3.198  11.807  0.00  0.00    +0.000 C 
ATOM     23  F   UNL     1       4.627   4.071  10.834  0.00  0.00    +0.000 F 
ATOM     24  F   UNL     1       4.798   1.951  11.308  0.00  0.00    +0.000 F 
ATOM     25  F   UNL     1       4.054   3.348  12.804  0.00  0.00    +0.000 F 
ENDBRANCH  21  22
ENDBRANCH   7  21
TORSDOF 6
ENDMDL
MODEL 9
REMARK VINA RESULT:      -6.7      5.502      8.601
REMARK  Name = 
REMARK  7 active torsions:
REMARK  status: ('A' for Active; 'I' for Inactive)
REMARK    1  A    between atoms: C_1  and  C_2
REMARK    2  A    between atoms: C_2  and  C_3
REMARK    3  A    between atoms: C_3  and  N_4
REMARK    4  A    between atoms: C_7  and  N_8
REMARK    5  A    between atoms: N_8  and  C_9
REMARK    6  A    between atoms: C_15  and  C_16
REMARK    7  A    between atoms: C_16  and  C_17
REMARK                            x       y       z     vdW  Elec       q    Type
REMARK                         _______ _______ _______ _____ _____    ______ ____
ROOT
ATOM      1  C   UNL     1       2.444   7.964  18.463  0.00  0.00    +0.000 A 
ATOM      2  N   UNL     1       3.169   8.294  17.373  0.00  0.00    +0.000 NA
ATOM      3  C   UNL     1       4.093   7.435  16.916  0.00  0.00    +0.000 A 
ATOM      4  N   UNL     1       4.400   6.233  17.408  0.00  0.00    +0.000 NA
ATOM      5  C   UNL     1       3.669   5.930  18.490  0.00  0.00    +0.000 A 
ATOM      6  S   UNL     1       3.879   4.437  19.287  0.00  0.00    +0.000 S 
ATOM      7  C   UNL     1       2.690   4.811  20.460  0.00  0.00    +0.000 A 
ATOM      8  C   UNL     1       2.150   6.064  20.243  0.00  0.00    +0.000 A 
ATOM      9  C   UNL     1       2.700   6.721  19.084  0.00  0.00    +0.000 A 
ENDROOT
BRANCH   1  10
ATOM     10  N   UNL     1       1.479   8.845  18.958  0.00  0.00    +0.000 N 
ATOM     11  H   UNL     1       0.691   8.342  19.345  0.00  0.00    +0.000 HD
BRANCH  10  15
ATOM     12  N   UNL     1      -0.695  11.638  19.776  0.00  0.00    +0.000 NA
ATOM     13  C   UNL     1       0.761  11.625  20.003  0.00  0.00    +0.000 C 
ATOM     14  C   UNL     1       1.533  11.322  18.720  0.00  0.00    +0.000 C 
ATOM     15  C   UNL     1       1.110   9.987  18.107  0.00  0.00    +0.000 C 
ATOM     16  C   UNL     1      -0.411  10.004  17.912  0.00  0.00    +0.000 C 
ATOM     17  C   UNL     1      -1.149  10.361  19.203  0.00  0.00    +0.000 C 
BRANCH  12  18
ATOM     18  C   UNL     1      -1.431  11.903  21.029  0.00  0.00    +0.000 C 
BRANCH  18  20
ATOM     19  C   UNL     1      -0.993  10.514  23.122  0.00  0.00    +0.000 C 
ATOM     20  C   UNL     1      -0.603  11.740  22.311  0.00  0.00    +0.000 C 
ENDBRANCH  18  20
ENDBRANCH  12  18
ENDBRANCH  10  15
ENDBRANCH   1  10
BRANCH   7  21
ATOM     21  C   UNL     1       2.369   3.826  21.549  0.00  0.00    +0.000 C 
BRANCH  21  22
ATOM     22  C   UNL     1       1.293   2.810  21.179  0.00  0.00    +0.000 C 
ATOM     23  F   UNL     1       0.279   3.335  20.462  0.00  0.00    +0.000 F 
ATOM     24  F   UNL     1       1.820   1.794  20.458  0.00  0.00    +0.000 F 
ATOM     25  F   UNL     1       0.753   2.268  22.297  0.00  0.00    +0.000 F 
ENDBRANCH  21  22
ENDBRANCH   7  21
TORSDOF 6
ENDMDL
