MODEL 1
REMARK VINA RESULT:      -8.4      0.000      0.000
REMARK  Name = 
REMARK  4 active torsions:
REMARK  status: ('A' for Active; 'I' for Inactive)
REMARK    1  A    between atoms: C_2  and  C_17
REMARK    2  A    between atoms: N_3  and  N_4
REMARK    3  A    between atoms: C_5  and  C_6
REMARK    4  A    between atoms: C_20  and  O_21
REMARK                            x       y       z     vdW  Elec       q    Type
REMARK                         _______ _______ _______ _____ _____    ______ ____
ROOT
ATOM      1  N   UNL     1       8.251   8.670  18.312  0.00  0.00    +0.000 NA
ATOM      2  C   UNL     1       7.633   7.946  17.437  0.00  0.00    +0.000 C 
ENDROOT
BRANCH   2   3
ATOM      3  C   UNL     1       6.869   6.730  17.811  0.00  0.00    +0.000 A 
ATOM      4  C   UNL     1       7.198   6.057  18.921  0.00  0.00    +0.000 A 
ATOM      5  O   UNL     1       6.585   4.921  19.397  0.00  0.00    +0.000 OA
ATOM      6  C   UNL     1       5.520   4.428  18.687  0.00  0.00    +0.000 A 
ATOM      7  C   UNL     1       4.897   3.286  19.189  0.00  0.00    +0.000 A 
ATOM      8  C   UNL     1       3.805   2.739  18.514  0.00  0.00    +0.000 A 
ATOM      9  C   UNL     1       3.336   3.334  17.341  0.00  0.00    +0.000 A 
ATOM     10  C   UNL     1       3.961   4.476  16.836  0.00  0.00    +0.000 A 
ATOM     11  C   UNL     1       5.057   5.021  17.512  0.00  0.00    +0.000 A 
ATOM     12  C   UNL     1       5.742   6.226  17.002  0.00  0.00    +0.000 A 
ATOM     13  O   UNL     1       5.394   6.778  15.965  0.00  0.00    +0.000 OA
ENDBRANCH   2   3
BRANCH   1  16
ATOM     14  O   UNL     1       9.276  10.533  20.030  0.00  0.00    +0.000 OA
ATOM     15  C   UNL     1       9.394  10.672  18.815  0.00  0.00    +0.000 C 
ATOM     16  N   UNL     1       8.921   9.771  17.868  0.00  0.00    +0.000 N 
ATOM     17  H   UNL     1       9.140   9.866  16.883  0.00  0.00    +0.000 HD
BRANCH  15  18
ATOM     18  C   UNL     1      10.121  11.867  18.306  0.00  0.00    +0.000 A 
ATOM     19  C   UNL     1       9.418  13.080  18.242  0.00  0.00    +0.000 A 
ATOM     20  C   UNL     1      10.020  14.226  17.719  0.00  0.00    +0.000 A 
ATOM     21  C   UNL     1      11.326  14.150  17.250  0.00  0.00    +0.000 A 
ATOM     22  C   UNL     1      12.039  12.955  17.305  0.00  0.00    +0.000 A 
ATOM     23  C   UNL     1      11.437  11.805  17.832  0.00  0.00    +0.000 A 
BRANCH  21  24
ATOM     24  O   UNL     1      11.947  15.236  16.708  0.00  0.00    +0.000 OA
ATOM     25  H   UNL     1      12.117  15.882  17.414  0.00  0.00    +0.000 HD
ENDBRANCH  21  24
ENDBRANCH  15  18
ENDBRANCH   1  16
TORSDOF 4
ENDMDL
MODEL 2
REMARK VINA RESULT:      -8.2      0.426      1.087
REMARK  Name = 
REMARK  4 active torsions:
REMARK  status: ('A' for Active; 'I' for Inactive)
REMARK    1  A    between atoms: C_2  and  C_17
REMARK    2  A    between atoms: N_3  and  N_4
REMARK    3  A    between atoms: C_5  and  C_6
REMARK    4  A    between atoms: C_20  and  O_21
REMARK                            x       y       z     vdW  Elec       q    Type
REMARK                         _______ _______ _______ _____ _____    ______ ____
ROOT
ATOM      1  N   UNL     1       8.036   8.352  18.185  0.00  0.00    +0.000 NA
ATOM      2  C   UNL     1       7.242   7.713  17.391  0.00  0.00    +0.000 C 
ENDROOT
BRANCH   2   3
ATOM      3  C   UNL     1       6.522   6.484  17.808  0.00  0.00    +0.000 A 
ATOM      4  C   UNL     1       6.930   5.815  18.895  0.00  0.00    +0.000 A 
ATOM      5  O   UNL     1       6.367   4.669  19.405  0.00  0.00    +0.000 OA
ATOM      6  C   UNL     1       5.269   4.159  18.760  0.00  0.00    +0.000 A 
ATOM      7  C   UNL     1       4.697   3.005  19.296  0.00  0.00    +0.000 A 
ATOM      8  C   UNL     1       3.575   2.439  18.688  0.00  0.00    +0.000 A 
ATOM      9  C   UNL     1       3.026   3.027  17.547  0.00  0.00    +0.000 A 
ATOM     10  C   UNL     1       3.599   4.181  17.007  0.00  0.00    +0.000 A 
ATOM     11  C   UNL     1       4.725   4.744  17.617  0.00  0.00    +0.000 A 
ATOM     12  C   UNL     1       5.357   5.961  17.068  0.00  0.00    +0.000 A 
ATOM     13  O   UNL     1       4.937   6.508  16.055  0.00  0.00    +0.000 OA
ENDBRANCH   2   3
BRANCH   1  16
ATOM     14  O   UNL     1       9.188  10.192  19.847  0.00  0.00    +0.000 OA
ATOM     15  C   UNL     1       9.191  10.360  18.630  0.00  0.00    +0.000 C 
ATOM     16  N   UNL     1       8.646   9.475  17.709  0.00  0.00    +0.000 N 
ATOM     17  H   UNL     1       8.771   9.596  16.710  0.00  0.00    +0.000 HD
BRANCH  15  18
ATOM     18  C   UNL     1       9.850  11.579  18.085  0.00  0.00    +0.000 A 
ATOM     19  C   UNL     1      11.241  11.541  17.898  0.00  0.00    +0.000 A 
ATOM     20  C   UNL     1      11.930  12.668  17.448  0.00  0.00    +0.000 A 
ATOM     21  C   UNL     1      11.224  13.838  17.196  0.00  0.00    +0.000 A 
ATOM     22  C   UNL     1       9.844  13.894  17.376  0.00  0.00    +0.000 A 
ATOM     23  C   UNL     1       9.150  12.764  17.825  0.00  0.00    +0.000 A 
BRANCH  21  24
ATOM     24  O   UNL     1      11.857  14.971  16.779  0.00  0.00    +0.000 OA
ATOM     25  H   UNL     1      12.757  14.738  16.493  0.00  0.00    +0.000 HD
ENDBRANCH  21  24
ENDBRANCH  15  18
ENDBRANCH   1  16
TORSDOF 4
ENDMDL
MODEL 3
REMARK VINA RESULT:      -7.7      7.367     10.694
REMARK  Name = 
REMARK  4 active torsions:
REMARK  status: ('A' for Active; 'I' for Inactive)
REMARK    1  A    between atoms: C_2  and  C_17
REMARK    2  A    between atoms: N_3  and  N_4
REMARK    3  A    between atoms: C_5  and  C_6
REMARK    4  A    between atoms: C_20  and  O_21
REMARK                            x       y       z     vdW  Elec       q    Type
REMARK                         _______ _______ _______ _____ _____    ______ ____
ROOT
ATOM      1  N   UNL     1       1.724   7.745  20.601  0.00  0.00    +0.000 NA
ATOM      2  C   UNL     1       0.678   7.905  21.344  0.00  0.00    +0.000 C 
ENDROOT
BRANCH   2   3
ATOM      3  C   UNL     1       0.133   9.246  21.669  0.00  0.00    +0.000 A 
ATOM      4  C   UNL     1       0.024   9.625  22.949  0.00  0.00    +0.000 A 
ATOM      5  O   UNL     1      -0.457  10.830  23.404  0.00  0.00    +0.000 OA
ATOM      6  C   UNL     1      -0.851  11.752  22.467  0.00  0.00    +0.000 A 
ATOM      7  C   UNL     1      -1.321  12.977  22.941  0.00  0.00    +0.000 A 
ATOM      8  C   UNL     1      -1.732  13.958  22.037  0.00  0.00    +0.000 A 
ATOM      9  C   UNL     1      -1.671  13.716  20.664  0.00  0.00    +0.000 A 
ATOM     10  C   UNL     1      -1.203  12.489  20.189  0.00  0.00    +0.000 A 
ATOM     11  C   UNL     1      -0.794  11.505  21.096  0.00  0.00    +0.000 A 
ATOM     12  C   UNL     1      -0.298  10.197  20.624  0.00  0.00    +0.000 A 
ATOM     13  O   UNL     1      -0.245   9.915  19.433  0.00  0.00    +0.000 OA
ENDBRANCH   2   3
BRANCH   1  16
ATOM     14  O   UNL     1       2.421   6.903  18.096  0.00  0.00    +0.000 OA
ATOM     15  C   UNL     1       2.462   6.129  19.049  0.00  0.00    +0.000 C 
ATOM     16  N   UNL     1       2.143   6.471  20.358  0.00  0.00    +0.000 N 
ATOM     17  H   UNL     1       2.301   5.834  21.131  0.00  0.00    +0.000 HD
BRANCH  15  18
ATOM     18  C   UNL     1       2.916   4.732  18.808  0.00  0.00    +0.000 A 
ATOM     19  C   UNL     1       2.160   3.944  17.925  0.00  0.00    +0.000 A 
ATOM     20  C   UNL     1       2.494   2.608  17.700  0.00  0.00    +0.000 A 
ATOM     21  C   UNL     1       3.582   2.059  18.369  0.00  0.00    +0.000 A 
ATOM     22  C   UNL     1       4.343   2.826  19.248  0.00  0.00    +0.000 A 
ATOM     23  C   UNL     1       4.011   4.167  19.474  0.00  0.00    +0.000 A 
BRANCH  21  24
ATOM     24  O   UNL     1       3.931   0.753  18.200  0.00  0.00    +0.000 OA
ATOM     25  H   UNL     1       3.139   0.248  17.950  0.00  0.00    +0.000 HD
ENDBRANCH  21  24
ENDBRANCH  15  18
ENDBRANCH   1  16
TORSDOF 4
ENDMDL
MODEL 4
REMARK VINA RESULT:      -7.7      1.503      1.790
REMARK  Name = 
REMARK  4 active torsions:
REMARK  status: ('A' for Active; 'I' for Inactive)
REMARK    1  A    between atoms: C_2  and  C_17
REMARK    2  A    between atoms: N_3  and  N_4
REMARK    3  A    between atoms: C_5  and  C_6
REMARK    4  A    between atoms: C_20  and  O_21
REMARK                            x       y       z     vdW  Elec       q    Type
REMARK                         _______ _______ _______ _____ _____    ______ ____
ROOT
ATOM      1  N   UNL     1       7.395   7.776  17.290  0.00  0.00    +0.000 NA
ATOM      2  C   UNL     1       6.105   7.697  17.321  0.00  0.00    +0.000 C 
ENDROOT
BRANCH   2   3
ATOM      3  C   UNL     1       5.392   6.399  17.419  0.00  0.00    +0.000 A 
ATOM      4  C   UNL     1       6.079   5.255  17.298  0.00  0.00    +0.000 A 
ATOM      5  O   UNL     1       5.562   3.983  17.368  0.00  0.00    +0.000 OA
ATOM      6  C   UNL     1       4.216   3.856  17.603  0.00  0.00    +0.000 A 
ATOM      7  C   UNL     1       3.707   2.560  17.689  0.00  0.00    +0.000 A 
ATOM      8  C   UNL     1       2.346   2.364  17.930  0.00  0.00    +0.000 A 
ATOM      9  C   UNL     1       1.497   3.462  18.089  0.00  0.00    +0.000 A 
ATOM     10  C   UNL     1       2.006   4.759  18.000  0.00  0.00    +0.000 A 
ATOM     11  C   UNL     1       3.369   4.954  17.755  0.00  0.00    +0.000 A 
ATOM     12  C   UNL     1       3.936   6.313  17.652  0.00  0.00    +0.000 A 
ATOM     13  O   UNL     1       3.239   7.315  17.755  0.00  0.00    +0.000 OA
ENDBRANCH   2   3
BRANCH   1  16
ATOM     14  O   UNL     1       8.910   8.825  19.309  0.00  0.00    +0.000 OA
ATOM     15  C   UNL     1       8.697   9.472  18.287  0.00  0.00    +0.000 C 
ATOM     16  N   UNL     1       7.955   9.016  17.204  0.00  0.00    +0.000 N 
ATOM     17  H   UNL     1       7.900   9.536  16.336  0.00  0.00    +0.000 HD
BRANCH  15  18
ATOM     18  C   UNL     1       9.296  10.830  18.170  0.00  0.00    +0.000 A 
ATOM     19  C   UNL     1       8.452  11.886  17.793  0.00  0.00    +0.000 A 
ATOM     20  C   UNL     1       8.961  13.172  17.606  0.00  0.00    +0.000 A 
ATOM     21  C   UNL     1      10.321  13.396  17.789  0.00  0.00    +0.000 A 
ATOM     22  C   UNL     1      11.173  12.361  18.163  0.00  0.00    +0.000 A 
ATOM     23  C   UNL     1      10.664  11.069  18.353  0.00  0.00    +0.000 A 
BRANCH  21  24
ATOM     24  O   UNL     1      10.867  14.630  17.595  0.00  0.00    +0.000 OA
ATOM     25  H   UNL     1      10.158  15.250  17.355  0.00  0.00    +0.000 HD
ENDBRANCH  21  24
ENDBRANCH  15  18
ENDBRANCH   1  16
TORSDOF 4
ENDMDL
MODEL 5
REMARK VINA RESULT:      -7.7      1.565      2.113
REMARK  Name = 
REMARK  4 active torsions:
REMARK  status: ('A' for Active; 'I' for Inactive)
REMARK    1  A    between atoms: C_2  and  C_17
REMARK    2  A    between atoms: N_3  and  N_4
REMARK    3  A    between atoms: C_5  and  C_6
REMARK    4  A    between atoms: C_20  and  O_21
REMARK                            x       y       z     vdW  Elec       q    Type
REMARK                         _______ _______ _______ _____ _____    ______ ____
ROOT
ATOM      1  N   UNL     1       7.267   7.770  17.373  0.00  0.00    +0.000 NA
ATOM      2  C   UNL     1       5.982   7.664  17.280  0.00  0.00    +0.000 C 
ENDROOT
BRANCH   2   3
ATOM      3  C   UNL     1       5.284   6.357  17.375  0.00  0.00    +0.000 A 
ATOM      4  C   UNL     1       5.973   5.224  17.184  0.00  0.00    +0.000 A 
ATOM      5  O   UNL     1       5.470   3.945  17.242  0.00  0.00    +0.000 OA
ATOM      6  C   UNL     1       4.139   3.799  17.541  0.00  0.00    +0.000 A 
ATOM      7  C   UNL     1       3.644   2.497  17.614  0.00  0.00    +0.000 A 
ATOM      8  C   UNL     1       2.299   2.281  17.919  0.00  0.00    +0.000 A 
ATOM      9  C   UNL     1       1.452   3.366  18.153  0.00  0.00    +0.000 A 
ATOM     10  C   UNL     1       1.945   4.670  18.078  0.00  0.00    +0.000 A 
ATOM     11  C   UNL     1       3.293   4.884  17.769  0.00  0.00    +0.000 A 
ATOM     12  C   UNL     1       3.843   6.251  17.679  0.00  0.00    +0.000 A 
ATOM     13  O   UNL     1       3.145   7.243  17.848  0.00  0.00    +0.000 OA
ENDBRANCH   2   3
BRANCH   1  16
ATOM     14  O   UNL     1       8.931   8.774  19.295  0.00  0.00    +0.000 OA
ATOM     15  C   UNL     1       8.634   9.447  18.311  0.00  0.00    +0.000 C 
ATOM     16  N   UNL     1       7.811   9.016  17.278  0.00  0.00    +0.000 N 
ATOM     17  H   UNL     1       7.685   9.559  16.432  0.00  0.00    +0.000 HD
BRANCH  15  18
ATOM     18  C   UNL     1       9.216  10.812  18.186  0.00  0.00    +0.000 A 
ATOM     19  C   UNL     1      10.531  11.004  18.636  0.00  0.00    +0.000 A 
ATOM     20  C   UNL     1      11.117  12.271  18.604  0.00  0.00    +0.000 A 
ATOM     21  C   UNL     1      10.377  13.348  18.128  0.00  0.00    +0.000 A 
ATOM     22  C   UNL     1       9.071  13.175  17.677  0.00  0.00    +0.000 A 
ATOM     23  C   UNL     1       8.482  11.905  17.707  0.00  0.00    +0.000 A 
BRANCH  21  24
ATOM     24  O   UNL     1      10.898  14.607  18.100  0.00  0.00    +0.000 OA
ATOM     25  H   UNL     1      10.227  15.215  17.748  0.00  0.00    +0.000 HD
ENDBRANCH  21  24
ENDBRANCH  15  18
ENDBRANCH   1  16
TORSDOF 4
ENDMDL
MODEL 6
REMARK VINA RESULT:      -7.6      7.856     10.924
REMARK  Name = 
REMARK  4 active torsions:
REMARK  status: ('A' for Active; 'I' for Inactive)
REMARK    1  A    between atoms: C_2  and  C_17
REMARK    2  A    between atoms: N_3  and  N_4
REMARK    3  A    between atoms: C_5  and  C_6
REMARK    4  A    between atoms: C_20  and  O_21
REMARK                            x       y       z     vdW  Elec       q    Type
REMARK                         _______ _______ _______ _____ _____    ______ ____
ROOT
ATOM      1  N   UNL     1       1.458   8.398  20.474  0.00  0.00    +0.000 NA
ATOM      2  C   UNL     1       0.473   8.670  21.266  0.00  0.00    +0.000 C 
ENDROOT
BRANCH   2   3
ATOM      3  C   UNL     1      -0.269   9.954  21.200  0.00  0.00    +0.000 A 
ATOM      4  C   UNL     1      -0.674  10.423  20.012  0.00  0.00    +0.000 A 
ATOM      5  O   UNL     1      -1.369  11.589  19.791  0.00  0.00    +0.000 OA
ATOM      6  C   UNL     1      -1.702  12.347  20.884  0.00  0.00    +0.000 A 
ATOM      7  C   UNL     1      -2.421  13.519  20.649  0.00  0.00    +0.000 A 
ATOM      8  C   UNL     1      -2.794  14.332  21.720  0.00  0.00    +0.000 A 
ATOM      9  C   UNL     1      -2.451  13.972  23.025  0.00  0.00    +0.000 A 
ATOM     10  C   UNL     1      -1.729  12.800  23.262  0.00  0.00    +0.000 A 
ATOM     11  C   UNL     1      -1.353  11.989  22.186  0.00  0.00    +0.000 A 
ATOM     12  C   UNL     1      -0.586  10.746  22.404  0.00  0.00    +0.000 A 
ATOM     13  O   UNL     1      -0.233  10.391  23.522  0.00  0.00    +0.000 OA
ENDBRANCH   2   3
BRANCH   1  16
ATOM     14  O   UNL     1       2.372   6.984  18.321  0.00  0.00    +0.000 OA
ATOM     15  C   UNL     1       2.489   6.536  19.459  0.00  0.00    +0.000 C 
ATOM     16  N   UNL     1       2.071   7.189  20.612  0.00  0.00    +0.000 N 
ATOM     17  H   UNL     1       2.290   6.836  21.537  0.00  0.00    +0.000 HD
BRANCH  15  18
ATOM     18  C   UNL     1       3.154   5.216  19.635  0.00  0.00    +0.000 A 
ATOM     19  C   UNL     1       4.425   5.044  19.064  0.00  0.00    +0.000 A 
ATOM     20  C   UNL     1       5.079   3.813  19.139  0.00  0.00    +0.000 A 
ATOM     21  C   UNL     1       4.452   2.750  19.779  0.00  0.00    +0.000 A 
ATOM     22  C   UNL     1       3.192   2.903  20.351  0.00  0.00    +0.000 A 
ATOM     23  C   UNL     1       2.534   4.137  20.279  0.00  0.00    +0.000 A 
BRANCH  21  24
ATOM     24  O   UNL     1       5.041   1.524  19.855  0.00  0.00    +0.000 OA
ATOM     25  H   UNL     1       4.413   0.900  20.256  0.00  0.00    +0.000 HD
ENDBRANCH  21  24
ENDBRANCH  15  18
ENDBRANCH   1  16
TORSDOF 4
ENDMDL
MODEL 7
REMARK VINA RESULT:      -7.5      1.784      9.391
REMARK  Name = 
REMARK  4 active torsions:
REMARK  status: ('A' for Active; 'I' for Inactive)
REMARK    1  A    between atoms: C_2  and  C_17
REMARK    2  A    between atoms: N_3  and  N_4
REMARK    3  A    between atoms: C_5  and  C_6
REMARK    4  A    between atoms: C_20  and  O_21
REMARK                            x       y       z     vdW  Elec       q    Type
REMARK                         _______ _______ _______ _____ _____    ______ ____
ROOT
ATOM      1  N   UNL     1       8.330   8.678  17.699  0.00  0.00    +0.000 NA
ATOM      2  C   UNL     1       8.018   9.884  18.045  0.00  0.00    +0.000 C 
ENDROOT
BRANCH   2   3
ATOM      3  C   UNL     1       9.044  10.912  18.350  0.00  0.00    +0.000 A 
ATOM      4  C   UNL     1      10.097  10.590  19.112  0.00  0.00    +0.000 A 
ATOM      5  O   UNL     1      11.125  11.428  19.477  0.00  0.00    +0.000 OA
ATOM      6  C   UNL     1      11.091  12.717  19.008  0.00  0.00    +0.000 A 
ATOM      7  C   UNL     1      12.148  13.552  19.372  0.00  0.00    +0.000 A 
ATOM      8  C   UNL     1      12.173  14.873  18.923  0.00  0.00    +0.000 A 
ATOM      9  C   UNL     1      11.146  15.358  18.111  0.00  0.00    +0.000 A 
ATOM     10  C   UNL     1      10.087  14.523  17.748  0.00  0.00    +0.000 A 
ATOM     11  C   UNL     1      10.061  13.200  18.202  0.00  0.00    +0.000 A 
ATOM     12  C   UNL     1       8.953  12.294  17.839  0.00  0.00    +0.000 A 
ATOM     13  O   UNL     1       8.010  12.668  17.152  0.00  0.00    +0.000 OA
ENDBRANCH   2   3
BRANCH   1  16
ATOM     14  O   UNL     1       8.086   6.290  19.008  0.00  0.00    +0.000 OA
ATOM     15  C   UNL     1       7.279   6.612  18.140  0.00  0.00    +0.000 C 
ATOM     16  N   UNL     1       7.313   7.809  17.434  0.00  0.00    +0.000 N 
ATOM     17  H   UNL     1       6.564   8.083  16.809  0.00  0.00    +0.000 HD
BRANCH  15  18
ATOM     18  C   UNL     1       6.162   5.678  17.832  0.00  0.00    +0.000 A 
ATOM     19  C   UNL     1       5.421   5.169  18.910  0.00  0.00    +0.000 A 
ATOM     20  C   UNL     1       4.399   4.243  18.697  0.00  0.00    +0.000 A 
ATOM     21  C   UNL     1       4.126   3.820  17.401  0.00  0.00    +0.000 A 
ATOM     22  C   UNL     1       4.850   4.315  16.320  0.00  0.00    +0.000 A 
ATOM     23  C   UNL     1       5.875   5.246  16.530  0.00  0.00    +0.000 A 
BRANCH  21  24
ATOM     24  O   UNL     1       3.154   2.899  17.147  0.00  0.00    +0.000 OA
ATOM     25  H   UNL     1       2.904   2.959  16.210  0.00  0.00    +0.000 HD
ENDBRANCH  21  24
ENDBRANCH  15  18
ENDBRANCH   1  16
TORSDOF 4
ENDMDL
MODEL 8
REMARK VINA RESULT:      -7.4      7.616     10.766
REMARK  Name = 
REMARK  4 active torsions:
REMARK  status: ('A' for Active; 'I' for Inactive)
REMARK    1  A    between atoms: C_2  and  C_17
REMARK    2  A    between atoms: N_3  and  N_4
REMARK    3  A    between atoms: C_5  and  C_6
REMARK    4  A    between atoms: C_20  and  O_21
REMARK                            x       y       z     vdW  Elec       q    Type
REMARK                         _______ _______ _______ _____ _____    ______ ____
ROOT
ATOM      1  N   UNL     1       1.520   7.923  21.167  0.00  0.00    +0.000 NA
ATOM      2  C   UNL     1       0.267   8.242  21.154  0.00  0.00    +0.000 C 
ENDROOT
BRANCH   2   3
ATOM      3  C   UNL     1      -0.216   9.577  21.585  0.00  0.00    +0.000 A 
ATOM      4  C   UNL     1      -0.355   9.841  22.891  0.00  0.00    +0.000 A 
ATOM      5  O   UNL     1      -0.787  11.025  23.441  0.00  0.00    +0.000 OA
ATOM      6  C   UNL     1      -1.092  12.051  22.583  0.00  0.00    +0.000 A 
ATOM      7  C   UNL     1      -1.513  13.252  23.153  0.00  0.00    +0.000 A 
ATOM      8  C   UNL     1      -1.834  14.335  22.334  0.00  0.00    +0.000 A 
ATOM      9  C   UNL     1      -1.731  14.218  20.946  0.00  0.00    +0.000 A 
ATOM     10  C   UNL     1      -1.312  13.015  20.373  0.00  0.00    +0.000 A 
ATOM     11  C   UNL     1      -0.994  11.930  21.197  0.00  0.00    +0.000 A 
ATOM     12  C   UNL     1      -0.552  10.644  20.621  0.00  0.00    +0.000 A 
ATOM     13  O   UNL     1      -0.468  10.471  19.411  0.00  0.00    +0.000 OA
ENDBRANCH   2   3
BRANCH   1  16
ATOM     14  O   UNL     1       2.619   7.473  18.705  0.00  0.00    +0.000 OA
ATOM     15  C   UNL     1       2.402   6.539  19.473  0.00  0.00    +0.000 C 
ATOM     16  N   UNL     1       1.864   6.672  20.747  0.00  0.00    +0.000 N 
ATOM     17  H   UNL     1       1.809   5.891  21.390  0.00  0.00    +0.000 HD
BRANCH  15  18
ATOM     18  C   UNL     1       2.768   5.164  19.036  0.00  0.00    +0.000 A 
ATOM     19  C   UNL     1       3.854   4.543  19.673  0.00  0.00    +0.000 A 
ATOM     20  C   UNL     1       4.288   3.279  19.271  0.00  0.00    +0.000 A 
ATOM     21  C   UNL     1       3.637   2.641  18.221  0.00  0.00    +0.000 A 
ATOM     22  C   UNL     1       2.558   3.242  17.578  0.00  0.00    +0.000 A 
ATOM     23  C   UNL     1       2.119   4.509  17.981  0.00  0.00    +0.000 A 
BRANCH  21  24
ATOM     24  O   UNL     1       4.040   1.417  17.778  0.00  0.00    +0.000 OA
ATOM     25  H   UNL     1       3.278   0.961  17.384  0.00  0.00    +0.000 HD
ENDBRANCH  21  24
ENDBRANCH  15  18
ENDBRANCH   1  16
TORSDOF 4
ENDMDL
MODEL 9
REMARK VINA RESULT:      -7.4      1.787      9.388
REMARK  Name = 
REMARK  4 active torsions:
REMARK  status: ('A' for Active; 'I' for Inactive)
REMARK    1  A    between atoms: C_2  and  C_17
REMARK    2  A    between atoms: N_3  and  N_4
REMARK    3  A    between atoms: C_5  and  C_6
REMARK    4  A    between atoms: C_20  and  O_21
REMARK                            x       y       z     vdW  Elec       q    Type
REMARK                         _______ _______ _______ _____ _____    ______ ____
ROOT
ATOM      1  N   UNL     1       8.335   8.563  17.949  0.00  0.00    +0.000 NA
ATOM      2  C   UNL     1       8.034   9.819  18.013  0.00  0.00    +0.000 C 
ENDROOT
BRANCH   2   3
ATOM      3  C   UNL     1       9.045  10.863  18.311  0.00  0.00    +0.000 A 
ATOM      4  C   UNL     1      10.121  10.552  19.045  0.00  0.00    +0.000 A 
ATOM      5  O   UNL     1      11.140  11.406  19.399  0.00  0.00    +0.000 OA
ATOM      6  C   UNL     1      11.070  12.700  18.950  0.00  0.00    +0.000 A 
ATOM      7  C   UNL     1      12.117  13.551  19.303  0.00  0.00    +0.000 A 
ATOM      8  C   UNL     1      12.106  14.879  18.873  0.00  0.00    +0.000 A 
ATOM      9  C   UNL     1      11.051  15.354  18.090  0.00  0.00    +0.000 A 
ATOM     10  C   UNL     1      10.001  14.503  17.739  0.00  0.00    +0.000 A 
ATOM     11  C   UNL     1      10.012  13.173  18.174  0.00  0.00    +0.000 A 
ATOM     12  C   UNL     1       8.915  12.250  17.822  0.00  0.00    +0.000 A 
ATOM     13  O   UNL     1       7.950  12.614  17.161  0.00  0.00    +0.000 OA
ENDBRANCH   2   3
BRANCH   1  16
ATOM     14  O   UNL     1       8.162   6.123  19.169  0.00  0.00    +0.000 OA
ATOM     15  C   UNL     1       7.337   6.459  18.323  0.00  0.00    +0.000 C 
ATOM     16  N   UNL     1       7.335   7.682  17.664  0.00  0.00    +0.000 N 
ATOM     17  H   UNL     1       6.571   7.963  17.059  0.00  0.00    +0.000 HD
BRANCH  15  18
ATOM     18  C   UNL     1       6.236   5.513  17.994  0.00  0.00    +0.000 A 
ATOM     19  C   UNL     1       5.874   5.377  16.644  0.00  0.00    +0.000 A 
ATOM     20  C   UNL     1       4.810   4.553  16.272  0.00  0.00    +0.000 A 
ATOM     21  C   UNL     1       4.103   3.872  17.256  0.00  0.00    +0.000 A 
ATOM     22  C   UNL     1       4.448   3.995  18.600  0.00  0.00    +0.000 A 
ATOM     23  C   UNL     1       5.516   4.819  18.976  0.00  0.00    +0.000 A 
BRANCH  21  24
ATOM     24  O   UNL     1       3.043   3.076  16.942  0.00  0.00    +0.000 OA
ATOM     25  H   UNL     1       2.718   3.322  16.060  0.00  0.00    +0.000 HD
ENDBRANCH  21  24
ENDBRANCH  15  18
ENDBRANCH   1  16
TORSDOF 4
ENDMDL
