MODEL 1
REMARK VINA RESULT:      -8.9      0.000      0.000
REMARK  Name = 
REMARK  9 active torsions:
REMARK  status: ('A' for Active; 'I' for Inactive)
REMARK    1  A    between atoms: C_1  and  C_2
REMARK    2  A    between atoms: C_2  and  O_3
REMARK    3  A    between atoms: C_2  and  C_4
REMARK    4  A    between atoms: C_4  and  N_5
REMARK    5  A    between atoms: C_6  and  C_8
REMARK    6  A    between atoms: C_10  and  N_11
REMARK    7  A    between atoms: C_12  and  C_14
REMARK    8  A    between atoms: C_16  and  C_17
REMARK    9  A    between atoms: N_28  and  C_29
REMARK                            x       y       z     vdW  Elec       q    Type
REMARK                         _______ _______ _______ _____ _____    ______ ____
ROOT
ATOM      1  C   UNL     1       5.146   5.416  16.251  0.00  0.00    +0.000 A 
ATOM      2  C   UNL     1       4.717   6.712  16.655  0.00  0.00    +0.000 A 
ATOM      3  C   UNL     1       3.854   6.499  17.701  0.00  0.00    +0.000 A 
ATOM      4  N   UNL     1       3.735   5.124  17.837  0.00  0.00    +0.000 N 
ATOM      5  N   UNL     1       4.589   4.456  17.019  0.00  0.00    +0.000 NA
ENDROOT
BRANCH   4   6
ATOM      6  C   UNL     1       2.847   4.436  18.708  0.00  0.00    +0.000 A 
ATOM      7  C   UNL     1       3.194   4.199  20.048  0.00  0.00    +0.000 A 
ATOM      8  C   UNL     1       2.348   3.458  20.873  0.00  0.00    +0.000 A 
ATOM      9  C   UNL     1       1.151   2.959  20.366  0.00  0.00    +0.000 A 
ATOM     10  C   UNL     1       0.781   3.230  19.048  0.00  0.00    +0.000 A 
ATOM     11  C   UNL     1       1.616   3.983  18.220  0.00  0.00    +0.000 A 
ENDBRANCH   4   6
BRANCH   1  13
ATOM     12  N   UNL     1       5.617   4.313  14.174  0.00  0.00    +0.000 N 
ATOM     13  C   UNL     1       6.110   5.115  15.175  0.00  0.00    +0.000 C 
ATOM     14  O   UNL     1       7.255   5.555  15.198  0.00  0.00    +0.000 OA
ATOM     15  H   UNL     1       4.638   4.045  14.229  0.00  0.00    +0.000 HD
BRANCH  12  16
ATOM     16  C   UNL     1       6.397   3.900  13.021  0.00  0.00    +0.000 C 
BRANCH  16  18
ATOM     17  C   UNL     1       4.572   3.194  11.420  0.00  0.00    +0.000 C 
ATOM     18  C   UNL     1       5.736   2.729  12.278  0.00  0.00    +0.000 C 
BRANCH  18  19
ATOM     19  O   UNL     1       6.704   2.081  11.443  0.00  0.00    +0.000 OA
ATOM     20  H   UNL     1       6.877   2.658  10.680  0.00  0.00    +0.000 HD
ENDBRANCH  18  19
ENDBRANCH  16  18
ENDBRANCH  12  16
ENDBRANCH   1  13
BRANCH   3  21
ATOM     21  N   UNL     1       3.315   7.464  18.549  0.00  0.00    +0.000 N 
ATOM     22  C   UNL     1       2.063   8.105  18.287  0.00  0.00    +0.000 C 
ATOM     23  O   UNL     1       1.412   7.787  17.306  0.00  0.00    +0.000 OA
ATOM     24  H   UNL     1       3.773   7.599  19.446  0.00  0.00    +0.000 HD
BRANCH  22  25
ATOM     25  C   UNL     1       1.540   9.028  19.330  0.00  0.00    +0.000 A 
ATOM     26  C   UNL     1       1.448  10.396  19.000  0.00  0.00    +0.000 A 
ATOM     27  C   UNL     1       0.986  11.358  19.924  0.00  0.00    +0.000 A 
ATOM     28  C   UNL     1       0.598  10.894  21.191  0.00  0.00    +0.000 A 
ATOM     29  C   UNL     1       0.681   9.540  21.529  0.00  0.00    +0.000 A 
ATOM     30  C   UNL     1       1.151   8.606  20.604  0.00  0.00    +0.000 A 
ATOM     31 CL   UNL     1       1.238   6.965  21.133  0.00  0.00    +0.000 Cl
BRANCH  27  32
ATOM     32  C   UNL     1       0.909  12.793  19.561  0.00  0.00    +0.000 A 
ATOM     33  N   UNL     1       1.955  13.557  19.984  0.00  0.00    +0.000 NA
ATOM     34  C   UNL     1       1.940  14.876  19.667  0.00  0.00    +0.000 A 
ATOM     35  C   UNL     1       0.927  15.489  18.948  0.00  0.00    +0.000 A 
ATOM     36  C   UNL     1      -0.138  14.706  18.524  0.00  0.00    +0.000 A 
ATOM     37  C   UNL     1      -0.148  13.351  18.837  0.00  0.00    +0.000 A 
ATOM     38  F   UNL     1      -1.196  12.614  18.441  0.00  0.00    +0.000 F 
ENDBRANCH  27  32
ENDBRANCH  22  25
ENDBRANCH   3  21
TORSDOF 8
ENDMDL
MODEL 2
REMARK VINA RESULT:      -8.8      1.132      1.519
REMARK  Name = 
REMARK  9 active torsions:
REMARK  status: ('A' for Active; 'I' for Inactive)
REMARK    1  A    between atoms: C_1  and  C_2
REMARK    2  A    between atoms: C_2  and  O_3
REMARK    3  A    between atoms: C_2  and  C_4
REMARK    4  A    between atoms: C_4  and  N_5
REMARK    5  A    between atoms: C_6  and  C_8
REMARK    6  A    between atoms: C_10  and  N_11
REMARK    7  A    between atoms: C_12  and  C_14
REMARK    8  A    between atoms: C_16  and  C_17
REMARK    9  A    between atoms: N_28  and  C_29
REMARK                            x       y       z     vdW  Elec       q    Type
REMARK                         _______ _______ _______ _____ _____    ______ ____
ROOT
ATOM      1  C   UNL     1       5.341   5.150  15.983  0.00  0.00    +0.000 A 
ATOM      2  C   UNL     1       4.888   6.421  16.436  0.00  0.00    +0.000 A 
ATOM      3  C   UNL     1       4.044   6.153  17.484  0.00  0.00    +0.000 A 
ATOM      4  N   UNL     1       3.957   4.772  17.575  0.00  0.00    +0.000 N 
ATOM      5  N   UNL     1       4.816   4.152  16.725  0.00  0.00    +0.000 NA
ENDROOT
BRANCH   4   6
ATOM      6  C   UNL     1       3.095   4.036  18.432  0.00  0.00    +0.000 A 
ATOM      7  C   UNL     1       1.775   3.747  18.049  0.00  0.00    +0.000 A 
ATOM      8  C   UNL     1       0.915   3.090  18.928  0.00  0.00    +0.000 A 
ATOM      9  C   UNL     1       1.372   2.711  20.188  0.00  0.00    +0.000 A 
ATOM     10  C   UNL     1       2.696   2.956  20.556  0.00  0.00    +0.000 A 
ATOM     11  C   UNL     1       3.567   3.601  19.676  0.00  0.00    +0.000 A 
ENDBRANCH   4   6
BRANCH   1  13
ATOM     12  N   UNL     1       5.846   4.048  13.913  0.00  0.00    +0.000 N 
ATOM     13  C   UNL     1       6.299   4.906  14.887  0.00  0.00    +0.000 C 
ATOM     14  O   UNL     1       7.404   5.438  14.870  0.00  0.00    +0.000 OA
ATOM     15  H   UNL     1       4.894   3.703  14.000  0.00  0.00    +0.000 HD
BRANCH  12  16
ATOM     16  C   UNL     1       6.627   3.678  12.746  0.00  0.00    +0.000 C 
BRANCH  16  18
ATOM     17  C   UNL     1       5.942   1.627  11.436  0.00  0.00    +0.000 C 
ATOM     18  C   UNL     1       5.739   3.121  11.622  0.00  0.00    +0.000 C 
BRANCH  18  19
ATOM     19  O   UNL     1       4.362   3.372  11.927  0.00  0.00    +0.000 OA
ATOM     20  H   UNL     1       4.195   4.322  11.803  0.00  0.00    +0.000 HD
ENDBRANCH  18  19
ENDBRANCH  16  18
ENDBRANCH  12  16
ENDBRANCH   1  13
BRANCH   3  21
ATOM     21  N   UNL     1       3.494   7.077  18.370  0.00  0.00    +0.000 N 
ATOM     22  C   UNL     1       2.178   7.613  18.204  0.00  0.00    +0.000 C 
ATOM     23  O   UNL     1       1.482   7.236  17.275  0.00  0.00    +0.000 OA
ATOM     24  H   UNL     1       4.006   7.255  19.230  0.00  0.00    +0.000 HD
BRANCH  22  25
ATOM     25  C   UNL     1       1.662   8.496  19.284  0.00  0.00    +0.000 A 
ATOM     26  C   UNL     1       1.428   9.849  18.960  0.00  0.00    +0.000 A 
ATOM     27  C   UNL     1       0.960  10.777  19.916  0.00  0.00    +0.000 A 
ATOM     28  C   UNL     1       0.714  10.292  21.210  0.00  0.00    +0.000 A 
ATOM     29  C   UNL     1       0.938   8.953  21.543  0.00  0.00    +0.000 A 
ATOM     30  C   UNL     1       1.412   8.054  20.586  0.00  0.00    +0.000 A 
ATOM     31 CL   UNL     1       1.680   6.432  21.109  0.00  0.00    +0.000 Cl
BRANCH  27  32
ATOM     32  C   UNL     1       0.733  12.196  19.558  0.00  0.00    +0.000 A 
ATOM     33  N   UNL     1      -0.487  12.696  19.903  0.00  0.00    +0.000 NA
ATOM     34  C   UNL     1      -0.741  13.996  19.608  0.00  0.00    +0.000 A 
ATOM     35  C   UNL     1       0.158  14.838  18.977  0.00  0.00    +0.000 A 
ATOM     36  C   UNL     1       1.398  14.323  18.624  0.00  0.00    +0.000 A 
ATOM     37  C   UNL     1       1.684  12.992  18.913  0.00  0.00    +0.000 A 
ATOM     38  F   UNL     1       2.877  12.503  18.544  0.00  0.00    +0.000 F 
ENDBRANCH  27  32
ENDBRANCH  22  25
ENDBRANCH   3  21
TORSDOF 8
ENDMDL
MODEL 3
REMARK VINA RESULT:      -8.7      0.972      1.178
REMARK  Name = 
REMARK  9 active torsions:
REMARK  status: ('A' for Active; 'I' for Inactive)
REMARK    1  A    between atoms: C_1  and  C_2
REMARK    2  A    between atoms: C_2  and  O_3
REMARK    3  A    between atoms: C_2  and  C_4
REMARK    4  A    between atoms: C_4  and  N_5
REMARK    5  A    between atoms: C_6  and  C_8
REMARK    6  A    between atoms: C_10  and  N_11
REMARK    7  A    between atoms: C_12  and  C_14
REMARK    8  A    between atoms: C_16  and  C_17
REMARK    9  A    between atoms: N_28  and  C_29
REMARK                            x       y       z     vdW  Elec       q    Type
REMARK                         _______ _______ _______ _____ _____    ______ ____
ROOT
ATOM      1  C   UNL     1       5.072   5.379  16.420  0.00  0.00    +0.000 A 
ATOM      2  C   UNL     1       4.591   6.648  16.849  0.00  0.00    +0.000 A 
ATOM      3  C   UNL     1       3.742   6.381  17.893  0.00  0.00    +0.000 A 
ATOM      4  N   UNL     1       3.679   5.000  18.003  0.00  0.00    +0.000 N 
ATOM      5  N   UNL     1       4.557   4.383  17.171  0.00  0.00    +0.000 NA
ENDROOT
BRANCH   4   6
ATOM      6  C   UNL     1       2.822   4.260  18.863  0.00  0.00    +0.000 A 
ATOM      7  C   UNL     1       3.167   4.041  20.208  0.00  0.00    +0.000 A 
ATOM      8  C   UNL     1       2.357   3.251  21.021  0.00  0.00    +0.000 A 
ATOM      9  C   UNL     1       1.196   2.685  20.501  0.00  0.00    +0.000 A 
ATOM     10  C   UNL     1       0.827   2.936  19.179  0.00  0.00    +0.000 A 
ATOM     11  C   UNL     1       1.626   3.738  18.361  0.00  0.00    +0.000 A 
ENDBRANCH   4   6
BRANCH   1  13
ATOM     12  N   UNL     1       5.567   4.370  14.301  0.00  0.00    +0.000 N 
ATOM     13  C   UNL     1       6.045   5.137  15.336  0.00  0.00    +0.000 C 
ATOM     14  O   UNL     1       7.182   5.593  15.381  0.00  0.00    +0.000 OA
ATOM     15  H   UNL     1       4.592   4.084  14.341  0.00  0.00    +0.000 HD
BRANCH  12  16
ATOM     16  C   UNL     1       6.357   4.017  13.134  0.00  0.00    +0.000 C 
BRANCH  16  18
ATOM     17  C   UNL     1       4.587   3.279  11.487  0.00  0.00    +0.000 C 
ATOM     18  C   UNL     1       5.743   2.835  12.368  0.00  0.00    +0.000 C 
BRANCH  18  19
ATOM     19  O   UNL     1       6.745   2.218  11.552  0.00  0.00    +0.000 OA
ATOM     20  H   UNL     1       6.295   1.669  10.887  0.00  0.00    +0.000 HD
ENDBRANCH  18  19
ENDBRANCH  16  18
ENDBRANCH  12  16
ENDBRANCH   1  13
BRANCH   3  21
ATOM     21  N   UNL     1       3.167   7.307  18.760  0.00  0.00    +0.000 N 
ATOM     22  C   UNL     1       2.253   8.314  18.313  0.00  0.00    +0.000 C 
ATOM     23  O   UNL     1       1.928   8.361  17.139  0.00  0.00    +0.000 OA
ATOM     24  H   UNL     1       3.304   7.157  19.755  0.00  0.00    +0.000 HD
BRANCH  22  25
ATOM     25  C   UNL     1       1.616   9.164  19.355  0.00  0.00    +0.000 A 
ATOM     26  C   UNL     1       1.526  10.548  19.098  0.00  0.00    +0.000 A 
ATOM     27  C   UNL     1       0.960  11.446  20.029  0.00  0.00    +0.000 A 
ATOM     28  C   UNL     1       0.465  10.899  21.224  0.00  0.00    +0.000 A 
ATOM     29  C   UNL     1       0.544   9.529  21.489  0.00  0.00    +0.000 A 
ATOM     30  C   UNL     1       1.119   8.660  20.560  0.00  0.00    +0.000 A 
ATOM     31 CL   UNL     1       1.190   6.992  20.997  0.00  0.00    +0.000 Cl
BRANCH  27  32
ATOM     32  C   UNL     1       0.887  12.898  19.746  0.00  0.00    +0.000 A 
ATOM     33  N   UNL     1      -0.152  13.285  18.955  0.00  0.00    +0.000 NA
ATOM     34  C   UNL     1      -0.271  14.608  18.675  0.00  0.00    +0.000 A 
ATOM     35  C   UNL     1       0.599  15.580  19.138  0.00  0.00    +0.000 A 
ATOM     36  C   UNL     1       1.659  15.179  19.940  0.00  0.00    +0.000 A 
ATOM     37  C   UNL     1       1.805  13.829  20.241  0.00  0.00    +0.000 A 
ATOM     38  F   UNL     1       2.848  13.455  20.997  0.00  0.00    +0.000 F 
ENDBRANCH  27  32
ENDBRANCH  22  25
ENDBRANCH   3  21
TORSDOF 8
ENDMDL
MODEL 4
REMARK VINA RESULT:      -8.6      0.634      1.065
REMARK  Name = 
REMARK  9 active torsions:
REMARK  status: ('A' for Active; 'I' for Inactive)
REMARK    1  A    between atoms: C_1  and  C_2
REMARK    2  A    between atoms: C_2  and  O_3
REMARK    3  A    between atoms: C_2  and  C_4
REMARK    4  A    between atoms: C_4  and  N_5
REMARK    5  A    between atoms: C_6  and  C_8
REMARK    6  A    between atoms: C_10  and  N_11
REMARK    7  A    between atoms: C_12  and  C_14
REMARK    8  A    between atoms: C_16  and  C_17
REMARK    9  A    between atoms: N_28  and  C_29
REMARK                            x       y       z     vdW  Elec       q    Type
REMARK                         _______ _______ _______ _____ _____    ______ ____
ROOT
ATOM      1  C   UNL     1       5.180   5.195  16.331  0.00  0.00    +0.000 A 
ATOM      2  C   UNL     1       4.669   6.450  16.767  0.00  0.00    +0.000 A 
ATOM      3  C   UNL     1       3.813   6.154  17.798  0.00  0.00    +0.000 A 
ATOM      4  N   UNL     1       3.776   4.771  17.893  0.00  0.00    +0.000 N 
ATOM      5  N   UNL     1       4.676   4.181  17.065  0.00  0.00    +0.000 NA
ENDROOT
BRANCH   4   6
ATOM      6  C   UNL     1       2.924   4.006  18.735  0.00  0.00    +0.000 A 
ATOM      7  C   UNL     1       1.657   3.592  18.290  0.00  0.00    +0.000 A 
ATOM      8  C   UNL     1       0.799   2.907  19.150  0.00  0.00    +0.000 A 
ATOM      9  C   UNL     1       1.205   2.625  20.452  0.00  0.00    +0.000 A 
ATOM     10  C   UNL     1       2.480   2.995  20.883  0.00  0.00    +0.000 A 
ATOM     11  C   UNL     1       3.349   3.669  20.024  0.00  0.00    +0.000 A 
ENDBRANCH   4   6
BRANCH   1  13
ATOM     12  N   UNL     1       5.735   4.180  14.229  0.00  0.00    +0.000 N 
ATOM     13  C   UNL     1       6.170   4.983  15.257  0.00  0.00    +0.000 C 
ATOM     14  O   UNL     1       7.284   5.493  15.302  0.00  0.00    +0.000 OA
ATOM     15  H   UNL     1       4.775   3.850  14.268  0.00  0.00    +0.000 HD
BRANCH  12  16
ATOM     16  C   UNL     1       6.549   3.849  13.073  0.00  0.00    +0.000 C 
BRANCH  16  18
ATOM     17  C   UNL     1       6.008   1.895  11.564  0.00  0.00    +0.000 C 
ATOM     18  C   UNL     1       5.693   3.342  11.903  0.00  0.00    +0.000 C 
BRANCH  18  19
ATOM     19  O   UNL     1       4.305   3.452  12.238  0.00  0.00    +0.000 OA
ATOM     20  H   UNL     1       4.070   4.396  12.241  0.00  0.00    +0.000 HD
ENDBRANCH  18  19
ENDBRANCH  16  18
ENDBRANCH  12  16
ENDBRANCH   1  13
BRANCH   3  21
ATOM     21  N   UNL     1       3.209   7.060  18.668  0.00  0.00    +0.000 N 
ATOM     22  C   UNL     1       2.404   8.150  18.206  0.00  0.00    +0.000 C 
ATOM     23  O   UNL     1       2.201   8.291  17.011  0.00  0.00    +0.000 OA
ATOM     24  H   UNL     1       3.238   6.840  19.659  0.00  0.00    +0.000 HD
BRANCH  22  25
ATOM     25  C   UNL     1       1.717   8.972  19.237  0.00  0.00    +0.000 A 
ATOM     26  C   UNL     1       1.578  10.353  18.981  0.00  0.00    +0.000 A 
ATOM     27  C   UNL     1       0.963  11.226  19.904  0.00  0.00    +0.000 A 
ATOM     28  C   UNL     1       0.469  10.658  21.090  0.00  0.00    +0.000 A 
ATOM     29  C   UNL     1       0.597   9.292  21.354  0.00  0.00    +0.000 A 
ATOM     30  C   UNL     1       1.220   8.447  20.433  0.00  0.00    +0.000 A 
ATOM     31 CL   UNL     1       1.348   6.782  20.870  0.00  0.00    +0.000 Cl
BRANCH  27  32
ATOM     32  C   UNL     1       0.839  12.675  19.621  0.00  0.00    +0.000 A 
ATOM     33  N   UNL     1       1.817  13.458  20.156  0.00  0.00    +0.000 NA
ATOM     34  C   UNL     1       1.757  14.792  19.916  0.00  0.00    +0.000 A 
ATOM     35  C   UNL     1       0.764  15.402  19.168  0.00  0.00    +0.000 A 
ATOM     36  C   UNL     1      -0.233  14.599  18.630  0.00  0.00    +0.000 A 
ATOM     37  C   UNL     1      -0.196  13.228  18.862  0.00  0.00    +0.000 A 
ATOM     38  F   UNL     1      -1.180  12.470  18.355  0.00  0.00    +0.000 F 
ENDBRANCH  27  32
ENDBRANCH  22  25
ENDBRANCH   3  21
TORSDOF 8
ENDMDL
MODEL 5
REMARK VINA RESULT:      -8.4      2.732      4.882
REMARK  Name = 
REMARK  9 active torsions:
REMARK  status: ('A' for Active; 'I' for Inactive)
REMARK    1  A    between atoms: C_1  and  C_2
REMARK    2  A    between atoms: C_2  and  O_3
REMARK    3  A    between atoms: C_2  and  C_4
REMARK    4  A    between atoms: C_4  and  N_5
REMARK    5  A    between atoms: C_6  and  C_8
REMARK    6  A    between atoms: C_10  and  N_11
REMARK    7  A    between atoms: C_12  and  C_14
REMARK    8  A    between atoms: C_16  and  C_17
REMARK    9  A    between atoms: N_28  and  C_29
REMARK                            x       y       z     vdW  Elec       q    Type
REMARK                         _______ _______ _______ _____ _____    ______ ____
ROOT
ATOM      1  C   UNL     1       6.602   4.616  13.996  0.00  0.00    +0.000 A 
ATOM      2  C   UNL     1       5.367   4.345  14.649  0.00  0.00    +0.000 A 
ATOM      3  C   UNL     1       5.433   5.017  15.844  0.00  0.00    +0.000 A 
ATOM      4  N   UNL     1       6.696   5.587  15.903  0.00  0.00    +0.000 N 
ATOM      5  N   UNL     1       7.382   5.426  14.742  0.00  0.00    +0.000 NA
ENDROOT
BRANCH   4   6
ATOM      6  C   UNL     1       7.262   6.270  17.014  0.00  0.00    +0.000 A 
ATOM      7  C   UNL     1       7.482   7.657  16.970  0.00  0.00    +0.000 A 
ATOM      8  C   UNL     1       8.106   8.304  18.035  0.00  0.00    +0.000 A 
ATOM      9  C   UNL     1       8.506   7.572  19.151  0.00  0.00    +0.000 A 
ATOM     10  C   UNL     1       8.249   6.202  19.218  0.00  0.00    +0.000 A 
ATOM     11  C   UNL     1       7.611   5.549  18.161  0.00  0.00    +0.000 A 
ENDBRANCH   4   6
BRANCH   1  13
ATOM     12  N   UNL     1       6.858   2.787  12.465  0.00  0.00    +0.000 N 
ATOM     13  C   UNL     1       7.001   4.140  12.657  0.00  0.00    +0.000 C 
ATOM     14  O   UNL     1       7.425   4.911  11.802  0.00  0.00    +0.000 OA
ATOM     15  H   UNL     1       6.449   2.247  13.225  0.00  0.00    +0.000 HD
BRANCH  12  16
ATOM     16  C   UNL     1       7.188   2.114  11.221  0.00  0.00    +0.000 C 
BRANCH  16  18
ATOM     17  C   UNL     1       6.177  -0.196  11.397  0.00  0.00    +0.000 C 
ATOM     18  C   UNL     1       6.058   1.180  10.763  0.00  0.00    +0.000 C 
BRANCH  18  19
ATOM     19  O   UNL     1       4.791   1.749  11.114  0.00  0.00    +0.000 OA
ATOM     20  H   UNL     1       4.398   1.199  11.813  0.00  0.00    +0.000 HD
ENDBRANCH  18  19
ENDBRANCH  16  18
ENDBRANCH  12  16
ENDBRANCH   1  13
BRANCH   3  21
ATOM     21  N   UNL     1       4.395   5.209  16.753  0.00  0.00    +0.000 N 
ATOM     22  C   UNL     1       4.189   4.348  17.877  0.00  0.00    +0.000 C 
ATOM     23  O   UNL     1       4.957   3.423  18.083  0.00  0.00    +0.000 OA
ATOM     24  H   UNL     1       3.866   6.073  16.676  0.00  0.00    +0.000 HD
BRANCH  22  25
ATOM     25  C   UNL     1       3.121   4.730  18.839  0.00  0.00    +0.000 A 
ATOM     26  C   UNL     1       2.823   6.103  18.968  0.00  0.00    +0.000 A 
ATOM     27  C   UNL     1       1.843   6.575  19.869  0.00  0.00    +0.000 A 
ATOM     28  C   UNL     1       1.154   5.613  20.624  0.00  0.00    +0.000 A 
ATOM     29  C   UNL     1       1.436   4.249  20.503  0.00  0.00    +0.000 A 
ATOM     30  C   UNL     1       2.418   3.805  19.616  0.00  0.00    +0.000 A 
ATOM     31 CL   UNL     1       2.705   2.104  19.564  0.00  0.00    +0.000 Cl
BRANCH  27  32
ATOM     32  C   UNL     1       1.556   8.022  19.998  0.00  0.00    +0.000 A 
ATOM     33  N   UNL     1       1.333   8.460  21.269  0.00  0.00    +0.000 NA
ATOM     34  C   UNL     1       1.077   9.781  21.443  0.00  0.00    +0.000 A 
ATOM     35  C   UNL     1       1.024  10.704  20.412  0.00  0.00    +0.000 A 
ATOM     36  C   UNL     1       1.247  10.251  19.119  0.00  0.00    +0.000 A 
ATOM     37  C   UNL     1       1.510   8.901  18.911  0.00  0.00    +0.000 A 
ATOM     38  F   UNL     1       1.700   8.475  17.654  0.00  0.00    +0.000 F 
ENDBRANCH  27  32
ENDBRANCH  22  25
ENDBRANCH   3  21
TORSDOF 8
ENDMDL
MODEL 6
REMARK VINA RESULT:      -8.4      1.029      1.402
REMARK  Name = 
REMARK  9 active torsions:
REMARK  status: ('A' for Active; 'I' for Inactive)
REMARK    1  A    between atoms: C_1  and  C_2
REMARK    2  A    between atoms: C_2  and  O_3
REMARK    3  A    between atoms: C_2  and  C_4
REMARK    4  A    between atoms: C_4  and  N_5
REMARK    5  A    between atoms: C_6  and  C_8
REMARK    6  A    between atoms: C_10  and  N_11
REMARK    7  A    between atoms: C_12  and  C_14
REMARK    8  A    between atoms: C_16  and  C_17
REMARK    9  A    between atoms: N_28  and  C_29
REMARK                            x       y       z     vdW  Elec       q    Type
REMARK                         _______ _______ _______ _____ _____    ______ ____
ROOT
ATOM      1  C   UNL     1       5.073   5.380  16.514  0.00  0.00    +0.000 A 
ATOM      2  C   UNL     1       4.532   6.604  16.999  0.00  0.00    +0.000 A 
ATOM      3  C   UNL     1       3.682   6.248  18.016  0.00  0.00    +0.000 A 
ATOM      4  N   UNL     1       3.679   4.862  18.057  0.00  0.00    +0.000 N 
ATOM      5  N   UNL     1       4.593   4.326  17.207  0.00  0.00    +0.000 NA
ENDROOT
BRANCH   4   6
ATOM      6  C   UNL     1       2.845   4.044  18.867  0.00  0.00    +0.000 A 
ATOM      7  C   UNL     1       1.591   3.614  18.403  0.00  0.00    +0.000 A 
ATOM      8  C   UNL     1       0.750   2.876  19.234  0.00  0.00    +0.000 A 
ATOM      9  C   UNL     1       1.160   2.556  20.526  0.00  0.00    +0.000 A 
ATOM     10  C   UNL     1       2.423   2.942  20.975  0.00  0.00    +0.000 A 
ATOM     11  C   UNL     1       3.277   3.670  20.144  0.00  0.00    +0.000 A 
ENDBRANCH   4   6
BRANCH   1  13
ATOM     12  N   UNL     1       5.676   4.415  14.403  0.00  0.00    +0.000 N 
ATOM     13  C   UNL     1       6.068   5.235  15.434  0.00  0.00    +0.000 C 
ATOM     14  O   UNL     1       7.150   5.810  15.477  0.00  0.00    +0.000 OA
ATOM     15  H   UNL     1       4.737   4.028  14.444  0.00  0.00    +0.000 HD
BRANCH  12  16
ATOM     16  C   UNL     1       6.502   4.140  13.240  0.00  0.00    +0.000 C 
BRANCH  16  18
ATOM     17  C   UNL     1       4.764   3.293  11.612  0.00  0.00    +0.000 C 
ATOM     18  C   UNL     1       5.981   2.932  12.447  0.00  0.00    +0.000 C 
BRANCH  18  19
ATOM     19  O   UNL     1       7.013   2.442  11.582  0.00  0.00    +0.000 OA
ATOM     20  H   UNL     1       6.633   1.741  11.027  0.00  0.00    +0.000 HD
ENDBRANCH  18  19
ENDBRANCH  16  18
ENDBRANCH  12  16
ENDBRANCH   1  13
BRANCH   3  21
ATOM     21  N   UNL     1       3.057   7.105  18.920  0.00  0.00    +0.000 N 
ATOM     22  C   UNL     1       2.116   8.101  18.510  0.00  0.00    +0.000 C 
ATOM     23  O   UNL     1       1.812   8.201  17.332  0.00  0.00    +0.000 OA
ATOM     24  H   UNL     1       3.181   6.904  19.908  0.00  0.00    +0.000 HD
BRANCH  22  25
ATOM     25  C   UNL     1       1.427   8.869  19.582  0.00  0.00    +0.000 A 
ATOM     26  C   UNL     1       1.135  10.225  19.325  0.00  0.00    +0.000 A 
ATOM     27  C   UNL     1       0.505  11.048  20.283  0.00  0.00    +0.000 A 
ATOM     28  C   UNL     1       0.157  10.454  21.506  0.00  0.00    +0.000 A 
ATOM     29  C   UNL     1       0.437   9.111  21.772  0.00  0.00    +0.000 A 
ATOM     30  C   UNL     1       1.072   8.317  20.815  0.00  0.00    +0.000 A 
ATOM     31 CL   UNL     1       1.394   6.679  21.255  0.00  0.00    +0.000 Cl
BRANCH  27  32
ATOM     32  C   UNL     1       0.219  12.474  19.998  0.00  0.00    +0.000 A 
ATOM     33  N   UNL     1       0.196  12.810  18.677  0.00  0.00    +0.000 NA
ATOM     34  C   UNL     1      -0.073  14.102  18.361  0.00  0.00    +0.000 A 
ATOM     35  C   UNL     1      -0.320  15.094  19.296  0.00  0.00    +0.000 A 
ATOM     36  C   UNL     1      -0.290  14.746  20.640  0.00  0.00    +0.000 A 
ATOM     37  C   UNL     1      -0.015  13.429  20.991  0.00  0.00    +0.000 A 
ATOM     38  F   UNL     1       0.034  13.115  22.294  0.00  0.00    +0.000 F 
ENDBRANCH  27  32
ENDBRANCH  22  25
ENDBRANCH   3  21
TORSDOF 8
ENDMDL
MODEL 7
REMARK VINA RESULT:      -8.3      2.488      2.938
REMARK  Name = 
REMARK  9 active torsions:
REMARK  status: ('A' for Active; 'I' for Inactive)
REMARK    1  A    between atoms: C_1  and  C_2
REMARK    2  A    between atoms: C_2  and  O_3
REMARK    3  A    between atoms: C_2  and  C_4
REMARK    4  A    between atoms: C_4  and  N_5
REMARK    5  A    between atoms: C_6  and  C_8
REMARK    6  A    between atoms: C_10  and  N_11
REMARK    7  A    between atoms: C_12  and  C_14
REMARK    8  A    between atoms: C_16  and  C_17
REMARK    9  A    between atoms: N_28  and  C_29
REMARK                            x       y       z     vdW  Elec       q    Type
REMARK                         _______ _______ _______ _____ _____    ______ ____
ROOT
ATOM      1  C   UNL     1       4.851   6.058  17.264  0.00  0.00    +0.000 A 
ATOM      2  C   UNL     1       4.002   7.187  17.436  0.00  0.00    +0.000 A 
ATOM      3  C   UNL     1       3.067   6.801  18.362  0.00  0.00    +0.000 A 
ATOM      4  N   UNL     1       3.327   5.469  18.650  0.00  0.00    +0.000 N 
ATOM      5  N   UNL     1       4.468   5.034  18.055  0.00  0.00    +0.000 NA
ENDROOT
BRANCH   4   6
ATOM      6  C   UNL     1       2.535   4.611  19.460  0.00  0.00    +0.000 A 
ATOM      7  C   UNL     1       2.771   4.506  20.841  0.00  0.00    +0.000 A 
ATOM      8  C   UNL     1       2.038   3.605  21.613  0.00  0.00    +0.000 A 
ATOM      9  C   UNL     1       1.063   2.813  21.012  0.00  0.00    +0.000 A 
ATOM     10  C   UNL     1       0.795   2.946  19.649  0.00  0.00    +0.000 A 
ATOM     11  C   UNL     1       1.514   3.856  18.872  0.00  0.00    +0.000 A 
ENDBRANCH   4   6
BRANCH   1  13
ATOM     12  N   UNL     1       5.982   4.995  15.435  0.00  0.00    +0.000 N 
ATOM     13  C   UNL     1       6.036   5.985  16.387  0.00  0.00    +0.000 C 
ATOM     14  O   UNL     1       6.980   6.756  16.519  0.00  0.00    +0.000 OA
ATOM     15  H   UNL     1       5.129   4.444  15.381  0.00  0.00    +0.000 HD
BRANCH  12  16
ATOM     16  C   UNL     1       7.039   4.754  14.469  0.00  0.00    +0.000 C 
BRANCH  16  18
ATOM     17  C   UNL     1       7.404   4.709  11.968  0.00  0.00    +0.000 C 
ATOM     18  C   UNL     1       6.477   4.320  13.107  0.00  0.00    +0.000 C 
BRANCH  18  19
ATOM     19  O   UNL     1       6.290   2.899  13.094  0.00  0.00    +0.000 OA
ATOM     20  H   UNL     1       6.558   2.569  12.220  0.00  0.00    +0.000 HD
ENDBRANCH  18  19
ENDBRANCH  16  18
ENDBRANCH  12  16
ENDBRANCH   1  13
BRANCH   3  21
ATOM     21  N   UNL     1       2.131   7.617  18.995  0.00  0.00    +0.000 N 
ATOM     22  C   UNL     1       1.743   8.890  18.471  0.00  0.00    +0.000 C 
ATOM     23  O   UNL     1       2.213   9.281  17.416  0.00  0.00    +0.000 OA
ATOM     24  H   UNL     1       1.619   7.214  19.775  0.00  0.00    +0.000 HD
BRANCH  22  25
ATOM     25  C   UNL     1       0.647   9.609  19.175  0.00  0.00    +0.000 A 
ATOM     26  C   UNL     1      -0.485   9.972  18.415  0.00  0.00    +0.000 A 
ATOM     27  C   UNL     1      -1.570  10.676  18.981  0.00  0.00    +0.000 A 
ATOM     28  C   UNL     1      -1.489  10.986  20.347  0.00  0.00    +0.000 A 
ATOM     29  C   UNL     1      -0.375  10.629  21.112  0.00  0.00    +0.000 A 
ATOM     30  C   UNL     1       0.693   9.944  20.531  0.00  0.00    +0.000 A 
ATOM     31 CL   UNL     1       2.030   9.574  21.558  0.00  0.00    +0.000 Cl
BRANCH  27  32
ATOM     32  C   UNL     1      -2.744  11.059  18.162  0.00  0.00    +0.000 A 
ATOM     33  N   UNL     1      -3.701  11.776  18.815  0.00  0.00    +0.000 NA
ATOM     34  C   UNL     1      -4.792  12.162  18.107  0.00  0.00    +0.000 A 
ATOM     35  C   UNL     1      -4.991  11.869  16.768  0.00  0.00    +0.000 A 
ATOM     36  C   UNL     1      -4.015  11.135  16.109  0.00  0.00    +0.000 A 
ATOM     37  C   UNL     1      -2.887  10.725  16.812  0.00  0.00    +0.000 A 
ATOM     38  F   UNL     1      -1.965   9.995  16.167  0.00  0.00    +0.000 F 
ENDBRANCH  27  32
ENDBRANCH  22  25
ENDBRANCH   3  21
TORSDOF 8
ENDMDL
MODEL 8
REMARK VINA RESULT:      -8.1      2.505      3.010
REMARK  Name = 
REMARK  9 active torsions:
REMARK  status: ('A' for Active; 'I' for Inactive)
REMARK    1  A    between atoms: C_1  and  C_2
REMARK    2  A    between atoms: C_2  and  O_3
REMARK    3  A    between atoms: C_2  and  C_4
REMARK    4  A    between atoms: C_4  and  N_5
REMARK    5  A    between atoms: C_6  and  C_8
REMARK    6  A    between atoms: C_10  and  N_11
REMARK    7  A    between atoms: C_12  and  C_14
REMARK    8  A    between atoms: C_16  and  C_17
REMARK    9  A    between atoms: N_28  and  C_29
REMARK                            x       y       z     vdW  Elec       q    Type
REMARK                         _______ _______ _______ _____ _____    ______ ____
ROOT
ATOM      1  C   UNL     1       5.021   5.808  17.057  0.00  0.00    +0.000 A 
ATOM      2  C   UNL     1       4.127   6.910  17.162  0.00  0.00    +0.000 A 
ATOM      3  C   UNL     1       3.184   6.527  18.081  0.00  0.00    +0.000 A 
ATOM      4  N   UNL     1       3.485   5.219  18.431  0.00  0.00    +0.000 N 
ATOM      5  N   UNL     1       4.656   4.804  17.882  0.00  0.00    +0.000 NA
ENDROOT
BRANCH   4   6
ATOM      6  C   UNL     1       2.705   4.366  19.257  0.00  0.00    +0.000 A 
ATOM      7  C   UNL     1       1.754   3.496  18.697  0.00  0.00    +0.000 A 
ATOM      8  C   UNL     1       0.942   2.718  19.522  0.00  0.00    +0.000 A 
ATOM      9  C   UNL     1       1.082   2.799  20.905  0.00  0.00    +0.000 A 
ATOM     10  C   UNL     1       2.055   3.628  21.463  0.00  0.00    +0.000 A 
ATOM     11  C   UNL     1       2.882   4.399  20.644  0.00  0.00    +0.000 A 
ENDBRANCH   4   6
BRANCH   1  13
ATOM     12  N   UNL     1       6.097   4.972  15.083  0.00  0.00    +0.000 N 
ATOM     13  C   UNL     1       6.230   5.743  16.213  0.00  0.00    +0.000 C 
ATOM     14  O   UNL     1       7.258   6.339  16.518  0.00  0.00    +0.000 OA
ATOM     15  H   UNL     1       5.184   4.563  14.900  0.00  0.00    +0.000 HD
BRANCH  12  16
ATOM     16  C   UNL     1       7.162   4.779  14.115  0.00  0.00    +0.000 C 
BRANCH  16  18
ATOM     17  C   UNL     1       5.223   3.707  12.898  0.00  0.00    +0.000 C 
ATOM     18  C   UNL     1       6.735   3.835  12.981  0.00  0.00    +0.000 C 
BRANCH  18  19
ATOM     19  O   UNL     1       7.231   4.330  11.731  0.00  0.00    +0.000 OA
ATOM     20  H   UNL     1       7.697   5.166  11.902  0.00  0.00    +0.000 HD
ENDBRANCH  18  19
ENDBRANCH  16  18
ENDBRANCH  12  16
ENDBRANCH   1  13
BRANCH   3  21
ATOM     21  N   UNL     1       2.203   7.332  18.657  0.00  0.00    +0.000 N 
ATOM     22  C   UNL     1       2.003   8.696  18.270  0.00  0.00    +0.000 C 
ATOM     23  O   UNL     1       2.686   9.181  17.384  0.00  0.00    +0.000 OA
ATOM     24  H   UNL     1       1.529   6.877  19.266  0.00  0.00    +0.000 HD
BRANCH  22  25
ATOM     25  C   UNL     1       0.846   9.411  18.872  0.00  0.00    +0.000 A 
ATOM     26  C   UNL     1      -0.224   9.751  18.018  0.00  0.00    +0.000 A 
ATOM     27  C   UNL     1      -1.359  10.449  18.483  0.00  0.00    +0.000 A 
ATOM     28  C   UNL     1      -1.393  10.777  19.848  0.00  0.00    +0.000 A 
ATOM     29  C   UNL     1      -0.341  10.442  20.706  0.00  0.00    +0.000 A 
ATOM     30  C   UNL     1       0.778   9.762  20.223  0.00  0.00    +0.000 A 
ATOM     31 CL   UNL     1       2.030   9.421  21.361  0.00  0.00    +0.000 Cl
BRANCH  27  32
ATOM     32  C   UNL     1      -2.466  10.808  17.566  0.00  0.00    +0.000 A 
ATOM     33  N   UNL     1      -2.300  10.413  16.272  0.00  0.00    +0.000 NA
ATOM     34  C   UNL     1      -3.292  10.707  15.393  0.00  0.00    +0.000 A 
ATOM     35  C   UNL     1      -4.452  11.384  15.730  0.00  0.00    +0.000 A 
ATOM     36  C   UNL     1      -4.612  11.788  17.049  0.00  0.00    +0.000 A 
ATOM     37  C   UNL     1      -3.611  11.501  17.970  0.00  0.00    +0.000 A 
ATOM     38  F   UNL     1      -3.770  11.919  19.235  0.00  0.00    +0.000 F 
ENDBRANCH  27  32
ENDBRANCH  22  25
ENDBRANCH   3  21
TORSDOF 8
ENDMDL
MODEL 9
REMARK VINA RESULT:      -8.0      2.495      3.027
REMARK  Name = 
REMARK  9 active torsions:
REMARK  status: ('A' for Active; 'I' for Inactive)
REMARK    1  A    between atoms: C_1  and  C_2
REMARK    2  A    between atoms: C_2  and  O_3
REMARK    3  A    between atoms: C_2  and  C_4
REMARK    4  A    between atoms: C_4  and  N_5
REMARK    5  A    between atoms: C_6  and  C_8
REMARK    6  A    between atoms: C_10  and  N_11
REMARK    7  A    between atoms: C_12  and  C_14
REMARK    8  A    between atoms: C_16  and  C_17
REMARK    9  A    between atoms: N_28  and  C_29
REMARK                            x       y       z     vdW  Elec       q    Type
REMARK                         _______ _______ _______ _____ _____    ______ ____
ROOT
ATOM      1  C   UNL     1       4.857   6.079  17.230  0.00  0.00    +0.000 A 
ATOM      2  C   UNL     1       3.993   7.193  17.423  0.00  0.00    +0.000 A 
ATOM      3  C   UNL     1       3.054   6.772  18.331  0.00  0.00    +0.000 A 
ATOM      4  N   UNL     1       3.328   5.437  18.587  0.00  0.00    +0.000 N 
ATOM      5  N   UNL     1       4.479   5.031  17.992  0.00  0.00    +0.000 NA
ENDROOT
BRANCH   4   6
ATOM      6  C   UNL     1       2.539   4.548  19.367  0.00  0.00    +0.000 A 
ATOM      7  C   UNL     1       1.557   3.743  18.767  0.00  0.00    +0.000 A 
ATOM      8  C   UNL     1       0.738   2.932  19.551  0.00  0.00    +0.000 A 
ATOM      9  C   UNL     1       0.902   2.913  20.934  0.00  0.00    +0.000 A 
ATOM     10  C   UNL     1       1.906   3.678  21.529  0.00  0.00    +0.000 A 
ATOM     11  C   UNL     1       2.739   4.483  20.750  0.00  0.00    +0.000 A 
ENDBRANCH   4   6
BRANCH   1  13
ATOM     12  N   UNL     1       6.119   4.950  15.531  0.00  0.00    +0.000 N 
ATOM     13  C   UNL     1       6.051   6.042  16.363  0.00  0.00    +0.000 C 
ATOM     14  O   UNL     1       6.899   6.927  16.401  0.00  0.00    +0.000 OA
ATOM     15  H   UNL     1       5.336   4.302  15.545  0.00  0.00    +0.000 HD
BRANCH  12  16
ATOM     16  C   UNL     1       7.207   4.723  14.596  0.00  0.00    +0.000 C 
BRANCH  16  18
ATOM     17  C   UNL     1       5.222   3.862  13.287  0.00  0.00    +0.000 C 
ATOM     18  C   UNL     1       6.738   3.940  13.359  0.00  0.00    +0.000 C 
BRANCH  18  19
ATOM     19  O   UNL     1       7.231   4.574  12.173  0.00  0.00    +0.000 OA
ATOM     20  H   UNL     1       6.814   5.450  12.105  0.00  0.00    +0.000 HD
ENDBRANCH  18  19
ENDBRANCH  16  18
ENDBRANCH  12  16
ENDBRANCH   1  13
BRANCH   3  21
ATOM     21  N   UNL     1       2.103   7.560  18.976  0.00  0.00    +0.000 N 
ATOM     22  C   UNL     1       1.761   8.874  18.525  0.00  0.00    +0.000 C 
ATOM     23  O   UNL     1       2.287   9.329  17.523  0.00  0.00    +0.000 OA
ATOM     24  H   UNL     1       1.548   7.115  19.700  0.00  0.00    +0.000 HD
BRANCH  22  25
ATOM     25  C   UNL     1       0.645   9.564  19.226  0.00  0.00    +0.000 A 
ATOM     26  C   UNL     1      -0.473   9.942  18.454  0.00  0.00    +0.000 A 
ATOM     27  C   UNL     1      -1.576  10.621  19.017  0.00  0.00    +0.000 A 
ATOM     28  C   UNL     1      -1.526  10.890  20.394  0.00  0.00    +0.000 A 
ATOM     29  C   UNL     1      -0.425  10.518  21.171  0.00  0.00    +0.000 A 
ATOM     30  C   UNL     1       0.660   9.858  20.593  0.00  0.00    +0.000 A 
ATOM     31 CL   UNL     1       1.978   9.467  21.637  0.00  0.00    +0.000 Cl
BRANCH  27  32
ATOM     32  C   UNL     1      -2.735  11.020  18.184  0.00  0.00    +0.000 A 
ATOM     33  N   UNL     1      -3.694  11.741  18.830  0.00  0.00    +0.000 NA
ATOM     34  C   UNL     1      -4.771  12.142  18.110  0.00  0.00    +0.000 A 
ATOM     35  C   UNL     1      -4.955  11.861  16.766  0.00  0.00    +0.000 A 
ATOM     36  C   UNL     1      -3.976  11.122  16.115  0.00  0.00    +0.000 A 
ATOM     37  C   UNL     1      -2.862  10.697  16.830  0.00  0.00    +0.000 A 
ATOM     38  F   UNL     1      -1.937   9.964  16.193  0.00  0.00    +0.000 F 
ENDBRANCH  27  32
ENDBRANCH  22  25
ENDBRANCH   3  21
TORSDOF 8
ENDMDL
