MODEL 1
REMARK VINA RESULT:      -9.5      0.000      0.000
REMARK  Name = 
REMARK  10 active torsions:
REMARK  status: ('A' for Active; 'I' for Inactive)
REMARK    1  A    between atoms: C_2  and  C_4
REMARK    2  A    between atoms: C_7  and  C_8
REMARK    3  A    between atoms: C_8  and  N_9
REMARK    4  A    between atoms: C_10  and  C_12
REMARK    5  A    between atoms: C_12  and  C_13
REMARK    6  A    between atoms: C_14  and  C_15
REMARK    7  A    between atoms: C_23  and  N_24
REMARK    8  A    between atoms: N_24  and  C_25
REMARK    9  A    between atoms: C_25  and  C_26
REMARK   10  A    between atoms: C_26  and  C_27
REMARK                            x       y       z     vdW  Elec       q    Type
REMARK                         _______ _______ _______ _____ _____    ______ ____
ROOT
ATOM      1  C   UNL     1       3.961   6.253  17.985  0.00  0.00    +0.000 A 
ATOM      2  C   UNL     1       4.191   5.183  18.885  0.00  0.00    +0.000 A 
ATOM      3  C   UNL     1       5.559   4.953  19.194  0.00  0.00    +0.000 A 
ATOM      4  C   UNL     1       6.624   5.676  18.621  0.00  0.00    +0.000 A 
ATOM      5  C   UNL     1       6.389   6.670  17.682  0.00  0.00    +0.000 A 
ATOM      6  C   UNL     1       5.050   6.896  17.345  0.00  0.00    +0.000 A 
ATOM      7  F   UNL     1       4.757   7.790  16.381  0.00  0.00    +0.000 F 
ENDROOT
BRANCH   2   8
ATOM      8  C   UNL     1       3.128   4.273  19.476  0.00  0.00    +0.000 A 
ATOM      9  C   UNL     1       2.654   4.363  20.797  0.00  0.00    +0.000 A 
ATOM     10  C   UNL     1       1.649   3.562  21.334  0.00  0.00    +0.000 A 
ATOM     11  C   UNL     1       1.031   2.612  20.541  0.00  0.00    +0.000 A 
ATOM     12  C   UNL     1       1.434   2.487  19.221  0.00  0.00    +0.000 A 
ATOM     13  C   UNL     1       2.460   3.296  18.701  0.00  0.00    +0.000 A 
ENDBRANCH   2   8
BRANCH   5  14
ATOM     14  N   UNL     1       7.484   7.316  17.082  0.00  0.00    +0.000 N 
ATOM     15  H   UNL     1       8.311   6.727  17.050  0.00  0.00    +0.000 HD
BRANCH  14  16
ATOM     16  C   UNL     1       7.740   8.692  17.522  0.00  0.00    +0.000 C 
BRANCH  16  17
ATOM     17  C   UNL     1       8.689   8.725  18.722  0.00  0.00    +0.000 C 
BRANCH  17  18
ATOM     18  C   UNL     1       9.188  10.127  18.981  0.00  0.00    +0.000 A 
ATOM     19  C   UNL     1       9.365  10.582  20.296  0.00  0.00    +0.000 A 
ATOM     20  C   UNL     1       9.796  11.886  20.543  0.00  0.00    +0.000 A 
ATOM     21  C   UNL     1      10.047  12.751  19.479  0.00  0.00    +0.000 A 
ATOM     22  C   UNL     1       9.864  12.312  18.169  0.00  0.00    +0.000 A 
ATOM     23  C   UNL     1       9.433  11.007  17.919  0.00  0.00    +0.000 A 
ENDBRANCH  17  18
ENDBRANCH  16  17
ENDBRANCH  14  16
ENDBRANCH   5  14
BRANCH   1  24
ATOM     24  C   UNL     1       2.614   6.837  17.610  0.00  0.00    +0.000 C 
BRANCH  24  26
ATOM     25  N   UNL     1       1.719   9.074  17.982  0.00  0.00    +0.000 N 
ATOM     26  C   UNL     1       2.128   7.905  18.584  0.00  0.00    +0.000 C 
ATOM     27  O   UNL     1       2.180   7.782  19.805  0.00  0.00    +0.000 OA
ATOM     28  H   UNL     1       1.522   9.079  16.991  0.00  0.00    +0.000 HD
BRANCH  25  29
ATOM     29  C   UNL     1       1.239  10.178  18.781  0.00  0.00    +0.000 C 
BRANCH  29  33
ATOM     30  C   UNL     1      -2.928  10.992  18.005  0.00  0.00    +0.000 A 
ATOM     31  C   UNL     1      -2.274   9.964  17.323  0.00  0.00    +0.000 A 
ATOM     32  C   UNL     1      -0.920   9.712  17.560  0.00  0.00    +0.000 A 
ATOM     33  C   UNL     1      -0.206  10.479  18.498  0.00  0.00    +0.000 A 
ATOM     34  C   UNL     1      -0.876  11.512  19.178  0.00  0.00    +0.000 A 
ATOM     35  C   UNL     1      -2.226  11.767  18.933  0.00  0.00    +0.000 A 
BRANCH  30  37
ATOM     36  N   UNL     1      -5.176  11.447  18.725  0.00  0.00    +0.000 NA
ATOM     37  C   UNL     1      -4.369  11.257  17.736  0.00  0.00    +0.000 C 
ATOM     38  N   UNL     1      -4.830  11.270  16.453  0.00  0.00    +0.000 N 
ATOM     39  H   UNL     1      -6.113  11.658  18.372  0.00  0.00    +0.000 HD
ATOM     40  H   UNL     1      -5.825  11.100  16.349  0.00  0.00    +0.000 HD
ATOM     41  H   UNL     1      -4.292  10.720  15.795  0.00  0.00    +0.000 HD
ENDBRANCH  30  37
ENDBRANCH  29  33
ENDBRANCH  25  29
ENDBRANCH  24  26
ENDBRANCH   1  24
TORSDOF 10
ENDMDL
MODEL 2
REMARK VINA RESULT:      -9.4      0.300      1.175
REMARK  Name = 
REMARK  10 active torsions:
REMARK  status: ('A' for Active; 'I' for Inactive)
REMARK    1  A    between atoms: C_2  and  C_4
REMARK    2  A    between atoms: C_7  and  C_8
REMARK    3  A    between atoms: C_8  and  N_9
REMARK    4  A    between atoms: C_10  and  C_12
REMARK    5  A    between atoms: C_12  and  C_13
REMARK    6  A    between atoms: C_14  and  C_15
REMARK    7  A    between atoms: C_23  and  N_24
REMARK    8  A    between atoms: N_24  and  C_25
REMARK    9  A    between atoms: C_25  and  C_26
REMARK   10  A    between atoms: C_26  and  C_27
REMARK                            x       y       z     vdW  Elec       q    Type
REMARK                         _______ _______ _______ _____ _____    ______ ____
ROOT
ATOM      1  C   UNL     1       4.011   6.220  17.914  0.00  0.00    +0.000 A 
ATOM      2  C   UNL     1       4.207   5.091  18.748  0.00  0.00    +0.000 A 
ATOM      3  C   UNL     1       5.567   4.805  19.046  0.00  0.00    +0.000 A 
ATOM      4  C   UNL     1       6.654   5.531  18.520  0.00  0.00    +0.000 A 
ATOM      5  C   UNL     1       6.451   6.585  17.642  0.00  0.00    +0.000 A 
ATOM      6  C   UNL     1       5.120   6.869  17.316  0.00  0.00    +0.000 A 
ATOM      7  F   UNL     1       4.855   7.827  16.407  0.00  0.00    +0.000 F 
ENDROOT
BRANCH   2   8
ATOM      8  C   UNL     1       3.117   4.178  19.281  0.00  0.00    +0.000 A 
ATOM      9  C   UNL     1       2.632   4.210  20.601  0.00  0.00    +0.000 A 
ATOM     10  C   UNL     1       1.602   3.406  21.086  0.00  0.00    +0.000 A 
ATOM     11  C   UNL     1       0.971   2.515  20.239  0.00  0.00    +0.000 A 
ATOM     12  C   UNL     1       1.384   2.449  18.918  0.00  0.00    +0.000 A 
ATOM     13  C   UNL     1       2.434   3.259  18.450  0.00  0.00    +0.000 A 
ENDBRANCH   2   8
BRANCH   5  14
ATOM     14  N   UNL     1       7.566   7.236  17.084  0.00  0.00    +0.000 N 
ATOM     15  H   UNL     1       8.404   6.662  17.114  0.00  0.00    +0.000 HD
BRANCH  14  16
ATOM     16  C   UNL     1       7.773   8.628  17.498  0.00  0.00    +0.000 C 
BRANCH  16  17
ATOM     17  C   UNL     1       8.613   8.710  18.774  0.00  0.00    +0.000 C 
BRANCH  17  18
ATOM     18  C   UNL     1       9.131  10.112  18.994  0.00  0.00    +0.000 A 
ATOM     19  C   UNL     1       9.406  10.944  17.900  0.00  0.00    +0.000 A 
ATOM     20  C   UNL     1       9.915  12.228  18.096  0.00  0.00    +0.000 A 
ATOM     21  C   UNL     1      10.159  12.692  19.387  0.00  0.00    +0.000 A 
ATOM     22  C   UNL     1       9.899  11.869  20.482  0.00  0.00    +0.000 A 
ATOM     23  C   UNL     1       9.390  10.583  20.288  0.00  0.00    +0.000 A 
ENDBRANCH  17  18
ENDBRANCH  16  17
ENDBRANCH  14  16
ENDBRANCH   5  14
BRANCH   1  24
ATOM     24  C   UNL     1       2.682   6.863  17.572  0.00  0.00    +0.000 C 
BRANCH  24  26
ATOM     25  N   UNL     1       1.783   9.054  18.149  0.00  0.00    +0.000 N 
ATOM     26  C   UNL     1       2.190   7.834  18.640  0.00  0.00    +0.000 C 
ATOM     27  O   UNL     1       2.235   7.595  19.844  0.00  0.00    +0.000 OA
ATOM     28  H   UNL     1       1.592   9.153  17.162  0.00  0.00    +0.000 HD
BRANCH  25  29
ATOM     29  C   UNL     1       1.298  10.078  19.047  0.00  0.00    +0.000 C 
BRANCH  29  33
ATOM     30  C   UNL     1      -2.755  11.235  18.116  0.00  0.00    +0.000 A 
ATOM     31  C   UNL     1      -2.091  11.812  19.201  0.00  0.00    +0.000 A 
ATOM     32  C   UNL     1      -0.785  11.423  19.515  0.00  0.00    +0.000 A 
ATOM     33  C   UNL     1      -0.121  10.462  18.732  0.00  0.00    +0.000 A 
ATOM     34  C   UNL     1      -0.800   9.889  17.642  0.00  0.00    +0.000 A 
ATOM     35  C   UNL     1      -2.106  10.273  17.336  0.00  0.00    +0.000 A 
BRANCH  30  37
ATOM     36  N   UNL     1      -4.724  12.553  18.521  0.00  0.00    +0.000 NA
ATOM     37  C   UNL     1      -4.149  11.651  17.798  0.00  0.00    +0.000 C 
ATOM     38  N   UNL     1      -4.817  11.060  16.767  0.00  0.00    +0.000 N 
ATOM     39  H   UNL     1      -5.655  12.754  18.148  0.00  0.00    +0.000 HD
ATOM     40  H   UNL     1      -5.830  11.113  16.821  0.00  0.00    +0.000 HD
ATOM     41  H   UNL     1      -4.510  10.124  16.534  0.00  0.00    +0.000 HD
ENDBRANCH  30  37
ENDBRANCH  29  33
ENDBRANCH  25  29
ENDBRANCH  24  26
ENDBRANCH   1  24
TORSDOF 10
ENDMDL
MODEL 3
REMARK VINA RESULT:      -9.1      0.628      1.324
REMARK  Name = 
REMARK  10 active torsions:
REMARK  status: ('A' for Active; 'I' for Inactive)
REMARK    1  A    between atoms: C_2  and  C_4
REMARK    2  A    between atoms: C_7  and  C_8
REMARK    3  A    between atoms: C_8  and  N_9
REMARK    4  A    between atoms: C_10  and  C_12
REMARK    5  A    between atoms: C_12  and  C_13
REMARK    6  A    between atoms: C_14  and  C_15
REMARK    7  A    between atoms: C_23  and  N_24
REMARK    8  A    between atoms: N_24  and  C_25
REMARK    9  A    between atoms: C_25  and  C_26
REMARK   10  A    between atoms: C_26  and  C_27
REMARK                            x       y       z     vdW  Elec       q    Type
REMARK                         _______ _______ _______ _____ _____    ______ ____
ROOT
ATOM      1  C   UNL     1       4.080   6.251  17.988  0.00  0.00    +0.000 A 
ATOM      2  C   UNL     1       4.158   5.133  18.854  0.00  0.00    +0.000 A 
ATOM      3  C   UNL     1       5.472   4.806  19.282  0.00  0.00    +0.000 A 
ATOM      4  C   UNL     1       6.629   5.484  18.849  0.00  0.00    +0.000 A 
ATOM      5  C   UNL     1       6.546   6.528  17.940  0.00  0.00    +0.000 A 
ATOM      6  C   UNL     1       5.262   6.851  17.486  0.00  0.00    +0.000 A 
ATOM      7  F   UNL     1       5.119   7.800  16.542  0.00  0.00    +0.000 F 
ENDROOT
BRANCH   2   8
ATOM      8  C   UNL     1       2.990   4.268  19.297  0.00  0.00    +0.000 A 
ATOM      9  C   UNL     1       2.363   3.306  18.485  0.00  0.00    +0.000 A 
ATOM     10  C   UNL     1       1.321   2.479  18.897  0.00  0.00    +0.000 A 
ATOM     11  C   UNL     1       0.852   2.562  20.195  0.00  0.00    +0.000 A 
ATOM     12  C   UNL     1       1.442   3.473  21.057  0.00  0.00    +0.000 A 
ATOM     13  C   UNL     1       2.484   4.309  20.618  0.00  0.00    +0.000 A 
ENDBRANCH   2   8
BRANCH   5  14
ATOM     14  N   UNL     1       7.731   7.129  17.478  0.00  0.00    +0.000 N 
ATOM     15  H   UNL     1       8.563   6.665  17.832  0.00  0.00    +0.000 HD
BRANCH  14  16
ATOM     16  C   UNL     1       7.780   8.593  17.550  0.00  0.00    +0.000 C 
BRANCH  16  17
ATOM     17  C   UNL     1       8.724   9.065  18.657  0.00  0.00    +0.000 C 
BRANCH  17  18
ATOM     18  C   UNL     1       9.156  10.495  18.431  0.00  0.00    +0.000 A 
ATOM     19  C   UNL     1      10.404  10.938  18.892  0.00  0.00    +0.000 A 
ATOM     20  C   UNL     1      10.795  12.266  18.714  0.00  0.00    +0.000 A 
ATOM     21  C   UNL     1       9.941  13.165  18.079  0.00  0.00    +0.000 A 
ATOM     22  C   UNL     1       8.695  12.737  17.625  0.00  0.00    +0.000 A 
ATOM     23  C   UNL     1       8.300  11.410  17.802  0.00  0.00    +0.000 A 
ENDBRANCH  17  18
ENDBRANCH  16  17
ENDBRANCH  14  16
ENDBRANCH   5  14
BRANCH   1  24
ATOM     24  C   UNL     1       2.813   6.933  17.513  0.00  0.00    +0.000 C 
BRANCH  24  26
ATOM     25  N   UNL     1       1.876   9.133  17.985  0.00  0.00    +0.000 N 
ATOM     26  C   UNL     1       2.245   7.923  18.525  0.00  0.00    +0.000 C 
ATOM     27  O   UNL     1       2.204   7.706  19.733  0.00  0.00    +0.000 OA
ATOM     28  H   UNL     1       1.756   9.215  16.984  0.00  0.00    +0.000 HD
BRANCH  25  29
ATOM     29  C   UNL     1       1.328  10.172  18.826  0.00  0.00    +0.000 C 
BRANCH  29  33
ATOM     30  C   UNL     1      -2.719  11.162  17.695  0.00  0.00    +0.000 A 
ATOM     31  C   UNL     1      -2.008  11.996  18.560  0.00  0.00    +0.000 A 
ATOM     32  C   UNL     1      -0.704  11.666  18.942  0.00  0.00    +0.000 A 
ATOM     33  C   UNL     1      -0.089  10.502  18.447  0.00  0.00    +0.000 A 
ATOM     34  C   UNL     1      -0.816   9.670  17.576  0.00  0.00    +0.000 A 
ATOM     35  C   UNL     1      -2.121   9.998  17.203  0.00  0.00    +0.000 A 
BRANCH  30  37
ATOM     36  N   UNL     1      -4.817  12.270  18.082  0.00  0.00    +0.000 NA
ATOM     37  C   UNL     1      -4.111  11.520  17.304  0.00  0.00    +0.000 C 
ATOM     38  N   UNL     1      -4.638  11.034  16.144  0.00  0.00    +0.000 N 
ATOM     39  H   UNL     1      -5.726  12.456  17.651  0.00  0.00    +0.000 HD
ATOM     40  H   UNL     1      -5.652  11.008  16.107  0.00  0.00    +0.000 HD
ATOM     41  H   UNL     1      -4.236  10.163  15.819  0.00  0.00    +0.000 HD
ENDBRANCH  30  37
ENDBRANCH  29  33
ENDBRANCH  25  29
ENDBRANCH  24  26
ENDBRANCH   1  24
TORSDOF 10
ENDMDL
MODEL 4
REMARK VINA RESULT:      -9.0      4.132      7.232
REMARK  Name = 
REMARK  10 active torsions:
REMARK  status: ('A' for Active; 'I' for Inactive)
REMARK    1  A    between atoms: C_2  and  C_4
REMARK    2  A    between atoms: C_7  and  C_8
REMARK    3  A    between atoms: C_8  and  N_9
REMARK    4  A    between atoms: C_10  and  C_12
REMARK    5  A    between atoms: C_12  and  C_13
REMARK    6  A    between atoms: C_14  and  C_15
REMARK    7  A    between atoms: C_23  and  N_24
REMARK    8  A    between atoms: N_24  and  C_25
REMARK    9  A    between atoms: C_25  and  C_26
REMARK   10  A    between atoms: C_26  and  C_27
REMARK                            x       y       z     vdW  Elec       q    Type
REMARK                         _______ _______ _______ _____ _____    ______ ____
ROOT
ATOM      1  C   UNL     1       1.261   8.243  19.805  0.00  0.00    +0.000 A 
ATOM      2  C   UNL     1       1.322   9.275  18.835  0.00  0.00    +0.000 A 
ATOM      3  C   UNL     1       2.238   9.038  17.775  0.00  0.00    +0.000 A 
ATOM      4  C   UNL     1       3.075   7.907  17.702  0.00  0.00    +0.000 A 
ATOM      5  C   UNL     1       3.062   6.942  18.698  0.00  0.00    +0.000 A 
ATOM      6  C   UNL     1       2.183   7.168  19.764  0.00  0.00    +0.000 A 
ATOM      7  F   UNL     1       2.178   6.312  20.804  0.00  0.00    +0.000 F 
ENDROOT
BRANCH   2   8
ATOM      8  C   UNL     1       0.546  10.580  18.875  0.00  0.00    +0.000 A 
ATOM      9  C   UNL     1      -0.818  10.701  18.553  0.00  0.00    +0.000 A 
ATOM     10  C   UNL     1      -1.547  11.885  18.629  0.00  0.00    +0.000 A 
ATOM     11  C   UNL     1      -0.932  13.043  19.066  0.00  0.00    +0.000 A 
ATOM     12  C   UNL     1       0.407  12.990  19.422  0.00  0.00    +0.000 A 
ATOM     13  C   UNL     1       1.130  11.787  19.326  0.00  0.00    +0.000 A 
ENDBRANCH   2   8
BRANCH   5  14
ATOM     14  N   UNL     1       3.964   5.866  18.621  0.00  0.00    +0.000 N 
ATOM     15  H   UNL     1       4.925   6.156  18.782  0.00  0.00    +0.000 HD
BRANCH  14  16
ATOM     16  C   UNL     1       3.791   4.960  17.481  0.00  0.00    +0.000 C 
BRANCH  16  17
ATOM     17  C   UNL     1       3.790   3.497  17.928  0.00  0.00    +0.000 C 
BRANCH  17  18
ATOM     18  C   UNL     1       2.902   3.296  19.134  0.00  0.00    +0.000 A 
ATOM     19  C   UNL     1       3.444   2.836  20.343  0.00  0.00    +0.000 A 
ATOM     20  C   UNL     1       2.624   2.619  21.450  0.00  0.00    +0.000 A 
ATOM     21  C   UNL     1       1.254   2.854  21.360  0.00  0.00    +0.000 A 
ATOM     22  C   UNL     1       0.703   3.302  20.160  0.00  0.00    +0.000 A 
ATOM     23  C   UNL     1       1.521   3.519  19.050  0.00  0.00    +0.000 A 
ENDBRANCH  17  18
ENDBRANCH  16  17
ENDBRANCH  14  16
ENDBRANCH   5  14
BRANCH   1  24
ATOM     24  C   UNL     1       0.264   8.137  20.941  0.00  0.00    +0.000 C 
BRANCH  24  26
ATOM     25  N   UNL     1      -0.706   9.949  22.251  0.00  0.00    +0.000 N 
ATOM     26  C   UNL     1       0.436   9.224  21.997  0.00  0.00    +0.000 C 
ATOM     27  O   UNL     1       1.515   9.500  22.514  0.00  0.00    +0.000 OA
ATOM     28  H   UNL     1      -1.601   9.589  21.950  0.00  0.00    +0.000 HD
BRANCH  25  29
ATOM     29  C   UNL     1      -0.691  11.017  23.224  0.00  0.00    +0.000 C 
BRANCH  29  33
ATOM     30  C   UNL     1      -2.873  14.484  21.863  0.00  0.00    +0.000 A 
ATOM     31  C   UNL     1      -3.445  13.214  21.773  0.00  0.00    +0.000 A 
ATOM     32  C   UNL     1      -2.732  12.088  22.195  0.00  0.00    +0.000 A 
ATOM     33  C   UNL     1      -1.439  12.225  22.732  0.00  0.00    +0.000 A 
ATOM     34  C   UNL     1      -0.873  13.510  22.817  0.00  0.00    +0.000 A 
ATOM     35  C   UNL     1      -1.585  14.630  22.386  0.00  0.00    +0.000 A 
BRANCH  30  37
ATOM     36  N   UNL     1      -3.561  16.039  20.163  0.00  0.00    +0.000 NA
ATOM     37  C   UNL     1      -3.640  15.674  21.399  0.00  0.00    +0.000 C 
ATOM     38  N   UNL     1      -4.397  16.382  22.284  0.00  0.00    +0.000 N 
ATOM     39  H   UNL     1      -4.177  16.840  19.999  0.00  0.00    +0.000 HD
ATOM     40  H   UNL     1      -4.595  17.341  22.014  0.00  0.00    +0.000 HD
ATOM     41  H   UNL     1      -4.098  16.327  23.249  0.00  0.00    +0.000 HD
ENDBRANCH  30  37
ENDBRANCH  29  33
ENDBRANCH  25  29
ENDBRANCH  24  26
ENDBRANCH   1  24
TORSDOF 10
ENDMDL
MODEL 5
REMARK VINA RESULT:      -9.0      4.151      7.273
REMARK  Name = 
REMARK  10 active torsions:
REMARK  status: ('A' for Active; 'I' for Inactive)
REMARK    1  A    between atoms: C_2  and  C_4
REMARK    2  A    between atoms: C_7  and  C_8
REMARK    3  A    between atoms: C_8  and  N_9
REMARK    4  A    between atoms: C_10  and  C_12
REMARK    5  A    between atoms: C_12  and  C_13
REMARK    6  A    between atoms: C_14  and  C_15
REMARK    7  A    between atoms: C_23  and  N_24
REMARK    8  A    between atoms: N_24  and  C_25
REMARK    9  A    between atoms: C_25  and  C_26
REMARK   10  A    between atoms: C_26  and  C_27
REMARK                            x       y       z     vdW  Elec       q    Type
REMARK                         _______ _______ _______ _____ _____    ______ ____
ROOT
ATOM      1  C   UNL     1       1.394   8.223  19.749  0.00  0.00    +0.000 A 
ATOM      2  C   UNL     1       1.454   9.148  18.677  0.00  0.00    +0.000 A 
ATOM      3  C   UNL     1       2.342   8.782  17.629  0.00  0.00    +0.000 A 
ATOM      4  C   UNL     1       3.153   7.630  17.656  0.00  0.00    +0.000 A 
ATOM      5  C   UNL     1       3.141   6.773  18.747  0.00  0.00    +0.000 A 
ATOM      6  C   UNL     1       2.292   7.128  19.801  0.00  0.00    +0.000 A 
ATOM      7  F   UNL     1       2.293   6.384  20.924  0.00  0.00    +0.000 F 
ENDROOT
BRANCH   2   8
ATOM      8  C   UNL     1       0.707  10.467  18.597  0.00  0.00    +0.000 A 
ATOM      9  C   UNL     1      -0.657  10.587  18.276  0.00  0.00    +0.000 A 
ATOM     10  C   UNL     1      -1.360  11.790  18.243  0.00  0.00    +0.000 A 
ATOM     11  C   UNL     1      -0.715  12.970  18.562  0.00  0.00    +0.000 A 
ATOM     12  C   UNL     1       0.625  12.921  18.911  0.00  0.00    +0.000 A 
ATOM     13  C   UNL     1       1.321  11.699  18.926  0.00  0.00    +0.000 A 
ENDBRANCH   2   8
BRANCH   5  14
ATOM     14  N   UNL     1       4.020   5.675  18.764  0.00  0.00    +0.000 N 
ATOM     15  H   UNL     1       4.962   5.938  19.037  0.00  0.00    +0.000 HD
BRANCH  14  16
ATOM     16  C   UNL     1       3.956   4.781  17.602  0.00  0.00    +0.000 C 
BRANCH  16  17
ATOM     17  C   UNL     1       3.880   3.315  18.031  0.00  0.00    +0.000 C 
BRANCH  17  18
ATOM     18  C   UNL     1       2.942   3.138  19.202  0.00  0.00    +0.000 A 
ATOM     19  C   UNL     1       1.576   3.423  19.062  0.00  0.00    +0.000 A 
ATOM     20  C   UNL     1       0.709   3.292  20.147  0.00  0.00    +0.000 A 
ATOM     21  C   UNL     1       1.200   2.881  21.385  0.00  0.00    +0.000 A 
ATOM     22  C   UNL     1       2.557   2.605  21.538  0.00  0.00    +0.000 A 
ATOM     23  C   UNL     1       3.427   2.736  20.453  0.00  0.00    +0.000 A 
ENDBRANCH  17  18
ENDBRANCH  16  17
ENDBRANCH  14  16
ENDBRANCH   5  14
BRANCH   1  24
ATOM     24  C   UNL     1       0.421   8.258  20.910  0.00  0.00    +0.000 C 
BRANCH  24  26
ATOM     25  N   UNL     1      -0.601  10.341  21.658  0.00  0.00    +0.000 N 
ATOM     26  C   UNL     1       0.513   9.536  21.736  0.00  0.00    +0.000 C 
ATOM     27  O   UNL     1       1.523   9.876  22.346  0.00  0.00    +0.000 OA
ATOM     28  H   UNL     1      -1.466   9.958  21.301  0.00  0.00    +0.000 HD
BRANCH  25  29
ATOM     29  C   UNL     1      -0.653  11.590  22.383  0.00  0.00    +0.000 C 
BRANCH  29  33
ATOM     30  C   UNL     1      -4.692  13.017  22.914  0.00  0.00    +0.000 A 
ATOM     31  C   UNL     1      -3.957  12.566  24.012  0.00  0.00    +0.000 A 
ATOM     32  C   UNL     1      -2.656  12.086  23.838  0.00  0.00    +0.000 A 
ATOM     33  C   UNL     1      -2.068  12.068  22.560  0.00  0.00    +0.000 A 
ATOM     34  C   UNL     1      -2.819  12.524  21.463  0.00  0.00    +0.000 A 
ATOM     35  C   UNL     1      -4.121  12.996  21.638  0.00  0.00    +0.000 A 
BRANCH  30  37
ATOM     36  N   UNL     1      -6.626  13.436  24.279  0.00  0.00    +0.000 NA
ATOM     37  C   UNL     1      -6.082  13.517  23.112  0.00  0.00    +0.000 C 
ATOM     38  N   UNL     1      -6.776  14.031  22.057  0.00  0.00    +0.000 N 
ATOM     39  H   UNL     1      -7.557  13.859  24.257  0.00  0.00    +0.000 HD
ATOM     40  H   UNL     1      -7.786  14.020  22.157  0.00  0.00    +0.000 HD
ATOM     41  H   UNL     1      -6.493  13.691  21.147  0.00  0.00    +0.000 HD
ENDBRANCH  30  37
ENDBRANCH  29  33
ENDBRANCH  25  29
ENDBRANCH  24  26
ENDBRANCH   1  24
TORSDOF 10
ENDMDL
MODEL 6
REMARK VINA RESULT:      -8.9      4.159      7.273
REMARK  Name = 
REMARK  10 active torsions:
REMARK  status: ('A' for Active; 'I' for Inactive)
REMARK    1  A    between atoms: C_2  and  C_4
REMARK    2  A    between atoms: C_7  and  C_8
REMARK    3  A    between atoms: C_8  and  N_9
REMARK    4  A    between atoms: C_10  and  C_12
REMARK    5  A    between atoms: C_12  and  C_13
REMARK    6  A    between atoms: C_14  and  C_15
REMARK    7  A    between atoms: C_23  and  N_24
REMARK    8  A    between atoms: N_24  and  C_25
REMARK    9  A    between atoms: C_25  and  C_26
REMARK   10  A    between atoms: C_26  and  C_27
REMARK                            x       y       z     vdW  Elec       q    Type
REMARK                         _______ _______ _______ _____ _____    ______ ____
ROOT
ATOM      1  C   UNL     1       1.242   8.278  19.786  0.00  0.00    +0.000 A 
ATOM      2  C   UNL     1       1.317   9.310  18.818  0.00  0.00    +0.000 A 
ATOM      3  C   UNL     1       2.232   9.064  17.759  0.00  0.00    +0.000 A 
ATOM      4  C   UNL     1       3.055   7.922  17.685  0.00  0.00    +0.000 A 
ATOM      5  C   UNL     1       3.029   6.956  18.680  0.00  0.00    +0.000 A 
ATOM      6  C   UNL     1       2.152   7.192  19.745  0.00  0.00    +0.000 A 
ATOM      7  F   UNL     1       2.135   6.335  20.784  0.00  0.00    +0.000 F 
ENDROOT
BRANCH   2   8
ATOM      8  C   UNL     1       0.557  10.624  18.858  0.00  0.00    +0.000 A 
ATOM      9  C   UNL     1      -0.815  10.755  18.575  0.00  0.00    +0.000 A 
ATOM     10  C   UNL     1      -1.528  11.949  18.652  0.00  0.00    +0.000 A 
ATOM     11  C   UNL     1      -0.887  13.107  19.051  0.00  0.00    +0.000 A 
ATOM     12  C   UNL     1       0.460  13.045  19.367  0.00  0.00    +0.000 A 
ATOM     13  C   UNL     1       1.167  11.832  19.271  0.00  0.00    +0.000 A 
ENDBRANCH   2   8
BRANCH   5  14
ATOM     14  N   UNL     1       3.919   5.870  18.604  0.00  0.00    +0.000 N 
ATOM     15  H   UNL     1       4.886   6.152  18.736  0.00  0.00    +0.000 HD
BRANCH  14  16
ATOM     16  C   UNL     1       3.709   4.943  17.486  0.00  0.00    +0.000 C 
BRANCH  16  17
ATOM     17  C   UNL     1       3.784   3.487  17.949  0.00  0.00    +0.000 C 
BRANCH  17  18
ATOM     18  C   UNL     1       2.894   3.250  19.147  0.00  0.00    +0.000 A 
ATOM     19  C   UNL     1       1.519   3.510  19.068  0.00  0.00    +0.000 A 
ATOM     20  C   UNL     1       0.697   3.323  20.180  0.00  0.00    +0.000 A 
ATOM     21  C   UNL     1       1.242   2.882  21.383  0.00  0.00    +0.000 A 
ATOM     22  C   UNL     1       2.610   2.630  21.476  0.00  0.00    +0.000 A 
ATOM     23  C   UNL     1       3.435   2.817  20.365  0.00  0.00    +0.000 A 
ENDBRANCH  17  18
ENDBRANCH  16  17
ENDBRANCH  14  16
ENDBRANCH   5  14
BRANCH   1  24
ATOM     24  C   UNL     1       0.243   8.183  20.921  0.00  0.00    +0.000 C 
BRANCH  24  26
ATOM     25  N   UNL     1      -0.710  10.017  22.214  0.00  0.00    +0.000 N 
ATOM     26  C   UNL     1       0.421   9.270  21.975  0.00  0.00    +0.000 C 
ATOM     27  O   UNL     1       1.499   9.529  22.504  0.00  0.00    +0.000 OA
ATOM     28  H   UNL     1      -1.607   9.671  21.903  0.00  0.00    +0.000 HD
BRANCH  25  29
ATOM     29  C   UNL     1      -0.687  11.088  23.183  0.00  0.00    +0.000 C 
BRANCH  29  33
ATOM     30  C   UNL     1      -2.917  14.506  21.778  0.00  0.00    +0.000 A 
ATOM     31  C   UNL     1      -1.660  14.679  22.360  0.00  0.00    +0.000 A 
ATOM     32  C   UNL     1      -0.946  13.574  22.833  0.00  0.00    +0.000 A 
ATOM     33  C   UNL     1      -1.476  12.278  22.712  0.00  0.00    +0.000 A 
ATOM     34  C   UNL     1      -2.744  12.117  22.123  0.00  0.00    +0.000 A 
ATOM     35  C   UNL     1      -3.458  13.223  21.660  0.00  0.00    +0.000 A 
BRANCH  30  37
ATOM     36  N   UNL     1      -4.628  16.179  22.006  0.00  0.00    +0.000 NA
ATOM     37  C   UNL     1      -3.673  15.693  21.287  0.00  0.00    +0.000 C 
ATOM     38  N   UNL     1      -3.369  16.239  20.076  0.00  0.00    +0.000 N 
ATOM     39  H   UNL     1      -5.013  17.012  21.551  0.00  0.00    +0.000 HD
ATOM     40  H   UNL     1      -4.111  16.785  19.649  0.00  0.00    +0.000 HD
ATOM     41  H   UNL     1      -2.949  15.603  19.408  0.00  0.00    +0.000 HD
ENDBRANCH  30  37
ENDBRANCH  29  33
ENDBRANCH  25  29
ENDBRANCH  24  26
ENDBRANCH   1  24
TORSDOF 10
ENDMDL
MODEL 7
REMARK VINA RESULT:      -8.8      4.122      7.214
REMARK  Name = 
REMARK  10 active torsions:
REMARK  status: ('A' for Active; 'I' for Inactive)
REMARK    1  A    between atoms: C_2  and  C_4
REMARK    2  A    between atoms: C_7  and  C_8
REMARK    3  A    between atoms: C_8  and  N_9
REMARK    4  A    between atoms: C_10  and  C_12
REMARK    5  A    between atoms: C_12  and  C_13
REMARK    6  A    between atoms: C_14  and  C_15
REMARK    7  A    between atoms: C_23  and  N_24
REMARK    8  A    between atoms: N_24  and  C_25
REMARK    9  A    between atoms: C_25  and  C_26
REMARK   10  A    between atoms: C_26  and  C_27
REMARK                            x       y       z     vdW  Elec       q    Type
REMARK                         _______ _______ _______ _____ _____    ______ ____
ROOT
ATOM      1  C   UNL     1       1.301   8.246  19.858  0.00  0.00    +0.000 A 
ATOM      2  C   UNL     1       1.375   9.181  18.796  0.00  0.00    +0.000 A 
ATOM      3  C   UNL     1       2.265   8.818  17.749  0.00  0.00    +0.000 A 
ATOM      4  C   UNL     1       3.065   7.659  17.769  0.00  0.00    +0.000 A 
ATOM      5  C   UNL     1       3.041   6.791  18.850  0.00  0.00    +0.000 A 
ATOM      6  C   UNL     1       2.189   7.143  19.904  0.00  0.00    +0.000 A 
ATOM      7  F   UNL     1       2.177   6.388  21.019  0.00  0.00    +0.000 F 
ENDROOT
BRANCH   2   8
ATOM      8  C   UNL     1       0.640  10.508  18.725  0.00  0.00    +0.000 A 
ATOM      9  C   UNL     1       1.225  11.755  19.014  0.00  0.00    +0.000 A 
ATOM     10  C   UNL     1       0.569  12.980  18.910  0.00  0.00    +0.000 A 
ATOM     11  C   UNL     1      -0.743  13.021  18.476  0.00  0.00    +0.000 A 
ATOM     12  C   UNL     1      -1.373  11.830  18.153  0.00  0.00    +0.000 A 
ATOM     13  C   UNL     1      -0.699  10.602  18.276  0.00  0.00    +0.000 A 
ENDBRANCH   2   8
BRANCH   5  14
ATOM     14  N   UNL     1       3.909   5.685  18.861  0.00  0.00    +0.000 N 
ATOM     15  H   UNL     1       4.770   5.874  19.367  0.00  0.00    +0.000 HD
BRANCH  14  16
ATOM     16  C   UNL     1       4.103   5.007  17.575  0.00  0.00    +0.000 C 
BRANCH  16  17
ATOM     17  C   UNL     1       3.348   3.677  17.528  0.00  0.00    +0.000 C 
BRANCH  17  18
ATOM     18  C   UNL     1       2.674   3.387  18.848  0.00  0.00    +0.000 A 
ATOM     19  C   UNL     1       1.303   3.631  19.011  0.00  0.00    +0.000 A 
ATOM     20  C   UNL     1       0.681   3.396  20.237  0.00  0.00    +0.000 A 
ATOM     21  C   UNL     1       1.424   2.920  21.315  0.00  0.00    +0.000 A 
ATOM     22  C   UNL     1       2.790   2.683  21.168  0.00  0.00    +0.000 A 
ATOM     23  C   UNL     1       3.415   2.918  19.942  0.00  0.00    +0.000 A 
ENDBRANCH  17  18
ENDBRANCH  16  17
ENDBRANCH  14  16
ENDBRANCH   5  14
BRANCH   1  24
ATOM     24  C   UNL     1       0.321   8.278  21.014  0.00  0.00    +0.000 C 
BRANCH  24  26
ATOM     25  N   UNL     1      -0.732  10.305  21.866  0.00  0.00    +0.000 N 
ATOM     26  C   UNL     1       0.418   9.548  21.852  0.00  0.00    +0.000 C 
ATOM     27  O   UNL     1       1.454   9.923  22.394  0.00  0.00    +0.000 OA
ATOM     28  H   UNL     1      -1.603   9.889  21.565  0.00  0.00    +0.000 HD
BRANCH  25  29
ATOM     29  C   UNL     1      -0.785  11.541  22.613  0.00  0.00    +0.000 C 
BRANCH  29  33
ATOM     30  C   UNL     1      -4.771  13.196  22.554  0.00  0.00    +0.000 A 
ATOM     31  C   UNL     1      -4.016  13.140  21.381  0.00  0.00    +0.000 A 
ATOM     32  C   UNL     1      -2.718  12.622  21.403  0.00  0.00    +0.000 A 
ATOM     33  C   UNL     1      -2.165  12.136  22.601  0.00  0.00    +0.000 A 
ATOM     34  C   UNL     1      -2.936  12.197  23.776  0.00  0.00    +0.000 A 
ATOM     35  C   UNL     1      -4.228  12.723  23.752  0.00  0.00    +0.000 A 
BRANCH  30  37
ATOM     36  N   UNL     1      -6.797  13.785  21.402  0.00  0.00    +0.000 NA
ATOM     37  C   UNL     1      -6.149  13.760  22.518  0.00  0.00    +0.000 C 
ATOM     38  N   UNL     1      -6.706  14.267  23.655  0.00  0.00    +0.000 N 
ATOM     39  H   UNL     1      -7.736  14.159  21.556  0.00  0.00    +0.000 HD
ATOM     40  H   UNL     1      -7.458  14.933  23.508  0.00  0.00    +0.000 HD
ATOM     41  H   UNL     1      -6.046  14.603  24.345  0.00  0.00    +0.000 HD
ENDBRANCH  30  37
ENDBRANCH  29  33
ENDBRANCH  25  29
ENDBRANCH  24  26
ENDBRANCH   1  24
TORSDOF 10
ENDMDL
MODEL 8
REMARK VINA RESULT:      -8.7      2.313      3.414
REMARK  Name = 
REMARK  10 active torsions:
REMARK  status: ('A' for Active; 'I' for Inactive)
REMARK    1  A    between atoms: C_2  and  C_4
REMARK    2  A    between atoms: C_7  and  C_8
REMARK    3  A    between atoms: C_8  and  N_9
REMARK    4  A    between atoms: C_10  and  C_12
REMARK    5  A    between atoms: C_12  and  C_13
REMARK    6  A    between atoms: C_14  and  C_15
REMARK    7  A    between atoms: C_23  and  N_24
REMARK    8  A    between atoms: N_24  and  C_25
REMARK    9  A    between atoms: C_25  and  C_26
REMARK   10  A    between atoms: C_26  and  C_27
REMARK                            x       y       z     vdW  Elec       q    Type
REMARK                         _______ _______ _______ _____ _____    ______ ____
ROOT
ATOM      1  C   UNL     1       3.903   6.278  18.024  0.00  0.00    +0.000 A 
ATOM      2  C   UNL     1       4.088   5.168  18.886  0.00  0.00    +0.000 A 
ATOM      3  C   UNL     1       5.443   4.879  19.196  0.00  0.00    +0.000 A 
ATOM      4  C   UNL     1       6.538   5.584  18.658  0.00  0.00    +0.000 A 
ATOM      5  C   UNL     1       6.347   6.619  17.755  0.00  0.00    +0.000 A 
ATOM      6  C   UNL     1       5.020   6.905  17.416  0.00  0.00    +0.000 A 
ATOM      7  F   UNL     1       4.767   7.844  16.484  0.00  0.00    +0.000 F 
ENDROOT
BRANCH   2   8
ATOM      8  C   UNL     1       2.988   4.276  19.435  0.00  0.00    +0.000 A 
ATOM      9  C   UNL     1       2.249   3.362  18.662  0.00  0.00    +0.000 A 
ATOM     10  C   UNL     1       1.269   2.510  19.166  0.00  0.00    +0.000 A 
ATOM     11  C   UNL     1       0.985   2.514  20.519  0.00  0.00    +0.000 A 
ATOM     12  C   UNL     1       1.694   3.374  21.343  0.00  0.00    +0.000 A 
ATOM     13  C   UNL     1       2.671   4.237  20.813  0.00  0.00    +0.000 A 
ENDBRANCH   2   8
BRANCH   5  14
ATOM     14  N   UNL     1       7.469   7.248  17.187  0.00  0.00    +0.000 N 
ATOM     15  H   UNL     1       8.024   6.612  16.621  0.00  0.00    +0.000 HD
BRANCH  14  16
ATOM     16  C   UNL     1       8.257   8.095  18.089  0.00  0.00    +0.000 C 
BRANCH  16  17
ATOM     17  C   UNL     1       8.150   9.571  17.702  0.00  0.00    +0.000 C 
BRANCH  17  18
ATOM     18  C   UNL     1       9.169  10.404  18.443  0.00  0.00    +0.000 A 
ATOM     19  C   UNL     1      10.193  11.058  17.743  0.00  0.00    +0.000 A 
ATOM     20  C   UNL     1      11.156  11.802  18.425  0.00  0.00    +0.000 A 
ATOM     21  C   UNL     1      11.110  11.895  19.814  0.00  0.00    +0.000 A 
ATOM     22  C   UNL     1      10.103  11.240  20.522  0.00  0.00    +0.000 A 
ATOM     23  C   UNL     1       9.138  10.494  19.841  0.00  0.00    +0.000 A 
ENDBRANCH  17  18
ENDBRANCH  16  17
ENDBRANCH  14  16
ENDBRANCH   5  14
BRANCH   1  24
ATOM     24  C   UNL     1       2.581   6.922  17.661  0.00  0.00    +0.000 C 
BRANCH  24  26
ATOM     25  N   UNL     1       1.489   9.005  18.304  0.00  0.00    +0.000 N 
ATOM     26  C   UNL     1       2.027   7.823  18.760  0.00  0.00    +0.000 C 
ATOM     27  O   UNL     1       2.130   7.570  19.957  0.00  0.00    +0.000 OA
ATOM     28  H   UNL     1       1.260   9.101  17.324  0.00  0.00    +0.000 HD
BRANCH  25  29
ATOM     29  C   UNL     1       0.932   9.961  19.234  0.00  0.00    +0.000 C 
BRANCH  29  33
ATOM     30  C   UNL     1       2.314  13.972  18.440  0.00  0.00    +0.000 A 
ATOM     31  C   UNL     1       1.258  13.756  19.327  0.00  0.00    +0.000 A 
ATOM     32  C   UNL     1       0.797  12.459  19.570  0.00  0.00    +0.000 A 
ATOM     33  C   UNL     1       1.402  11.358  18.938  0.00  0.00    +0.000 A 
ATOM     34  C   UNL     1       2.466  11.589  18.047  0.00  0.00    +0.000 A 
ATOM     35  C   UNL     1       2.918  12.886  17.800  0.00  0.00    +0.000 A 
BRANCH  30  37
ATOM     36  N   UNL     1       2.498  16.298  19.022  0.00  0.00    +0.000 NA
ATOM     37  C   UNL     1       2.789  15.361  18.183  0.00  0.00    +0.000 C 
ATOM     38  N   UNL     1       3.501  15.638  17.054  0.00  0.00    +0.000 N 
ATOM     39  H   UNL     1       2.932  17.175  18.724  0.00  0.00    +0.000 HD
ATOM     40  H   UNL     1       3.486  16.609  16.760  0.00  0.00    +0.000 HD
ATOM     41  H   UNL     1       3.333  15.015  16.274  0.00  0.00    +0.000 HD
ENDBRANCH  30  37
ENDBRANCH  29  33
ENDBRANCH  25  29
ENDBRANCH  24  26
ENDBRANCH   1  24
TORSDOF 10
ENDMDL
MODEL 9
REMARK VINA RESULT:      -8.7      3.603      8.617
REMARK  Name = 
REMARK  10 active torsions:
REMARK  status: ('A' for Active; 'I' for Inactive)
REMARK    1  A    between atoms: C_2  and  C_4
REMARK    2  A    between atoms: C_7  and  C_8
REMARK    3  A    between atoms: C_8  and  N_9
REMARK    4  A    between atoms: C_10  and  C_12
REMARK    5  A    between atoms: C_12  and  C_13
REMARK    6  A    between atoms: C_14  and  C_15
REMARK    7  A    between atoms: C_23  and  N_24
REMARK    8  A    between atoms: N_24  and  C_25
REMARK    9  A    between atoms: C_25  and  C_26
REMARK   10  A    between atoms: C_26  and  C_27
REMARK                            x       y       z     vdW  Elec       q    Type
REMARK                         _______ _______ _______ _____ _____    ______ ____
ROOT
ATOM      1  C   UNL     1       5.254   5.493  16.796  0.00  0.00    +0.000 A 
ATOM      2  C   UNL     1       5.169   4.428  15.865  0.00  0.00    +0.000 A 
ATOM      3  C   UNL     1       4.324   3.358  16.265  0.00  0.00    +0.000 A 
ATOM      4  C   UNL     1       3.659   3.307  17.506  0.00  0.00    +0.000 A 
ATOM      5  C   UNL     1       3.812   4.320  18.441  0.00  0.00    +0.000 A 
ATOM      6  C   UNL     1       4.660   5.373  18.078  0.00  0.00    +0.000 A 
ATOM      7  F   UNL     1       4.916   6.349  18.970  0.00  0.00    +0.000 F 
ENDROOT
BRANCH   2   8
ATOM      8  C   UNL     1       5.925   4.333  14.552  0.00  0.00    +0.000 A 
ATOM      9  C   UNL     1       5.498   3.577  13.445  0.00  0.00    +0.000 A 
ATOM     10  C   UNL     1       6.163   3.519  12.222  0.00  0.00    +0.000 A 
ATOM     11  C   UNL     1       7.316   4.257  12.032  0.00  0.00    +0.000 A 
ATOM     12  C   UNL     1       7.781   5.042  13.075  0.00  0.00    +0.000 A 
ATOM     13  C   UNL     1       7.103   5.078  14.307  0.00  0.00    +0.000 A 
ENDBRANCH   2   8
BRANCH   5  14
ATOM     14  N   UNL     1       3.188   4.194  19.696  0.00  0.00    +0.000 N 
ATOM     15  H   UNL     1       3.106   3.226  19.991  0.00  0.00    +0.000 HD
BRANCH  14  16
ATOM     16  C   UNL     1       1.972   4.990  19.893  0.00  0.00    +0.000 C 
BRANCH  16  17
ATOM     17  C   UNL     1       2.241   6.207  20.781  0.00  0.00    +0.000 C 
BRANCH  17  18
ATOM     18  C   UNL     1       1.830   7.486  20.090  0.00  0.00    +0.000 A 
ATOM     19  C   UNL     1       2.180   7.710  18.751  0.00  0.00    +0.000 A 
ATOM     20  C   UNL     1       1.831   8.902  18.116  0.00  0.00    +0.000 A 
ATOM     21  C   UNL     1       1.135   9.886  18.816  0.00  0.00    +0.000 A 
ATOM     22  C   UNL     1       0.791   9.678  20.151  0.00  0.00    +0.000 A 
ATOM     23  C   UNL     1       1.140   8.486  20.788  0.00  0.00    +0.000 A 
ENDBRANCH  17  18
ENDBRANCH  16  17
ENDBRANCH  14  16
ENDBRANCH   5  14
BRANCH   1  24
ATOM     24  C   UNL     1       5.931   6.830  16.572  0.00  0.00    +0.000 C 
BRANCH  24  26
ATOM     25  N   UNL     1       7.495   8.337  17.678  0.00  0.00    +0.000 N 
ATOM     26  C   UNL     1       7.183   7.021  17.421  0.00  0.00    +0.000 C 
ATOM     27  O   UNL     1       7.910   6.096  17.772  0.00  0.00    +0.000 OA
ATOM     28  H   UNL     1       6.795   9.051  17.532  0.00  0.00    +0.000 HD
BRANCH  25  29
ATOM     29  C   UNL     1       8.660   8.671  18.466  0.00  0.00    +0.000 C 
BRANCH  29  33
ATOM     30  C   UNL     1       9.406  12.923  18.441  0.00  0.00    +0.000 A 
ATOM     31  C   UNL     1       8.397  12.382  17.641  0.00  0.00    +0.000 A 
ATOM     32  C   UNL     1       8.168  11.003  17.634  0.00  0.00    +0.000 A 
ATOM     33  C   UNL     1       8.937  10.149  18.444  0.00  0.00    +0.000 A 
ATOM     34  C   UNL     1       9.950  10.706  19.245  0.00  0.00    +0.000 A 
ATOM     35  C   UNL     1      10.182  12.082  19.244  0.00  0.00    +0.000 A 
BRANCH  30  37
ATOM     36  N   UNL     1      10.163  14.959  19.471  0.00  0.00    +0.000 NA
ATOM     37  C   UNL     1       9.646  14.393  18.432  0.00  0.00    +0.000 C 
ATOM     38  N   UNL     1       9.297  15.132  17.341  0.00  0.00    +0.000 N 
ATOM     39  H   UNL     1      10.303  15.956  19.287  0.00  0.00    +0.000 HD
ATOM     40  H   UNL     1       9.151  16.122  17.517  0.00  0.00    +0.000 HD
ATOM     41  H   UNL     1       8.549  14.745  16.779  0.00  0.00    +0.000 HD
ENDBRANCH  30  37
ENDBRANCH  29  33
ENDBRANCH  25  29
ENDBRANCH  24  26
ENDBRANCH   1  24
TORSDOF 10
ENDMDL
