MODEL 1
REMARK VINA RESULT:      -8.0      0.000      0.000
REMARK  Name = 
REMARK  4 active torsions:
REMARK  status: ('A' for Active; 'I' for Inactive)
REMARK    1  A    between atoms: C_2  and  C_7
REMARK    2  A    between atoms: N_3  and  C_4
REMARK    3  A    between atoms: N_12  and  C_13
REMARK    4  A    between atoms: C_13  and  C_14
REMARK                            x       y       z     vdW  Elec       q    Type
REMARK                         _______ _______ _______ _____ _____    ______ ____
ROOT
ATOM      1  C   UNL     1       6.667   4.384  15.811  0.00  0.00    +0.000 C 
ATOM      2  C   UNL     1       5.637   3.323  16.226  0.00  0.00    +0.000 C 
ATOM      3  C   UNL     1       4.818   4.037  17.268  0.00  0.00    +0.000 C 
ATOM      4  C   UNL     1       3.345   3.717  17.395  0.00  0.00    +0.000 C 
ATOM      5  C   UNL     1       2.751   4.603  18.507  0.00  0.00    +0.000 C 
ATOM      6  N   UNL     1       3.038   6.051  18.368  0.00  0.00    +0.000 NA
ATOM      7  C   UNL     1       4.453   6.348  18.022  0.00  0.00    +0.000 C 
ATOM      8  C   UNL     1       4.934   5.485  16.849  0.00  0.00    +0.000 C 
ATOM      9  O   UNL     1       6.303   5.629  16.459  0.00  0.00    +0.000 OA
ENDROOT
BRANCH   1  11
ATOM     10  O   UNL     1       7.361   5.368  13.694  0.00  0.00    +0.000 OA
ATOM     11  C   UNL     1       6.750   4.472  14.277  0.00  0.00    +0.000 C 
ATOM     12  N   UNL     1       6.023   3.505  13.616  0.00  0.00    +0.000 N 
ATOM     13  H   UNL     1       5.597   2.775  14.181  0.00  0.00    +0.000 HD
BRANCH  12  14
ATOM     14  C   UNL     1       5.998   3.422  12.194  0.00  0.00    +0.000 C 
ATOM     15  C   UNL     1       5.741   2.103  11.512  0.00  0.00    +0.000 C 
ATOM     16  C   UNL     1       4.721   3.201  11.433  0.00  0.00    +0.000 C 
ENDBRANCH  12  14
ENDBRANCH   1  11
BRANCH   6  17
ATOM     17  C   UNL     1       2.681   6.773  19.610  0.00  0.00    +0.000 C 
BRANCH  17  18
ATOM     18  C   UNL     1       1.888   8.049  19.399  0.00  0.00    +0.000 A 
ATOM     19  C   UNL     1       1.816   8.644  18.129  0.00  0.00    +0.000 A 
ATOM     20  C   UNL     1       1.053   9.794  17.925  0.00  0.00    +0.000 A 
ATOM     21  C   UNL     1       0.351  10.364  18.984  0.00  0.00    +0.000 A 
ATOM     22  C   UNL     1       0.420   9.788  20.253  0.00  0.00    +0.000 A 
ATOM     23  C   UNL     1       1.185   8.637  20.460  0.00  0.00    +0.000 A 
ENDBRANCH  17  18
ENDBRANCH   6  17
TORSDOF 4
ENDMDL
MODEL 2
REMARK VINA RESULT:      -8.0      0.120      1.036
REMARK  Name = 
REMARK  4 active torsions:
REMARK  status: ('A' for Active; 'I' for Inactive)
REMARK    1  A    between atoms: C_2  and  C_7
REMARK    2  A    between atoms: N_3  and  C_4
REMARK    3  A    between atoms: N_12  and  C_13
REMARK    4  A    between atoms: C_13  and  C_14
REMARK                            x       y       z     vdW  Elec       q    Type
REMARK                         _______ _______ _______ _____ _____    ______ ____
ROOT
ATOM      1  C   UNL     1       6.644   4.414  15.828  0.00  0.00    +0.000 C 
ATOM      2  C   UNL     1       5.632   3.333  16.237  0.00  0.00    +0.000 C 
ATOM      3  C   UNL     1       4.791   4.034  17.271  0.00  0.00    +0.000 C 
ATOM      4  C   UNL     1       3.323   3.683  17.386  0.00  0.00    +0.000 C 
ATOM      5  C   UNL     1       2.702   4.561  18.491  0.00  0.00    +0.000 C 
ATOM      6  N   UNL     1       2.960   6.014  18.350  0.00  0.00    +0.000 NA
ATOM      7  C   UNL     1       4.372   6.339  18.014  0.00  0.00    +0.000 C 
ATOM      8  C   UNL     1       4.880   5.482  16.848  0.00  0.00    +0.000 C 
ATOM      9  O   UNL     1       6.249   5.653  16.468  0.00  0.00    +0.000 OA
ENDROOT
BRANCH   1  11
ATOM     10  O   UNL     1       7.381   5.373  13.713  0.00  0.00    +0.000 OA
ATOM     11  C   UNL     1       6.737   4.499  14.293  0.00  0.00    +0.000 C 
ATOM     12  N   UNL     1       5.981   3.555  13.629  0.00  0.00    +0.000 N 
ATOM     13  H   UNL     1       5.529   2.840  14.192  0.00  0.00    +0.000 HD
BRANCH  12  14
ATOM     14  C   UNL     1       5.961   3.473  12.207  0.00  0.00    +0.000 C 
ATOM     15  C   UNL     1       5.863   2.135  11.523  0.00  0.00    +0.000 C 
ATOM     16  C   UNL     1       4.718   3.101  11.450  0.00  0.00    +0.000 C 
ENDBRANCH  12  14
ENDBRANCH   1  11
BRANCH   6  17
ATOM     17  C   UNL     1       2.579   6.733  19.586  0.00  0.00    +0.000 C 
BRANCH  17  18
ATOM     18  C   UNL     1       1.869   8.054  19.361  0.00  0.00    +0.000 A 
ATOM     19  C   UNL     1       1.214   8.704  20.422  0.00  0.00    +0.000 A 
ATOM     20  C   UNL     1       0.598   9.939  20.225  0.00  0.00    +0.000 A 
ATOM     21  C   UNL     1       0.626  10.543  18.971  0.00  0.00    +0.000 A 
ATOM     22  C   UNL     1       1.267   9.907  17.908  0.00  0.00    +0.000 A 
ATOM     23  C   UNL     1       1.884   8.668  18.101  0.00  0.00    +0.000 A 
ENDBRANCH  17  18
ENDBRANCH   6  17
TORSDOF 4
ENDMDL
MODEL 3
REMARK VINA RESULT:      -6.9      3.859      6.256
REMARK  Name = 
REMARK  4 active torsions:
REMARK  status: ('A' for Active; 'I' for Inactive)
REMARK    1  A    between atoms: C_2  and  C_7
REMARK    2  A    between atoms: N_3  and  C_4
REMARK    3  A    between atoms: N_12  and  C_13
REMARK    4  A    between atoms: C_13  and  C_14
REMARK                            x       y       z     vdW  Elec       q    Type
REMARK                         _______ _______ _______ _____ _____    ______ ____
ROOT
ATOM      1  C   UNL     1       7.803   6.644  18.025  0.00  0.00    +0.000 C 
ATOM      2  C   UNL     1       7.728   6.050  16.610  0.00  0.00    +0.000 C 
ATOM      3  C   UNL     1       6.643   5.015  16.736  0.00  0.00    +0.000 C 
ATOM      4  C   UNL     1       5.747   4.740  15.548  0.00  0.00    +0.000 C 
ATOM      5  C   UNL     1       4.716   3.669  15.958  0.00  0.00    +0.000 C 
ATOM      6  N   UNL     1       3.977   3.964  17.208  0.00  0.00    +0.000 NA
ATOM      7  C   UNL     1       4.845   4.451  18.313  0.00  0.00    +0.000 C 
ATOM      8  C   UNL     1       5.775   5.574  17.840  0.00  0.00    +0.000 C 
ATOM      9  O   UNL     1       6.709   6.086  18.795  0.00  0.00    +0.000 OA
ENDROOT
BRANCH   1  11
ATOM     10  O   UNL     1       7.074   8.815  17.196  0.00  0.00    +0.000 OA
ATOM     11  C   UNL     1       7.807   8.182  17.956  0.00  0.00    +0.000 C 
ATOM     12  N   UNL     1       8.750   8.780  18.764  0.00  0.00    +0.000 N 
ATOM     13  H   UNL     1       9.270   8.180  19.398  0.00  0.00    +0.000 HD
BRANCH  12  14
ATOM     14  C   UNL     1       8.884  10.197  18.842  0.00  0.00    +0.000 C 
ATOM     15  C   UNL     1       9.805  10.820  19.858  0.00  0.00    +0.000 C 
ATOM     16  C   UNL     1      10.135  10.902  18.397  0.00  0.00    +0.000 C 
ENDBRANCH  12  14
ENDBRANCH   1  11
BRANCH   6  17
ATOM     17  C   UNL     1       3.232   2.770  17.667  0.00  0.00    +0.000 C 
BRANCH  17  18
ATOM     18  C   UNL     1       2.581   2.910  19.030  0.00  0.00    +0.000 A 
ATOM     19  C   UNL     1       3.194   2.372  20.174  0.00  0.00    +0.000 A 
ATOM     20  C   UNL     1       2.617   2.538  21.433  0.00  0.00    +0.000 A 
ATOM     21  C   UNL     1       1.423   3.241  21.568  0.00  0.00    +0.000 A 
ATOM     22  C   UNL     1       0.799   3.774  20.439  0.00  0.00    +0.000 A 
ATOM     23  C   UNL     1       1.375   3.609  19.177  0.00  0.00    +0.000 A 
ENDBRANCH  17  18
ENDBRANCH   6  17
TORSDOF 4
ENDMDL
MODEL 4
REMARK VINA RESULT:      -6.9      4.042      6.503
REMARK  Name = 
REMARK  4 active torsions:
REMARK  status: ('A' for Active; 'I' for Inactive)
REMARK    1  A    between atoms: C_2  and  C_7
REMARK    2  A    between atoms: N_3  and  C_4
REMARK    3  A    between atoms: N_12  and  C_13
REMARK    4  A    between atoms: C_13  and  C_14
REMARK                            x       y       z     vdW  Elec       q    Type
REMARK                         _______ _______ _______ _____ _____    ______ ____
ROOT
ATOM      1  C   UNL     1       8.087   7.071  17.895  0.00  0.00    +0.000 C 
ATOM      2  C   UNL     1       7.687   6.699  16.459  0.00  0.00    +0.000 C 
ATOM      3  C   UNL     1       6.707   5.574  16.663  0.00  0.00    +0.000 C 
ATOM      4  C   UNL     1       5.556   5.415  15.693  0.00  0.00    +0.000 C 
ATOM      5  C   UNL     1       4.702   4.217  16.149  0.00  0.00    +0.000 C 
ATOM      6  N   UNL     1       4.284   4.256  17.571  0.00  0.00    +0.000 NA
ATOM      7  C   UNL     1       5.379   4.633  18.504  0.00  0.00    +0.000 C 
ATOM      8  C   UNL     1       6.119   5.886  18.019  0.00  0.00    +0.000 C 
ATOM      9  O   UNL     1       7.240   6.317  18.798  0.00  0.00    +0.000 OA
ENDROOT
BRANCH   1  11
ATOM     10  O   UNL     1       7.212   9.306  17.480  0.00  0.00    +0.000 OA
ATOM     11  C   UNL     1       8.013   8.597  18.087  0.00  0.00    +0.000 C 
ATOM     12  N   UNL     1       8.969   9.104  18.943  0.00  0.00    +0.000 N 
ATOM     13  H   UNL     1       9.550   8.436  19.441  0.00  0.00    +0.000 HD
BRANCH  12  14
ATOM     14  C   UNL     1       9.040  10.493  19.253  0.00  0.00    +0.000 C 
ATOM     15  C   UNL     1       9.610  10.950  20.570  0.00  0.00    +0.000 C 
ATOM     16  C   UNL     1      10.347  11.232  19.294  0.00  0.00    +0.000 C 
ENDBRANCH  12  14
ENDBRANCH   1  11
BRANCH   6  17
ATOM     17  C   UNL     1       3.724   2.950  17.985  0.00  0.00    +0.000 C 
BRANCH  17  18
ATOM     18  C   UNL     1       2.868   2.992  19.237  0.00  0.00    +0.000 A 
ATOM     19  C   UNL     1       1.552   3.481  19.187  0.00  0.00    +0.000 A 
ATOM     20  C   UNL     1       0.750   3.481  20.328  0.00  0.00    +0.000 A 
ATOM     21  C   UNL     1       1.249   2.993  21.533  0.00  0.00    +0.000 A 
ATOM     22  C   UNL     1       2.557   2.512  21.599  0.00  0.00    +0.000 A 
ATOM     23  C   UNL     1       3.363   2.512  20.457  0.00  0.00    +0.000 A 
ENDBRANCH  17  18
ENDBRANCH   6  17
TORSDOF 4
ENDMDL
MODEL 5
REMARK VINA RESULT:      -6.8      5.251      9.096
REMARK  Name = 
REMARK  4 active torsions:
REMARK  status: ('A' for Active; 'I' for Inactive)
REMARK    1  A    between atoms: C_2  and  C_7
REMARK    2  A    between atoms: N_3  and  C_4
REMARK    3  A    between atoms: N_12  and  C_13
REMARK    4  A    between atoms: C_13  and  C_14
REMARK                            x       y       z     vdW  Elec       q    Type
REMARK                         _______ _______ _______ _____ _____    ______ ____
ROOT
ATOM      1  C   UNL     1      -0.392  11.757  20.183  0.00  0.00    +0.000 C 
ATOM      2  C   UNL     1       0.465  11.788  18.908  0.00  0.00    +0.000 C 
ATOM      3  C   UNL     1       1.272  10.522  19.014  0.00  0.00    +0.000 C 
ATOM      4  C   UNL     1       1.648   9.780  17.749  0.00  0.00    +0.000 C 
ATOM      5  C   UNL     1       2.439   8.519  18.146  0.00  0.00    +0.000 C 
ATOM      6  N   UNL     1       1.781   7.667  19.165  0.00  0.00    +0.000 NA
ATOM      7  C   UNL     1       1.214   8.432  20.307  0.00  0.00    +0.000 C 
ATOM      8  C   UNL     1       0.370   9.616  19.820  0.00  0.00    +0.000 C 
ATOM      9  O   UNL     1      -0.181  10.474  20.825  0.00  0.00    +0.000 OA
ENDROOT
BRANCH   1  11
ATOM     10  O   UNL     1      -2.627  12.616  20.627  0.00  0.00    +0.000 OA
ATOM     11  C   UNL     1      -1.863  12.057  19.842  0.00  0.00    +0.000 C 
ATOM     12  N   UNL     1      -2.264  11.583  18.610  0.00  0.00    +0.000 N 
ATOM     13  H   UNL     1      -1.549  11.185  18.008  0.00  0.00    +0.000 HD
BRANCH  12  14
ATOM     14  C   UNL     1      -3.587  11.786  18.121  0.00  0.00    +0.000 C 
ATOM     15  C   UNL     1      -3.984  11.268  16.763  0.00  0.00    +0.000 C 
ATOM     16  C   UNL     1      -4.572  10.657  18.001  0.00  0.00    +0.000 C 
ENDBRANCH  12  14
ENDBRANCH   1  11
BRANCH   6  17
ATOM     17  C   UNL     1       2.726   6.652  19.685  0.00  0.00    +0.000 C 
BRANCH  17  18
ATOM     18  C   UNL     1       2.189   5.234  19.706  0.00  0.00    +0.000 A 
ATOM     19  C   UNL     1       1.941   4.581  20.925  0.00  0.00    +0.000 A 
ATOM     20  C   UNL     1       1.407   3.293  20.945  0.00  0.00    +0.000 A 
ATOM     21  C   UNL     1       1.114   2.639  19.752  0.00  0.00    +0.000 A 
ATOM     22  C   UNL     1       1.361   3.272  18.534  0.00  0.00    +0.000 A 
ATOM     23  C   UNL     1       1.897   4.562  18.510  0.00  0.00    +0.000 A 
ENDBRANCH  17  18
ENDBRANCH   6  17
TORSDOF 4
ENDMDL
MODEL 6
REMARK VINA RESULT:      -6.8      5.076     10.082
REMARK  Name = 
REMARK  4 active torsions:
REMARK  status: ('A' for Active; 'I' for Inactive)
REMARK    1  A    between atoms: C_2  and  C_7
REMARK    2  A    between atoms: N_3  and  C_4
REMARK    3  A    between atoms: N_12  and  C_13
REMARK    4  A    between atoms: C_13  and  C_14
REMARK                            x       y       z     vdW  Elec       q    Type
REMARK                         _______ _______ _______ _____ _____    ______ ____
ROOT
ATOM      1  C   UNL     1       0.091  11.838  20.866  0.00  0.00    +0.000 C 
ATOM      2  C   UNL     1       0.509  11.809  19.388  0.00  0.00    +0.000 C 
ATOM      3  C   UNL     1       1.249  10.503  19.273  0.00  0.00    +0.000 C 
ATOM      4  C   UNL     1       1.178   9.729  17.974  0.00  0.00    +0.000 C 
ATOM      5  C   UNL     1       1.993   8.432  18.140  0.00  0.00    +0.000 C 
ATOM      6  N   UNL     1       1.645   7.627  19.336  0.00  0.00    +0.000 NA
ATOM      7  C   UNL     1       1.497   8.434  20.576  0.00  0.00    +0.000 C 
ATOM      8  C   UNL     1       0.600   9.656  20.343  0.00  0.00    +0.000 C 
ATOM      9  O   UNL     1       0.430  10.553  21.445  0.00  0.00    +0.000 OA
ENDROOT
BRANCH   1  11
ATOM     10  O   UNL     1      -2.078  12.559  20.025  0.00  0.00    +0.000 OA
ATOM     11  C   UNL     1      -1.397  12.212  20.990  0.00  0.00    +0.000 C 
ATOM     12  N   UNL     1      -1.878  12.194  22.282  0.00  0.00    +0.000 N 
ATOM     13  H   UNL     1      -1.258  11.840  23.005  0.00  0.00    +0.000 HD
BRANCH  12  14
ATOM     14  C   UNL     1      -3.238  12.496  22.583  0.00  0.00    +0.000 C 
ATOM     15  C   UNL     1      -3.732  12.446  24.005  0.00  0.00    +0.000 C 
ATOM     16  C   UNL     1      -3.633  13.762  23.290  0.00  0.00    +0.000 C 
ENDBRANCH  12  14
ENDBRANCH   1  11
BRANCH   6  17
ATOM     17  C   UNL     1       2.655   6.569  19.564  0.00  0.00    +0.000 C 
BRANCH  17  18
ATOM     18  C   UNL     1       2.136   5.151  19.421  0.00  0.00    +0.000 A 
ATOM     19  C   UNL     1       1.564   4.486  20.518  0.00  0.00    +0.000 A 
ATOM     20  C   UNL     1       1.048   3.198  20.377  0.00  0.00    +0.000 A 
ATOM     21  C   UNL     1       1.096   2.557  19.142  0.00  0.00    +0.000 A 
ATOM     22  C   UNL     1       1.668   3.203  18.046  0.00  0.00    +0.000 A 
ATOM     23  C   UNL     1       2.187   4.493  18.185  0.00  0.00    +0.000 A 
ENDBRANCH  17  18
ENDBRANCH   6  17
TORSDOF 4
ENDMDL
MODEL 7
REMARK VINA RESULT:      -6.8      5.344      8.970
REMARK  Name = 
REMARK  4 active torsions:
REMARK  status: ('A' for Active; 'I' for Inactive)
REMARK    1  A    between atoms: C_2  and  C_7
REMARK    2  A    between atoms: N_3  and  C_4
REMARK    3  A    between atoms: N_12  and  C_13
REMARK    4  A    between atoms: C_13  and  C_14
REMARK                            x       y       z     vdW  Elec       q    Type
REMARK                         _______ _______ _______ _____ _____    ______ ____
ROOT
ATOM      1  C   UNL     1      -0.321  11.629  20.162  0.00  0.00    +0.000 C 
ATOM      2  C   UNL     1       0.514  11.619  18.872  0.00  0.00    +0.000 C 
ATOM      3  C   UNL     1       1.338  10.367  19.015  0.00  0.00    +0.000 C 
ATOM      4  C   UNL     1       1.703   9.580  17.775  0.00  0.00    +0.000 C 
ATOM      5  C   UNL     1       2.515   8.344  18.209  0.00  0.00    +0.000 C 
ATOM      6  N   UNL     1       1.883   7.526  19.272  0.00  0.00    +0.000 NA
ATOM      7  C   UNL     1       1.326   8.331  20.391  0.00  0.00    +0.000 C 
ATOM      8  C   UNL     1       0.460   9.485  19.872  0.00  0.00    +0.000 C 
ATOM      9  O   UNL     1      -0.085  10.376  20.850  0.00  0.00    +0.000 OA
ENDROOT
BRANCH   1  11
ATOM     10  O   UNL     1      -2.587  12.379  20.649  0.00  0.00    +0.000 OA
ATOM     11  C   UNL     1      -1.801  11.900  19.833  0.00  0.00    +0.000 C 
ATOM     12  N   UNL     1      -2.182  11.492  18.572  0.00  0.00    +0.000 N 
ATOM     13  H   UNL     1      -1.451  11.160  17.949  0.00  0.00    +0.000 HD
BRANCH  12  14
ATOM     14  C   UNL     1      -3.510  11.680  18.090  0.00  0.00    +0.000 C 
ATOM     15  C   UNL     1      -3.876  11.267  16.688  0.00  0.00    +0.000 C 
ATOM     16  C   UNL     1      -4.443  10.524  17.862  0.00  0.00    +0.000 C 
ENDBRANCH  12  14
ENDBRANCH   1  11
BRANCH   6  17
ATOM     17  C   UNL     1       2.848   6.544  19.816  0.00  0.00    +0.000 C 
BRANCH  17  18
ATOM     18  C   UNL     1       2.298   5.142  19.993  0.00  0.00    +0.000 A 
ATOM     19  C   UNL     1       1.857   4.401  18.884  0.00  0.00    +0.000 A 
ATOM     20  C   UNL     1       1.391   3.096  19.041  0.00  0.00    +0.000 A 
ATOM     21  C   UNL     1       1.358   2.513  20.305  0.00  0.00    +0.000 A 
ATOM     22  C   UNL     1       1.786   3.239  21.417  0.00  0.00    +0.000 A 
ATOM     23  C   UNL     1       2.253   4.547  21.262  0.00  0.00    +0.000 A 
ENDBRANCH  17  18
ENDBRANCH   6  17
TORSDOF 4
ENDMDL
MODEL 8
REMARK VINA RESULT:      -6.7      5.245     10.219
REMARK  Name = 
REMARK  4 active torsions:
REMARK  status: ('A' for Active; 'I' for Inactive)
REMARK    1  A    between atoms: C_2  and  C_7
REMARK    2  A    between atoms: N_3  and  C_4
REMARK    3  A    between atoms: N_12  and  C_13
REMARK    4  A    between atoms: C_13  and  C_14
REMARK                            x       y       z     vdW  Elec       q    Type
REMARK                         _______ _______ _______ _____ _____    ______ ____
ROOT
ATOM      1  C   UNL     1      -0.218  11.887  21.036  0.00  0.00    +0.000 C 
ATOM      2  C   UNL     1       0.211  11.924  19.562  0.00  0.00    +0.000 C 
ATOM      3  C   UNL     1       1.006  10.655  19.410  0.00  0.00    +0.000 C 
ATOM      4  C   UNL     1       0.977   9.921  18.086  0.00  0.00    +0.000 C 
ATOM      5  C   UNL     1       1.844   8.655  18.217  0.00  0.00    +0.000 C 
ATOM      6  N   UNL     1       1.522   7.797  19.383  0.00  0.00    +0.000 NA
ATOM      7  C   UNL     1       1.332   8.557  20.647  0.00  0.00    +0.000 C 
ATOM      8  C   UNL     1       0.386   9.747  20.446  0.00  0.00    +0.000 C 
ATOM      9  O   UNL     1       0.170  10.599  21.576  0.00  0.00    +0.000 OA
ENDROOT
BRANCH   1  11
ATOM     10  O   UNL     1      -2.443  12.390  20.181  0.00  0.00    +0.000 OA
ATOM     11  C   UNL     1      -1.722  12.195  21.159  0.00  0.00    +0.000 C 
ATOM     12  N   UNL     1      -2.171  12.302  22.458  0.00  0.00    +0.000 N 
ATOM     13  H   UNL     1      -1.516  12.068  23.199  0.00  0.00    +0.000 HD
BRANCH  12  14
ATOM     14  C   UNL     1      -3.539  12.566  22.762  0.00  0.00    +0.000 C 
ATOM     15  C   UNL     1      -3.986  12.708  24.193  0.00  0.00    +0.000 C 
ATOM     16  C   UNL     1      -3.994  13.900  23.281  0.00  0.00    +0.000 C 
ENDBRANCH  12  14
ENDBRANCH   1  11
BRANCH   6  17
ATOM     17  C   UNL     1       2.574   6.776  19.585  0.00  0.00    +0.000 C 
BRANCH  17  18
ATOM     18  C   UNL     1       2.086   5.341  19.543  0.00  0.00    +0.000 A 
ATOM     19  C   UNL     1       1.994   4.653  18.321  0.00  0.00    +0.000 A 
ATOM     20  C   UNL     1       1.585   3.319  18.286  0.00  0.00    +0.000 A 
ATOM     21  C   UNL     1       1.264   2.655  19.467  0.00  0.00    +0.000 A 
ATOM     22  C   UNL     1       1.344   3.328  20.686  0.00  0.00    +0.000 A 
ATOM     23  C   UNL     1       1.752   4.664  20.724  0.00  0.00    +0.000 A 
ENDBRANCH  17  18
ENDBRANCH   6  17
TORSDOF 4
ENDMDL
MODEL 9
REMARK VINA RESULT:      -6.6      5.310     10.139
REMARK  Name = 
REMARK  4 active torsions:
REMARK  status: ('A' for Active; 'I' for Inactive)
REMARK    1  A    between atoms: C_2  and  C_7
REMARK    2  A    between atoms: N_3  and  C_4
REMARK    3  A    between atoms: N_12  and  C_13
REMARK    4  A    between atoms: C_13  and  C_14
REMARK                            x       y       z     vdW  Elec       q    Type
REMARK                         _______ _______ _______ _____ _____    ______ ____
ROOT
ATOM      1  C   UNL     1      -0.289  11.729  22.002  0.00  0.00    +0.000 C 
ATOM      2  C   UNL     1       0.007  11.942  20.509  0.00  0.00    +0.000 C 
ATOM      3  C   UNL     1       0.812  10.723  20.148  0.00  0.00    +0.000 C 
ATOM      4  C   UNL     1       0.682  10.139  18.758  0.00  0.00    +0.000 C 
ATOM      5  C   UNL     1       1.585   8.893  18.670  0.00  0.00    +0.000 C 
ATOM      6  N   UNL     1       1.385   7.903  19.756  0.00  0.00    +0.000 NA
ATOM      7  C   UNL     1       1.292   8.512  21.109  0.00  0.00    +0.000 C 
ATOM      8  C   UNL     1       0.307   9.687  21.125  0.00  0.00    +0.000 C 
ATOM      9  O   UNL     1       0.174  10.403  22.358  0.00  0.00    +0.000 OA
ENDROOT
BRANCH   1  11
ATOM     10  O   UNL     1      -2.322  11.640  23.341  0.00  0.00    +0.000 OA
ATOM     11  C   UNL     1      -1.782  11.974  22.287  0.00  0.00    +0.000 C 
ATOM     12  N   UNL     1      -2.473  12.534  21.232  0.00  0.00    +0.000 N 
ATOM     13  H   UNL     1      -1.932  12.828  20.424  0.00  0.00    +0.000 HD
BRANCH  12  14
ATOM     14  C   UNL     1      -3.860  12.847  21.324  0.00  0.00    +0.000 C 
ATOM     15  C   UNL     1      -4.366  14.197  20.886  0.00  0.00    +0.000 C 
ATOM     16  C   UNL     1      -4.729  12.970  20.104  0.00  0.00    +0.000 C 
ENDBRANCH  12  14
ENDBRANCH   1  11
BRANCH   6  17
ATOM     17  C   UNL     1       2.474   6.899  19.751  0.00  0.00    +0.000 C 
BRANCH  17  18
ATOM     18  C   UNL     1       2.019   5.468  19.535  0.00  0.00    +0.000 A 
ATOM     19  C   UNL     1       2.083   4.882  18.260  0.00  0.00    +0.000 A 
ATOM     20  C   UNL     1       1.705   3.553  18.069  0.00  0.00    +0.000 A 
ATOM     21  C   UNL     1       1.260   2.792  19.146  0.00  0.00    +0.000 A 
ATOM     22  C   UNL     1       1.185   3.362  20.417  0.00  0.00    +0.000 A 
ATOM     23  C   UNL     1       1.561   4.694  20.611  0.00  0.00    +0.000 A 
ENDBRANCH  17  18
ENDBRANCH   6  17
TORSDOF 4
ENDMDL
