MODEL 1
REMARK VINA RESULT:      -6.8      0.000      0.000
REMARK  Name = 
REMARK  14 active torsions:
REMARK  status: ('A' for Active; 'I' for Inactive)
REMARK    1  A    between atoms: C_1  and  C_2
REMARK    2  A    between atoms: C_2  and  O_3
REMARK    3  A    between atoms: O_3  and  P_4
REMARK    4  A    between atoms: P_4  and  O_6
REMARK    5  A    between atoms: P_4  and  C_9
REMARK    6  A    between atoms: O_6  and  C_7
REMARK    7  A    between atoms: C_7  and  C_8
REMARK    8  A    between atoms: C_9  and  C_10
REMARK    9  A    between atoms: C_9  and  C_14
REMARK   10  A    between atoms: C_10  and  O_12
REMARK   11  A    between atoms: O_12  and  C_13
REMARK   12  A    between atoms: C_14  and  C_16
REMARK   13  A    between atoms: N_18  and  C_19
REMARK   14  A    between atoms: C_23  and  O_24
REMARK                            x       y       z     vdW  Elec       q    Type
REMARK                         _______ _______ _______ _____ _____    ______ ____
ROOT
ATOM      1  C   UNL     1       5.985   5.327  18.154  0.00  0.00    +0.000 C 
ATOM      2  O   UNL     1       6.645   5.578  19.158  0.00  0.00    +0.000 OA
ENDROOT
BRANCH   1   3
ATOM      3  C   UNL     1       6.713   4.808  16.926  0.00  0.00    +0.000 C 
ATOM      4  O   UNL     1       7.862   4.432  17.085  0.00  0.00    +0.000 OA
ATOM      5  N   UNL     1       5.980   4.904  15.753  0.00  0.00    +0.000 N 
ATOM      6  H   UNL     1       5.065   5.338  15.835  0.00  0.00    +0.000 HD
BRANCH   5   7
ATOM      7  C   UNL     1       6.455   4.605  14.457  0.00  0.00    +0.000 A 
ATOM      8  C   UNL     1       7.441   5.368  13.824  0.00  0.00    +0.000 A 
ATOM      9  C   UNL     1       7.822   5.103  12.508  0.00  0.00    +0.000 A 
ATOM     10  C   UNL     1       7.220   4.070  11.800  0.00  0.00    +0.000 A 
ATOM     11  C   UNL     1       6.263   3.283  12.436  0.00  0.00    +0.000 A 
ATOM     12  C   UNL     1       5.892   3.525  13.763  0.00  0.00    +0.000 A 
BRANCH  11  13
ATOM     13  O   UNL     1       5.643   2.268  11.769  0.00  0.00    +0.000 OA
ATOM     14  H   UNL     1       6.012   2.218  10.871  0.00  0.00    +0.000 HD
ENDBRANCH  11  13
ENDBRANCH   5   7
ENDBRANCH   1   3
BRANCH   1  15
ATOM     15  C   UNL     1       4.493   5.471  18.063  0.00  0.00    +0.000 C 
BRANCH  15  16
ATOM     16  P   UNL     1       3.533   5.031  19.557  0.00  0.00    +0.000 P 
ATOM     17  O   UNL     1       4.517   3.876  19.819  0.00  0.00    +0.000 OA
BRANCH  16  18
ATOM     18  O   UNL     1       2.625   4.614  20.969  0.00  0.00    +0.000 OA
BRANCH  18  20
ATOM     19  C   UNL     1       1.381   2.610  21.482  0.00  0.00    +0.000 C 
ATOM     20  C   UNL     1       1.408   3.912  20.707  0.00  0.00    +0.000 C 
ENDBRANCH  18  20
ENDBRANCH  16  18
BRANCH  16  21
ATOM     21  O   UNL     1       2.315   4.376  18.625  0.00  0.00    +0.000 OA
BRANCH  21  22
ATOM     22  C   UNL     1       2.636   3.680  17.424  0.00  0.00    +0.000 C 
ATOM     23  C   UNL     1       2.475   2.183  17.636  0.00  0.00    +0.000 C 
ENDBRANCH  21  22
ENDBRANCH  16  21
ENDBRANCH  15  16
BRANCH  15  24
ATOM     24  C   UNL     1       4.068   6.793  17.556  0.00  0.00    +0.000 C 
ATOM     25  O   UNL     1       4.502   7.305  16.526  0.00  0.00    +0.000 OA
BRANCH  24  26
ATOM     26  O   UNL     1       3.185   7.372  18.415  0.00  0.00    +0.000 OA
ATOM     27  C   UNL     1       2.361   8.402  17.862  0.00  0.00    +0.000 C 
ENDBRANCH  24  26
ENDBRANCH  15  24
ENDBRANCH   1  15
TORSDOF 11
ENDMDL
MODEL 2
REMARK VINA RESULT:      -6.7      2.310      6.955
REMARK  Name = 
REMARK  14 active torsions:
REMARK  status: ('A' for Active; 'I' for Inactive)
REMARK    1  A    between atoms: C_1  and  C_2
REMARK    2  A    between atoms: C_2  and  O_3
REMARK    3  A    between atoms: O_3  and  P_4
REMARK    4  A    between atoms: P_4  and  O_6
REMARK    5  A    between atoms: P_4  and  C_9
REMARK    6  A    between atoms: O_6  and  C_7
REMARK    7  A    between atoms: C_7  and  C_8
REMARK    8  A    between atoms: C_9  and  C_10
REMARK    9  A    between atoms: C_9  and  C_14
REMARK   10  A    between atoms: C_10  and  O_12
REMARK   11  A    between atoms: O_12  and  C_13
REMARK   12  A    between atoms: C_14  and  C_16
REMARK   13  A    between atoms: N_18  and  C_19
REMARK   14  A    between atoms: C_23  and  O_24
REMARK                            x       y       z     vdW  Elec       q    Type
REMARK                         _______ _______ _______ _____ _____    ______ ____
ROOT
ATOM      1  C   UNL     1       3.716   4.328  17.210  0.00  0.00    +0.000 C 
ATOM      2  O   UNL     1       3.305   3.781  16.192  0.00  0.00    +0.000 OA
ENDROOT
BRANCH   1   3
ATOM      3  C   UNL     1       2.741   5.162  18.022  0.00  0.00    +0.000 C 
ATOM      4  O   UNL     1       1.744   4.595  18.438  0.00  0.00    +0.000 OA
ATOM      5  N   UNL     1       3.088   6.501  18.119  0.00  0.00    +0.000 N 
ATOM      6  H   UNL     1       3.924   6.781  17.614  0.00  0.00    +0.000 HD
BRANCH   5   7
ATOM      7  C   UNL     1       2.306   7.515  18.713  0.00  0.00    +0.000 A 
ATOM      8  C   UNL     1       1.749   8.562  17.974  0.00  0.00    +0.000 A 
ATOM      9  C   UNL     1       1.058   9.601  18.602  0.00  0.00    +0.000 A 
ATOM     10  C   UNL     1       0.916   9.609  19.984  0.00  0.00    +0.000 A 
ATOM     11  C   UNL     1       1.437   8.550  20.724  0.00  0.00    +0.000 A 
ATOM     12  C   UNL     1       2.109   7.493  20.101  0.00  0.00    +0.000 A 
BRANCH  11  13
ATOM     13  O   UNL     1       1.327   8.531  22.083  0.00  0.00    +0.000 OA
ATOM     14  H   UNL     1       0.446   8.862  22.327  0.00  0.00    +0.000 HD
ENDBRANCH  11  13
ENDBRANCH   5   7
ENDBRANCH   1   3
BRANCH   1  15
ATOM     15  C   UNL     1       5.120   4.207  17.728  0.00  0.00    +0.000 C 
BRANCH  15  16
ATOM     16  P   UNL     1       6.355   5.366  17.034  0.00  0.00    +0.000 P 
ATOM     17  O   UNL     1       5.209   6.151  16.370  0.00  0.00    +0.000 OA
BRANCH  16  18
ATOM     18  O   UNL     1       7.522   6.462  16.377  0.00  0.00    +0.000 OA
BRANCH  18  20
ATOM     19  C   UNL     1       8.132   7.280  18.564  0.00  0.00    +0.000 C 
ATOM     20  C   UNL     1       7.726   7.645  17.151  0.00  0.00    +0.000 C 
ENDBRANCH  18  20
ENDBRANCH  16  18
BRANCH  16  21
ATOM     21  O   UNL     1       6.835   4.237  15.905  0.00  0.00    +0.000 OA
BRANCH  21  22
ATOM     22  C   UNL     1       7.035   4.629  14.550  0.00  0.00    +0.000 C 
ATOM     23  C   UNL     1       6.069   3.877  13.647  0.00  0.00    +0.000 C 
ENDBRANCH  21  22
ENDBRANCH  16  21
ENDBRANCH  15  16
BRANCH  15  24
ATOM     24  C   UNL     1       5.196   4.207  19.204  0.00  0.00    +0.000 C 
ATOM     25  O   UNL     1       5.345   5.220  19.884  0.00  0.00    +0.000 OA
BRANCH  24  26
ATOM     26  O   UNL     1       5.137   2.935  19.684  0.00  0.00    +0.000 OA
ATOM     27  C   UNL     1       3.926   2.578  20.356  0.00  0.00    +0.000 C 
ENDBRANCH  24  26
ENDBRANCH  15  24
ENDBRANCH   1  15
TORSDOF 11
ENDMDL
MODEL 3
REMARK VINA RESULT:      -6.7      1.444      1.957
REMARK  Name = 
REMARK  14 active torsions:
REMARK  status: ('A' for Active; 'I' for Inactive)
REMARK    1  A    between atoms: C_1  and  C_2
REMARK    2  A    between atoms: C_2  and  O_3
REMARK    3  A    between atoms: O_3  and  P_4
REMARK    4  A    between atoms: P_4  and  O_6
REMARK    5  A    between atoms: P_4  and  C_9
REMARK    6  A    between atoms: O_6  and  C_7
REMARK    7  A    between atoms: C_7  and  C_8
REMARK    8  A    between atoms: C_9  and  C_10
REMARK    9  A    between atoms: C_9  and  C_14
REMARK   10  A    between atoms: C_10  and  O_12
REMARK   11  A    between atoms: O_12  and  C_13
REMARK   12  A    between atoms: C_14  and  C_16
REMARK   13  A    between atoms: N_18  and  C_19
REMARK   14  A    between atoms: C_23  and  O_24
REMARK                            x       y       z     vdW  Elec       q    Type
REMARK                         _______ _______ _______ _____ _____    ______ ____
ROOT
ATOM      1  C   UNL     1       5.961   4.837  18.585  0.00  0.00    +0.000 C 
ATOM      2  O   UNL     1       6.624   5.110  19.581  0.00  0.00    +0.000 OA
ENDROOT
BRANCH   1   3
ATOM      3  C   UNL     1       6.696   4.593  17.278  0.00  0.00    +0.000 C 
ATOM      4  O   UNL     1       7.900   4.413  17.348  0.00  0.00    +0.000 OA
ATOM      5  N   UNL     1       5.890   4.683  16.153  0.00  0.00    +0.000 N 
ATOM      6  H   UNL     1       4.920   4.935  16.320  0.00  0.00    +0.000 HD
BRANCH   5   7
ATOM      7  C   UNL     1       6.333   4.616  14.813  0.00  0.00    +0.000 A 
ATOM      8  C   UNL     1       5.777   3.732  13.884  0.00  0.00    +0.000 A 
ATOM      9  C   UNL     1       6.299   3.623  12.593  0.00  0.00    +0.000 A 
ATOM     10  C   UNL     1       7.388   4.396  12.212  0.00  0.00    +0.000 A 
ATOM     11  C   UNL     1       7.925   5.305  13.122  0.00  0.00    +0.000 A 
ATOM     12  C   UNL     1       7.393   5.438  14.409  0.00  0.00    +0.000 A 
BRANCH  11  13
ATOM     13  O   UNL     1       9.002   6.071  12.787  0.00  0.00    +0.000 OA
ATOM     14  H   UNL     1       8.748   7.007  12.853  0.00  0.00    +0.000 HD
ENDBRANCH  11  13
ENDBRANCH   5   7
ENDBRANCH   1   3
BRANCH   1  15
ATOM     15  C   UNL     1       4.466   4.698  18.574  0.00  0.00    +0.000 C 
BRANCH  15  16
ATOM     16  P   UNL     1       3.756   3.380  19.625  0.00  0.00    +0.000 P 
ATOM     17  O   UNL     1       5.181   2.877  19.916  0.00  0.00    +0.000 OA
BRANCH  16  18
ATOM     18  O   UNL     1       3.084   2.134  20.619  0.00  0.00    +0.000 OA
BRANCH  18  20
ATOM     19  C   UNL     1       1.671   3.977  21.275  0.00  0.00    +0.000 C 
ATOM     20  C   UNL     1       2.190   2.599  21.632  0.00  0.00    +0.000 C 
ENDBRANCH  18  20
ENDBRANCH  16  18
BRANCH  16  21
ATOM     21  O   UNL     1       3.247   2.532  18.283  0.00  0.00    +0.000 OA
BRANCH  21  22
ATOM     22  C   UNL     1       2.548   3.206  17.241  0.00  0.00    +0.000 C 
ATOM     23  C   UNL     1       1.214   3.718  17.761  0.00  0.00    +0.000 C 
ENDBRANCH  21  22
ENDBRANCH  16  21
ENDBRANCH  15  16
BRANCH  15  24
ATOM     24  C   UNL     1       3.764   5.976  18.814  0.00  0.00    +0.000 C 
ATOM     25  O   UNL     1       3.183   6.253  19.861  0.00  0.00    +0.000 OA
BRANCH  24  26
ATOM     26  O   UNL     1       3.805   6.760  17.702  0.00  0.00    +0.000 OA
ATOM     27  C   UNL     1       3.003   7.943  17.743  0.00  0.00    +0.000 C 
ENDBRANCH  24  26
ENDBRANCH  15  24
ENDBRANCH   1  15
TORSDOF 11
ENDMDL
MODEL 4
REMARK VINA RESULT:      -6.6      0.988      1.067
REMARK  Name = 
REMARK  14 active torsions:
REMARK  status: ('A' for Active; 'I' for Inactive)
REMARK    1  A    between atoms: C_1  and  C_2
REMARK    2  A    between atoms: C_2  and  O_3
REMARK    3  A    between atoms: O_3  and  P_4
REMARK    4  A    between atoms: P_4  and  O_6
REMARK    5  A    between atoms: P_4  and  C_9
REMARK    6  A    between atoms: O_6  and  C_7
REMARK    7  A    between atoms: C_7  and  C_8
REMARK    8  A    between atoms: C_9  and  C_10
REMARK    9  A    between atoms: C_9  and  C_14
REMARK   10  A    between atoms: C_10  and  O_12
REMARK   11  A    between atoms: O_12  and  C_13
REMARK   12  A    between atoms: C_14  and  C_16
REMARK   13  A    between atoms: N_18  and  C_19
REMARK   14  A    between atoms: C_23  and  O_24
REMARK                            x       y       z     vdW  Elec       q    Type
REMARK                         _______ _______ _______ _____ _____    ______ ____
ROOT
ATOM      1  C   UNL     1       5.939   5.333  18.187  0.00  0.00    +0.000 C 
ATOM      2  O   UNL     1       6.595   5.836  19.094  0.00  0.00    +0.000 OA
ENDROOT
BRANCH   1   3
ATOM      3  C   UNL     1       6.676   4.835  16.956  0.00  0.00    +0.000 C 
ATOM      4  O   UNL     1       7.824   4.456  17.117  0.00  0.00    +0.000 OA
ATOM      5  N   UNL     1       5.952   4.951  15.779  0.00  0.00    +0.000 N 
ATOM      6  H   UNL     1       5.036   5.383  15.862  0.00  0.00    +0.000 HD
BRANCH   5   7
ATOM      7  C   UNL     1       6.436   4.674  14.481  0.00  0.00    +0.000 A 
ATOM      8  C   UNL     1       7.453   5.424  13.885  0.00  0.00    +0.000 A 
ATOM      9  C   UNL     1       7.845   5.185  12.566  0.00  0.00    +0.000 A 
ATOM     10  C   UNL     1       7.223   4.191  11.822  0.00  0.00    +0.000 A 
ATOM     11  C   UNL     1       6.234   3.415  12.422  0.00  0.00    +0.000 A 
ATOM     12  C   UNL     1       5.852   3.631  13.750  0.00  0.00    +0.000 A 
BRANCH  11  13
ATOM     13  O   UNL     1       5.593   2.439  11.717  0.00  0.00    +0.000 OA
ATOM     14  H   UNL     1       5.731   2.602  10.768  0.00  0.00    +0.000 HD
ENDBRANCH  11  13
ENDBRANCH   5   7
ENDBRANCH   1   3
BRANCH   1  15
ATOM     15  C   UNL     1       4.449   5.148  18.221  0.00  0.00    +0.000 C 
BRANCH  15  16
ATOM     16  P   UNL     1       3.801   3.918  19.410  0.00  0.00    +0.000 P 
ATOM     17  O   UNL     1       5.204   3.288  19.487  0.00  0.00    +0.000 OA
BRANCH  16  18
ATOM     18  O   UNL     1       3.188   2.754  20.535  0.00  0.00    +0.000 OA
BRANCH  18  20
ATOM     19  C   UNL     1       1.314   2.466  22.028  0.00  0.00    +0.000 C 
ATOM     20  C   UNL     1       2.515   3.315  21.663  0.00  0.00    +0.000 C 
ENDBRANCH  18  20
ENDBRANCH  16  18
BRANCH  16  21
ATOM     21  O   UNL     1       3.010   3.101  18.191  0.00  0.00    +0.000 OA
BRANCH  21  22
ATOM     22  C   UNL     1       2.167   1.997  18.507  0.00  0.00    +0.000 C 
ATOM     23  C   UNL     1       0.714   2.447  18.530  0.00  0.00    +0.000 C 
ENDBRANCH  21  22
ENDBRANCH  16  21
ENDBRANCH  15  16
BRANCH  15  24
ATOM     24  C   UNL     1       3.710   6.421  18.353  0.00  0.00    +0.000 C 
ATOM     25  O   UNL     1       3.830   7.368  17.578  0.00  0.00    +0.000 OA
BRANCH  24  26
ATOM     26  O   UNL     1       2.936   6.410  19.473  0.00  0.00    +0.000 OA
ATOM     27  C   UNL     1       2.128   7.571  19.684  0.00  0.00    +0.000 C 
ENDBRANCH  24  26
ENDBRANCH  15  24
ENDBRANCH   1  15
TORSDOF 11
ENDMDL
MODEL 5
REMARK VINA RESULT:      -6.5      4.132      6.244
REMARK  Name = 
REMARK  14 active torsions:
REMARK  status: ('A' for Active; 'I' for Inactive)
REMARK    1  A    between atoms: C_1  and  C_2
REMARK    2  A    between atoms: C_2  and  O_3
REMARK    3  A    between atoms: O_3  and  P_4
REMARK    4  A    between atoms: P_4  and  O_6
REMARK    5  A    between atoms: P_4  and  C_9
REMARK    6  A    between atoms: O_6  and  C_7
REMARK    7  A    between atoms: C_7  and  C_8
REMARK    8  A    between atoms: C_9  and  C_10
REMARK    9  A    between atoms: C_9  and  C_14
REMARK   10  A    between atoms: C_10  and  O_12
REMARK   11  A    between atoms: O_12  and  C_13
REMARK   12  A    between atoms: C_14  and  C_16
REMARK   13  A    between atoms: N_18  and  C_19
REMARK   14  A    between atoms: C_23  and  O_24
REMARK                            x       y       z     vdW  Elec       q    Type
REMARK                         _______ _______ _______ _____ _____    ______ ____
ROOT
ATOM      1  C   UNL     1       6.816   7.014  17.449  0.00  0.00    +0.000 C 
ATOM      2  O   UNL     1       6.184   7.604  16.578  0.00  0.00    +0.000 OA
ENDROOT
BRANCH   1   3
ATOM      3  C   UNL     1       7.934   7.761  18.155  0.00  0.00    +0.000 C 
ATOM      4  O   UNL     1       8.573   7.139  18.987  0.00  0.00    +0.000 OA
ATOM      5  N   UNL     1       8.029   9.099  17.802  0.00  0.00    +0.000 N 
ATOM      6  H   UNL     1       7.329   9.437  17.148  0.00  0.00    +0.000 HD
BRANCH   5   7
ATOM      7  C   UNL     1       8.897  10.047  18.388  0.00  0.00    +0.000 A 
ATOM      8  C   UNL     1       9.878  10.718  17.653  0.00  0.00    +0.000 A 
ATOM      9  C   UNL     1      10.783  11.580  18.277  0.00  0.00    +0.000 A 
ATOM     10  C   UNL     1      10.720  11.783  19.650  0.00  0.00    +0.000 A 
ATOM     11  C   UNL     1       9.721  11.145  20.383  0.00  0.00    +0.000 A 
ATOM     12  C   UNL     1       8.796  10.300  19.762  0.00  0.00    +0.000 A 
BRANCH  11  13
ATOM     13  O   UNL     1       9.637  11.311  21.734  0.00  0.00    +0.000 OA
ATOM     14  H   UNL     1      10.465  10.996  22.137  0.00  0.00    +0.000 HD
ENDBRANCH  11  13
ENDBRANCH   5   7
ENDBRANCH   1   3
BRANCH   1  15
ATOM     15  C   UNL     1       6.542   5.605  17.887  0.00  0.00    +0.000 C 
BRANCH  15  16
ATOM     16  P   UNL     1       4.803   5.188  18.273  0.00  0.00    +0.000 P 
ATOM     17  O   UNL     1       4.834   6.218  19.416  0.00  0.00    +0.000 OA
BRANCH  16  18
ATOM     18  O   UNL     1       3.158   4.794  18.637  0.00  0.00    +0.000 OA
BRANCH  18  20
ATOM     19  C   UNL     1       1.765   5.034  20.593  0.00  0.00    +0.000 C 
ATOM     20  C   UNL     1       2.489   5.745  19.467  0.00  0.00    +0.000 C 
ENDBRANCH  18  20
ENDBRANCH  16  18
BRANCH  16  21
ATOM     21  O   UNL     1       5.263   3.741  18.962  0.00  0.00    +0.000 OA
BRANCH  21  22
ATOM     22  C   UNL     1       4.330   2.668  19.049  0.00  0.00    +0.000 C 
ATOM     23  C   UNL     1       4.374   2.057  20.440  0.00  0.00    +0.000 C 
ENDBRANCH  21  22
ENDBRANCH  16  21
ENDBRANCH  15  16
BRANCH  15  24
ATOM     24  C   UNL     1       7.119   4.592  16.979  0.00  0.00    +0.000 C 
ATOM     25  O   UNL     1       8.243   4.112  17.111  0.00  0.00    +0.000 OA
BRANCH  24  26
ATOM     26  O   UNL     1       6.258   4.319  15.960  0.00  0.00    +0.000 OA
ATOM     27  C   UNL     1       6.789   4.464  14.640  0.00  0.00    +0.000 C 
ENDBRANCH  24  26
ENDBRANCH  15  24
ENDBRANCH   1  15
TORSDOF 11
ENDMDL
MODEL 6
REMARK VINA RESULT:      -6.4      1.390      3.254
REMARK  Name = 
REMARK  14 active torsions:
REMARK  status: ('A' for Active; 'I' for Inactive)
REMARK    1  A    between atoms: C_1  and  C_2
REMARK    2  A    between atoms: C_2  and  O_3
REMARK    3  A    between atoms: O_3  and  P_4
REMARK    4  A    between atoms: P_4  and  O_6
REMARK    5  A    between atoms: P_4  and  C_9
REMARK    6  A    between atoms: O_6  and  C_7
REMARK    7  A    between atoms: C_7  and  C_8
REMARK    8  A    between atoms: C_9  and  C_10
REMARK    9  A    between atoms: C_9  and  C_14
REMARK   10  A    between atoms: C_10  and  O_12
REMARK   11  A    between atoms: O_12  and  C_13
REMARK   12  A    between atoms: C_14  and  C_16
REMARK   13  A    between atoms: N_18  and  C_19
REMARK   14  A    between atoms: C_23  and  O_24
REMARK                            x       y       z     vdW  Elec       q    Type
REMARK                         _______ _______ _______ _____ _____    ______ ____
ROOT
ATOM      1  C   UNL     1       6.430   5.717  18.108  0.00  0.00    +0.000 C 
ATOM      2  O   UNL     1       7.120   6.599  18.610  0.00  0.00    +0.000 OA
ENDROOT
BRANCH   1   3
ATOM      3  C   UNL     1       6.955   5.013  16.869  0.00  0.00    +0.000 C 
ATOM      4  O   UNL     1       7.978   4.361  16.997  0.00  0.00    +0.000 OA
ATOM      5  N   UNL     1       6.223   5.272  15.720  0.00  0.00    +0.000 N 
ATOM      6  H   UNL     1       5.450   5.923  15.824  0.00  0.00    +0.000 HD
BRANCH   5   7
ATOM      7  C   UNL     1       6.554   4.843  14.416  0.00  0.00    +0.000 A 
ATOM      8  C   UNL     1       7.579   5.432  13.671  0.00  0.00    +0.000 A 
ATOM      9  C   UNL     1       7.821   5.048  12.350  0.00  0.00    +0.000 A 
ATOM     10  C   UNL     1       7.039   4.069  11.752  0.00  0.00    +0.000 A 
ATOM     11  C   UNL     1       6.038   3.452  12.501  0.00  0.00    +0.000 A 
ATOM     12  C   UNL     1       5.805   3.812  13.832  0.00  0.00    +0.000 A 
BRANCH  11  13
ATOM     13  O   UNL     1       5.242   2.495  11.943  0.00  0.00    +0.000 OA
ATOM     14  H   UNL     1       5.671   2.170  11.133  0.00  0.00    +0.000 HD
ENDBRANCH  11  13
ENDBRANCH   5   7
ENDBRANCH   1   3
BRANCH   1  15
ATOM     15  C   UNL     1       5.107   5.263  18.653  0.00  0.00    +0.000 C 
BRANCH  15  16
ATOM     16  P   UNL     1       3.638   6.234  18.157  0.00  0.00    +0.000 P 
ATOM     17  O   UNL     1       4.565   7.411  17.803  0.00  0.00    +0.000 OA
BRANCH  16  18
ATOM     18  O   UNL     1       2.248   7.152  17.688  0.00  0.00    +0.000 OA
BRANCH  18  20
ATOM     19  C   UNL     1       1.417   9.330  18.317  0.00  0.00    +0.000 C 
ATOM     20  C   UNL     1       2.479   8.556  17.561  0.00  0.00    +0.000 C 
ENDBRANCH  18  20
ENDBRANCH  16  18
BRANCH  16  21
ATOM     21  O   UNL     1       3.208   6.468  19.751  0.00  0.00    +0.000 OA
BRANCH  21  22
ATOM     22  C   UNL     1       1.915   6.075  20.202  0.00  0.00    +0.000 C 
ATOM     23  C   UNL     1       1.994   4.713  20.873  0.00  0.00    +0.000 C 
ENDBRANCH  21  22
ENDBRANCH  16  21
ENDBRANCH  15  16
BRANCH  15  24
ATOM     24  C   UNL     1       4.858   3.821  18.446  0.00  0.00    +0.000 C 
ATOM     25  O   UNL     1       4.382   3.348  17.417  0.00  0.00    +0.000 OA
BRANCH  24  26
ATOM     26  O   UNL     1       5.174   3.117  19.567  0.00  0.00    +0.000 OA
ATOM     27  C   UNL     1       4.299   2.032  19.890  0.00  0.00    +0.000 C 
ENDBRANCH  24  26
ENDBRANCH  15  24
ENDBRANCH   1  15
TORSDOF 11
ENDMDL
MODEL 7
REMARK VINA RESULT:      -6.4      2.418      7.017
REMARK  Name = 
REMARK  14 active torsions:
REMARK  status: ('A' for Active; 'I' for Inactive)
REMARK    1  A    between atoms: C_1  and  C_2
REMARK    2  A    between atoms: C_2  and  O_3
REMARK    3  A    between atoms: O_3  and  P_4
REMARK    4  A    between atoms: P_4  and  O_6
REMARK    5  A    between atoms: P_4  and  C_9
REMARK    6  A    between atoms: O_6  and  C_7
REMARK    7  A    between atoms: C_7  and  C_8
REMARK    8  A    between atoms: C_9  and  C_10
REMARK    9  A    between atoms: C_9  and  C_14
REMARK   10  A    between atoms: C_10  and  O_12
REMARK   11  A    between atoms: O_12  and  C_13
REMARK   12  A    between atoms: C_14  and  C_16
REMARK   13  A    between atoms: N_18  and  C_19
REMARK   14  A    between atoms: C_23  and  O_24
REMARK                            x       y       z     vdW  Elec       q    Type
REMARK                         _______ _______ _______ _____ _____    ______ ____
ROOT
ATOM      1  C   UNL     1       2.823   4.989  17.909  0.00  0.00    +0.000 C 
ATOM      2  O   UNL     1       1.785   4.525  17.445  0.00  0.00    +0.000 OA
ENDROOT
BRANCH   1   3
ATOM      3  C   UNL     1       2.741   6.279  18.705  0.00  0.00    +0.000 C 
ATOM      4  O   UNL     1       3.075   6.226  19.877  0.00  0.00    +0.000 OA
ATOM      5  N   UNL     1       2.216   7.348  17.994  0.00  0.00    +0.000 N 
ATOM      6  H   UNL     1       1.915   7.145  17.045  0.00  0.00    +0.000 HD
BRANCH   5   7
ATOM      7  C   UNL     1       1.922   8.625  18.522  0.00  0.00    +0.000 A 
ATOM      8  C   UNL     1       1.204   8.799  19.708  0.00  0.00    +0.000 A 
ATOM      9  C   UNL     1       0.849  10.074  20.154  0.00  0.00    +0.000 A 
ATOM     10  C   UNL     1       1.206  11.196  19.419  0.00  0.00    +0.000 A 
ATOM     11  C   UNL     1       1.954  11.032  18.254  0.00  0.00    +0.000 A 
ATOM     12  C   UNL     1       2.335   9.761  17.812  0.00  0.00    +0.000 A 
BRANCH  11  13
ATOM     13  O   UNL     1       2.311  12.111  17.500  0.00  0.00    +0.000 OA
ATOM     14  H   UNL     1       1.763  12.122  16.697  0.00  0.00    +0.000 HD
ENDBRANCH  11  13
ENDBRANCH   5   7
ENDBRANCH   1   3
BRANCH   1  15
ATOM     15  C   UNL     1       4.174   4.350  17.766  0.00  0.00    +0.000 C 
BRANCH  15  16
ATOM     16  P   UNL     1       5.529   5.420  17.160  0.00  0.00    +0.000 P 
ATOM     17  O   UNL     1       4.517   6.151  16.260  0.00  0.00    +0.000 OA
BRANCH  16  18
ATOM     18  O   UNL     1       6.810   6.432  16.587  0.00  0.00    +0.000 OA
BRANCH  18  20
ATOM     19  C   UNL     1       8.119   7.210  18.459  0.00  0.00    +0.000 C 
ATOM     20  C   UNL     1       7.084   7.567  17.411  0.00  0.00    +0.000 C 
ENDBRANCH  18  20
ENDBRANCH  16  18
BRANCH  16  21
ATOM     21  O   UNL     1       6.141   4.181  16.228  0.00  0.00    +0.000 OA
BRANCH  21  22
ATOM     22  C   UNL     1       6.886   4.480  15.051  0.00  0.00    +0.000 C 
ATOM     23  C   UNL     1       6.150   3.956  13.827  0.00  0.00    +0.000 C 
ENDBRANCH  21  22
ENDBRANCH  16  21
ENDBRANCH  15  16
BRANCH  15  24
ATOM     24  C   UNL     1       4.603   3.623  18.978  0.00  0.00    +0.000 C 
ATOM     25  O   UNL     1       5.682   3.799  19.539  0.00  0.00    +0.000 OA
BRANCH  24  26
ATOM     26  O   UNL     1       3.667   2.703  19.340  0.00  0.00    +0.000 OA
ATOM     27  C   UNL     1       3.271   2.723  20.714  0.00  0.00    +0.000 C 
ENDBRANCH  24  26
ENDBRANCH  15  24
ENDBRANCH   1  15
TORSDOF 11
ENDMDL
MODEL 8
REMARK VINA RESULT:      -6.4      2.942      7.288
REMARK  Name = 
REMARK  14 active torsions:
REMARK  status: ('A' for Active; 'I' for Inactive)
REMARK    1  A    between atoms: C_1  and  C_2
REMARK    2  A    between atoms: C_2  and  O_3
REMARK    3  A    between atoms: O_3  and  P_4
REMARK    4  A    between atoms: P_4  and  O_6
REMARK    5  A    between atoms: P_4  and  C_9
REMARK    6  A    between atoms: O_6  and  C_7
REMARK    7  A    between atoms: C_7  and  C_8
REMARK    8  A    between atoms: C_9  and  C_10
REMARK    9  A    between atoms: C_9  and  C_14
REMARK   10  A    between atoms: C_10  and  O_12
REMARK   11  A    between atoms: O_12  and  C_13
REMARK   12  A    between atoms: C_14  and  C_16
REMARK   13  A    between atoms: N_18  and  C_19
REMARK   14  A    between atoms: C_23  and  O_24
REMARK                            x       y       z     vdW  Elec       q    Type
REMARK                         _______ _______ _______ _____ _____    ______ ____
ROOT
ATOM      1  C   UNL     1       3.649   6.899  17.885  0.00  0.00    +0.000 C 
ATOM      2  O   UNL     1       4.253   7.058  16.828  0.00  0.00    +0.000 OA
ENDROOT
BRANCH   1   3
ATOM      3  C   UNL     1       2.618   7.939  18.286  0.00  0.00    +0.000 C 
ATOM      4  O   UNL     1       2.381   8.822  17.478  0.00  0.00    +0.000 OA
ATOM      5  N   UNL     1       2.130   7.781  19.575  0.00  0.00    +0.000 N 
ATOM      6  H   UNL     1       2.536   7.021  20.113  0.00  0.00    +0.000 HD
BRANCH   5   7
ATOM      7  C   UNL     1       1.255   8.668  20.240  0.00  0.00    +0.000 A 
ATOM      8  C   UNL     1       0.432   9.565  19.553  0.00  0.00    +0.000 A 
ATOM      9  C   UNL     1      -0.353  10.493  20.240  0.00  0.00    +0.000 A 
ATOM     10  C   UNL     1      -0.326  10.540  21.628  0.00  0.00    +0.000 A 
ATOM     11  C   UNL     1       0.464   9.624  22.320  0.00  0.00    +0.000 A 
ATOM     12  C   UNL     1       1.235   8.676  21.641  0.00  0.00    +0.000 A 
BRANCH  11  13
ATOM     13  O   UNL     1       0.525   9.649  23.682  0.00  0.00    +0.000 OA
ATOM     14  H   UNL     1       1.320   9.165  23.965  0.00  0.00    +0.000 HD
ENDBRANCH  11  13
ENDBRANCH   5   7
ENDBRANCH   1   3
BRANCH   1  15
ATOM     15  C   UNL     1       3.840   5.725  18.801  0.00  0.00    +0.000 C 
BRANCH  15  16
ATOM     16  P   UNL     1       2.668   4.333  18.607  0.00  0.00    +0.000 P 
ATOM     17  O   UNL     1       1.839   5.197  17.640  0.00  0.00    +0.000 OA
BRANCH  16  18
ATOM     18  O   UNL     1       1.560   3.017  18.424  0.00  0.00    +0.000 OA
BRANCH  18  20
ATOM     19  C   UNL     1       3.677   1.909  18.082  0.00  0.00    +0.000 C 
ATOM     20  C   UNL     1       2.178   1.744  18.227  0.00  0.00    +0.000 C 
ENDBRANCH  18  20
ENDBRANCH  16  18
BRANCH  16  21
ATOM     21  O   UNL     1       2.026   4.615  20.120  0.00  0.00    +0.000 OA
BRANCH  21  22
ATOM     22  C   UNL     1       1.124   3.674  20.694  0.00  0.00    +0.000 C 
ATOM     23  C   UNL     1       1.838   2.859  21.761  0.00  0.00    +0.000 C 
ENDBRANCH  21  22
ENDBRANCH  16  21
ENDBRANCH  15  16
BRANCH  15  24
ATOM     24  C   UNL     1       5.229   5.222  18.818  0.00  0.00    +0.000 C 
ATOM     25  O   UNL     1       6.050   5.501  19.689  0.00  0.00    +0.000 OA
BRANCH  24  26
ATOM     26  O   UNL     1       5.476   4.466  17.713  0.00  0.00    +0.000 OA
ATOM     27  C   UNL     1       6.786   4.590  17.152  0.00  0.00    +0.000 C 
ENDBRANCH  24  26
ENDBRANCH  15  24
ENDBRANCH   1  15
TORSDOF 11
ENDMDL
MODEL 9
REMARK VINA RESULT:      -6.3      3.159      7.835
REMARK  Name = 
REMARK  14 active torsions:
REMARK  status: ('A' for Active; 'I' for Inactive)
REMARK    1  A    between atoms: C_1  and  C_2
REMARK    2  A    between atoms: C_2  and  O_3
REMARK    3  A    between atoms: O_3  and  P_4
REMARK    4  A    between atoms: P_4  and  O_6
REMARK    5  A    between atoms: P_4  and  C_9
REMARK    6  A    between atoms: O_6  and  C_7
REMARK    7  A    between atoms: C_7  and  C_8
REMARK    8  A    between atoms: C_9  and  C_10
REMARK    9  A    between atoms: C_9  and  C_14
REMARK   10  A    between atoms: C_10  and  O_12
REMARK   11  A    between atoms: O_12  and  C_13
REMARK   12  A    between atoms: C_14  and  C_16
REMARK   13  A    between atoms: N_18  and  C_19
REMARK   14  A    between atoms: C_23  and  O_24
REMARK                            x       y       z     vdW  Elec       q    Type
REMARK                         _______ _______ _______ _____ _____    ______ ____
ROOT
ATOM      1  C   UNL     1       3.042   5.788  19.142  0.00  0.00    +0.000 C 
ATOM      2  O   UNL     1       3.375   5.309  20.222  0.00  0.00    +0.000 OA
ENDROOT
BRANCH   1   3
ATOM      3  C   UNL     1       2.171   7.032  19.145  0.00  0.00    +0.000 C 
ATOM      4  O   UNL     1       1.964   7.563  18.067  0.00  0.00    +0.000 OA
ATOM      5  N   UNL     1       1.783   7.445  20.411  0.00  0.00    +0.000 N 
ATOM      6  H   UNL     1       2.147   6.901  21.187  0.00  0.00    +0.000 HD
BRANCH   5   7
ATOM      7  C   UNL     1       1.072   8.629  20.710  0.00  0.00    +0.000 A 
ATOM      8  C   UNL     1       1.146   9.771  19.908  0.00  0.00    +0.000 A 
ATOM      9  C   UNL     1       0.507  10.955  20.280  0.00  0.00    +0.000 A 
ATOM     10  C   UNL     1      -0.217  11.016  21.464  0.00  0.00    +0.000 A 
ATOM     11  C   UNL     1      -0.325   9.870  22.251  0.00  0.00    +0.000 A 
ATOM     12  C   UNL     1       0.292   8.673  21.873  0.00  0.00    +0.000 A 
BRANCH  11  13
ATOM     13  O   UNL     1      -1.017   9.897  23.425  0.00  0.00    +0.000 OA
ATOM     14  H   UNL     1      -1.275  10.815  23.612  0.00  0.00    +0.000 HD
ENDBRANCH  11  13
ENDBRANCH   5   7
ENDBRANCH   1   3
BRANCH   1  15
ATOM     15  C   UNL     1       3.460   5.240  17.808  0.00  0.00    +0.000 C 
BRANCH  15  16
ATOM     16  P   UNL     1       5.216   5.463  17.342  0.00  0.00    +0.000 P 
ATOM     17  O   UNL     1       4.921   6.942  17.032  0.00  0.00    +0.000 OA
BRANCH  16  18
ATOM     18  O   UNL     1       6.876   5.674  16.902  0.00  0.00    +0.000 OA
BRANCH  18  20
ATOM     19  C   UNL     1       7.214   5.578  19.290  0.00  0.00    +0.000 C 
ATOM     20  C   UNL     1       7.721   6.115  17.967  0.00  0.00    +0.000 C 
ENDBRANCH  18  20
ENDBRANCH  16  18
BRANCH  16  21
ATOM     21  O   UNL     1       4.977   4.649  15.907  0.00  0.00    +0.000 OA
BRANCH  21  22
ATOM     22  C   UNL     1       6.012   3.826  15.378  0.00  0.00    +0.000 C 
ATOM     23  C   UNL     1       6.061   3.965  13.865  0.00  0.00    +0.000 C 
ENDBRANCH  21  22
ENDBRANCH  16  21
ENDBRANCH  15  16
BRANCH  15  24
ATOM     24  C   UNL     1       3.054   3.834  17.605  0.00  0.00    +0.000 C 
ATOM     25  O   UNL     1       2.038   3.493  17.004  0.00  0.00    +0.000 OA
BRANCH  24  26
ATOM     26  O   UNL     1       3.928   2.992  18.222  0.00  0.00    +0.000 OA
ATOM     27  C   UNL     1       3.533   1.618  18.281  0.00  0.00    +0.000 C 
ENDBRANCH  24  26
ENDBRANCH  15  24
ENDBRANCH   1  15
TORSDOF 11
ENDMDL
