MODEL 1
REMARK VINA RESULT:      -9.2      0.000      0.000
REMARK  Name = 
REMARK  7 active torsions:
REMARK  status: ('A' for Active; 'I' for Inactive)
REMARK    1  A    between atoms: C_2  and  C_30
REMARK    2  A    between atoms: N_3  and  C_4
REMARK    3  A    between atoms: C_4  and  C_5
REMARK    4  A    between atoms: C_5  and  C_6
REMARK    5  A    between atoms: N_14  and  C_15
REMARK    6  A    between atoms: C_15  and  C_16
REMARK    7  A    between atoms: C_19  and  C_20
REMARK                            x       y       z     vdW  Elec       q    Type
REMARK                         _______ _______ _______ _____ _____    ______ ____
ROOT
ATOM      1  C   UNL     1       6.369   5.426  17.293  0.00  0.00    +0.000 C 
ATOM      2  C   UNL     1       6.070   6.767  16.588  0.00  0.00    +0.000 C 
ATOM      3  C   UNL     1       7.182   7.705  17.027  0.00  0.00    +0.000 C 
ATOM      4  N   UNL     1       7.664   7.164  18.268  0.00  0.00    +0.000 N 
ATOM      5  C   UNL     1       7.251   5.858  18.487  0.00  0.00    +0.000 C 
ATOM      6  O   UNL     1       7.594   5.138  19.414  0.00  0.00    +0.000 OA
ENDROOT
BRANCH   1   9
ATOM      7  O   UNL     1       4.082   6.507  18.643  0.00  0.00    +0.000 OA
ATOM      8  C   UNL     1       4.126   5.309  18.393  0.00  0.00    +0.000 C 
ATOM      9  N   UNL     1       5.185   4.693  17.768  0.00  0.00    +0.000 N 
ATOM     10  H   UNL     1       5.276   3.691  17.871  0.00  0.00    +0.000 HD
BRANCH   8  11
ATOM     11  C   UNL     1       2.983   4.433  18.774  0.00  0.00    +0.000 A 
ATOM     12  C   UNL     1       2.691   3.249  18.086  0.00  0.00    +0.000 A 
ATOM     13  C   UNL     1       1.563   2.502  18.435  0.00  0.00    +0.000 A 
ATOM     14  C   UNL     1       0.727   2.934  19.464  0.00  0.00    +0.000 A 
ATOM     15  C   UNL     1       1.015   4.112  20.152  0.00  0.00    +0.000 A 
ATOM     16  C   UNL     1       2.138   4.862  19.806  0.00  0.00    +0.000 A 
ENDBRANCH   8  11
ENDBRANCH   1   9
BRANCH   1  17
ATOM     17  C   UNL     1       7.258   4.495  16.410  0.00  0.00    +0.000 C 
BRANCH  17  18
ATOM     18  C   UNL     1       7.028   4.449  14.905  0.00  0.00    +0.000 A 
ATOM     19  C   UNL     1       7.809   5.138  13.966  0.00  0.00    +0.000 A 
ATOM     20  C   UNL     1       7.566   5.013  12.595  0.00  0.00    +0.000 A 
ATOM     21  C   UNL     1       6.533   4.202  12.139  0.00  0.00    +0.000 A 
ATOM     22  C   UNL     1       5.730   3.528  13.053  0.00  0.00    +0.000 A 
ATOM     23  C   UNL     1       5.972   3.654  14.424  0.00  0.00    +0.000 A 
ENDBRANCH  17  18
ENDBRANCH   1  17
BRANCH   4  24
ATOM     24  C   UNL     1       8.679   7.837  19.054  0.00  0.00    +0.000 C 
BRANCH  24  25
ATOM     25  C   UNL     1       8.733   9.337  18.882  0.00  0.00    +0.000 A 
ATOM     26  C   UNL     1       9.497  10.133  19.739  0.00  0.00    +0.000 A 
ATOM     27  C   UNL     1       9.687  11.498  19.471  0.00  0.00    +0.000 A 
ATOM     28  C   UNL     1       9.133  12.117  18.334  0.00  0.00    +0.000 A 
ATOM     29  C   UNL     1       8.326  11.312  17.511  0.00  0.00    +0.000 A 
ATOM     30  C   UNL     1       8.122   9.951  17.781  0.00  0.00    +0.000 A 
BRANCH  28  31
ATOM     31  C   UNL     1       9.416  13.540  18.006  0.00  0.00    +0.000 A 
ATOM     32  C   UNL     1      10.679  13.946  17.531  0.00  0.00    +0.000 A 
ATOM     33  C   UNL     1      10.956  15.283  17.223  0.00  0.00    +0.000 A 
ATOM     34  C   UNL     1       9.969  16.251  17.368  0.00  0.00    +0.000 A 
ATOM     35  C   UNL     1       8.706  15.880  17.819  0.00  0.00    +0.000 A 
ATOM     36  C   UNL     1       8.437  14.542  18.137  0.00  0.00    +0.000 A 
ENDBRANCH  28  31
ENDBRANCH  24  25
ENDBRANCH   4  24
TORSDOF 7
ENDMDL
MODEL 2
REMARK VINA RESULT:      -9.0      0.864      1.134
REMARK  Name = 
REMARK  7 active torsions:
REMARK  status: ('A' for Active; 'I' for Inactive)
REMARK    1  A    between atoms: C_2  and  C_30
REMARK    2  A    between atoms: N_3  and  C_4
REMARK    3  A    between atoms: C_4  and  C_5
REMARK    4  A    between atoms: C_5  and  C_6
REMARK    5  A    between atoms: N_14  and  C_15
REMARK    6  A    between atoms: C_15  and  C_16
REMARK    7  A    between atoms: C_19  and  C_20
REMARK                            x       y       z     vdW  Elec       q    Type
REMARK                         _______ _______ _______ _____ _____    ______ ____
ROOT
ATOM      1  C   UNL     1       6.413   5.655  17.905  0.00  0.00    +0.000 C 
ATOM      2  C   UNL     1       6.075   6.902  17.058  0.00  0.00    +0.000 C 
ATOM      3  C   UNL     1       7.270   7.827  17.218  0.00  0.00    +0.000 C 
ATOM      4  N   UNL     1       7.890   7.435  18.454  0.00  0.00    +0.000 N 
ATOM      5  C   UNL     1       7.459   6.196  18.906  0.00  0.00    +0.000 C 
ATOM      6  O   UNL     1       7.892   5.592  19.877  0.00  0.00    +0.000 OA
ENDROOT
BRANCH   1   9
ATOM      7  O   UNL     1       3.704   5.433  16.989  0.00  0.00    +0.000 OA
ATOM      8  C   UNL     1       4.009   4.986  18.087  0.00  0.00    +0.000 C 
ATOM      9  N   UNL     1       5.274   5.062  18.623  0.00  0.00    +0.000 N 
ATOM     10  H   UNL     1       5.369   4.951  19.624  0.00  0.00    +0.000 HD
BRANCH   8  11
ATOM     11  C   UNL     1       2.976   4.317  18.924  0.00  0.00    +0.000 A 
ATOM     12  C   UNL     1       1.970   3.517  18.366  0.00  0.00    +0.000 A 
ATOM     13  C   UNL     1       0.978   2.972  19.186  0.00  0.00    +0.000 A 
ATOM     14  C   UNL     1       0.987   3.226  20.558  0.00  0.00    +0.000 A 
ATOM     15  C   UNL     1       1.987   4.020  21.117  0.00  0.00    +0.000 A 
ATOM     16  C   UNL     1       2.977   4.567  20.303  0.00  0.00    +0.000 A 
ENDBRANCH   8  11
ENDBRANCH   1   9
BRANCH   1  17
ATOM     17  C   UNL     1       7.142   4.564  17.062  0.00  0.00    +0.000 C 
BRANCH  17  18
ATOM     18  C   UNL     1       6.919   4.510  15.555  0.00  0.00    +0.000 A 
ATOM     19  C   UNL     1       7.723   5.169  14.615  0.00  0.00    +0.000 A 
ATOM     20  C   UNL     1       7.484   5.038  13.244  0.00  0.00    +0.000 A 
ATOM     21  C   UNL     1       6.433   4.249  12.789  0.00  0.00    +0.000 A 
ATOM     22  C   UNL     1       5.607   3.605  13.706  0.00  0.00    +0.000 A 
ATOM     23  C   UNL     1       5.845   3.738  15.077  0.00  0.00    +0.000 A 
ENDBRANCH  17  18
ENDBRANCH   1  17
BRANCH   4  24
ATOM     24  C   UNL     1       9.023   8.152  19.004  0.00  0.00    +0.000 C 
BRANCH  24  25
ATOM     25  C   UNL     1       8.906   9.657  18.972  0.00  0.00    +0.000 A 
ATOM     26  C   UNL     1       9.278  10.432  20.074  0.00  0.00    +0.000 A 
ATOM     27  C   UNL     1       9.336  11.831  19.980  0.00  0.00    +0.000 A 
ATOM     28  C   UNL     1       9.040  12.509  18.783  0.00  0.00    +0.000 A 
ATOM     29  C   UNL     1       8.620  11.718  17.700  0.00  0.00    +0.000 A 
ATOM     30  C   UNL     1       8.547  10.319  17.792  0.00  0.00    +0.000 A 
BRANCH  28  31
ATOM     31  C   UNL     1       9.195  13.984  18.664  0.00  0.00    +0.000 A 
ATOM     32  C   UNL     1       8.203  14.780  18.059  0.00  0.00    +0.000 A 
ATOM     33  C   UNL     1       8.342  16.168  17.939  0.00  0.00    +0.000 A 
ATOM     34  C   UNL     1       9.475  16.801  18.438  0.00  0.00    +0.000 A 
ATOM     35  C   UNL     1      10.466  16.045  19.056  0.00  0.00    +0.000 A 
ATOM     36  C   UNL     1      10.328  14.655  19.163  0.00  0.00    +0.000 A 
ENDBRANCH  28  31
ENDBRANCH  24  25
ENDBRANCH   4  24
TORSDOF 7
ENDMDL
MODEL 3
REMARK VINA RESULT:      -9.0      0.683      1.041
REMARK  Name = 
REMARK  7 active torsions:
REMARK  status: ('A' for Active; 'I' for Inactive)
REMARK    1  A    between atoms: C_2  and  C_30
REMARK    2  A    between atoms: N_3  and  C_4
REMARK    3  A    between atoms: C_4  and  C_5
REMARK    4  A    between atoms: C_5  and  C_6
REMARK    5  A    between atoms: N_14  and  C_15
REMARK    6  A    between atoms: C_15  and  C_16
REMARK    7  A    between atoms: C_19  and  C_20
REMARK                            x       y       z     vdW  Elec       q    Type
REMARK                         _______ _______ _______ _____ _____    ______ ____
ROOT
ATOM      1  C   UNL     1       6.412   5.625  17.847  0.00  0.00    +0.000 C 
ATOM      2  C   UNL     1       6.056   6.876  17.014  0.00  0.00    +0.000 C 
ATOM      3  C   UNL     1       7.233   7.821  17.192  0.00  0.00    +0.000 C 
ATOM      4  N   UNL     1       7.854   7.424  18.425  0.00  0.00    +0.000 N 
ATOM      5  C   UNL     1       7.444   6.172  18.860  0.00  0.00    +0.000 C 
ATOM      6  O   UNL     1       7.884   5.564  19.825  0.00  0.00    +0.000 OA
ENDROOT
BRANCH   1   9
ATOM      7  O   UNL     1       3.638   5.743  17.129  0.00  0.00    +0.000 OA
ATOM      8  C   UNL     1       3.981   5.102  18.115  0.00  0.00    +0.000 C 
ATOM      9  N   UNL     1       5.281   5.002  18.552  0.00  0.00    +0.000 N 
ATOM     10  H   UNL     1       5.435   4.722  19.511  0.00  0.00    +0.000 HD
BRANCH   8  11
ATOM     11  C   UNL     1       2.956   4.378  18.916  0.00  0.00    +0.000 A 
ATOM     12  C   UNL     1       2.083   5.043  19.787  0.00  0.00    +0.000 A 
ATOM     13  C   UNL     1       1.191   4.310  20.573  0.00  0.00    +0.000 A 
ATOM     14  C   UNL     1       1.168   2.918  20.493  0.00  0.00    +0.000 A 
ATOM     15  C   UNL     1       2.034   2.252  19.627  0.00  0.00    +0.000 A 
ATOM     16  C   UNL     1       2.928   2.979  18.843  0.00  0.00    +0.000 A 
ENDBRANCH   8  11
ENDBRANCH   1   9
BRANCH   1  17
ATOM     17  C   UNL     1       7.165   4.558  16.993  0.00  0.00    +0.000 C 
BRANCH  17  18
ATOM     18  C   UNL     1       6.922   4.495  15.490  0.00  0.00    +0.000 A 
ATOM     19  C   UNL     1       7.742   5.107  14.532  0.00  0.00    +0.000 A 
ATOM     20  C   UNL     1       7.481   4.969  13.166  0.00  0.00    +0.000 A 
ATOM     21  C   UNL     1       6.391   4.222  12.734  0.00  0.00    +0.000 A 
ATOM     22  C   UNL     1       5.549   3.627  13.668  0.00  0.00    +0.000 A 
ATOM     23  C   UNL     1       5.809   3.766  15.034  0.00  0.00    +0.000 A 
ENDBRANCH  17  18
ENDBRANCH   1  17
BRANCH   4  24
ATOM     24  C   UNL     1       8.972   8.154  18.990  0.00  0.00    +0.000 C 
BRANCH  24  25
ATOM     25  C   UNL     1       8.872   9.657  18.887  0.00  0.00    +0.000 A 
ATOM     26  C   UNL     1       9.404  10.484  19.881  0.00  0.00    +0.000 A 
ATOM     27  C   UNL     1       9.468  11.874  19.699  0.00  0.00    +0.000 A 
ATOM     28  C   UNL     1       9.018  12.491  18.516  0.00  0.00    +0.000 A 
ATOM     29  C   UNL     1       8.441  11.651  17.549  0.00  0.00    +0.000 A 
ATOM     30  C   UNL     1       8.362  10.261  17.731  0.00  0.00    +0.000 A 
BRANCH  28  31
ATOM     31  C   UNL     1       9.176  13.953  18.292  0.00  0.00    +0.000 A 
ATOM     32  C   UNL     1      10.442  14.528  18.064  0.00  0.00    +0.000 A 
ATOM     33  C   UNL     1      10.602  15.903  17.855  0.00  0.00    +0.000 A 
ATOM     34  C   UNL     1       9.493  16.741  17.853  0.00  0.00    +0.000 A 
ATOM     35  C   UNL     1       8.226  16.202  18.058  0.00  0.00    +0.000 A 
ATOM     36  C   UNL     1       8.072  14.827  18.279  0.00  0.00    +0.000 A 
ENDBRANCH  28  31
ENDBRANCH  24  25
ENDBRANCH   4  24
TORSDOF 7
ENDMDL
MODEL 4
REMARK VINA RESULT:      -9.0      0.925      1.590
REMARK  Name = 
REMARK  7 active torsions:
REMARK  status: ('A' for Active; 'I' for Inactive)
REMARK    1  A    between atoms: C_2  and  C_30
REMARK    2  A    between atoms: N_3  and  C_4
REMARK    3  A    between atoms: C_4  and  C_5
REMARK    4  A    between atoms: C_5  and  C_6
REMARK    5  A    between atoms: N_14  and  C_15
REMARK    6  A    between atoms: C_15  and  C_16
REMARK    7  A    between atoms: C_19  and  C_20
REMARK                            x       y       z     vdW  Elec       q    Type
REMARK                         _______ _______ _______ _____ _____    ______ ____
ROOT
ATOM      1  C   UNL     1       6.304   5.498  18.115  0.00  0.00    +0.000 C 
ATOM      2  C   UNL     1       5.914   6.706  17.236  0.00  0.00    +0.000 C 
ATOM      3  C   UNL     1       7.107   7.645  17.296  0.00  0.00    +0.000 C 
ATOM      4  N   UNL     1       7.792   7.309  18.513  0.00  0.00    +0.000 N 
ATOM      5  C   UNL     1       7.396   6.088  19.038  0.00  0.00    +0.000 C 
ATOM      6  O   UNL     1       7.883   5.528  20.010  0.00  0.00    +0.000 OA
ENDROOT
BRANCH   1   9
ATOM      7  O   UNL     1       3.618   4.974  17.259  0.00  0.00    +0.000 OA
ATOM      8  C   UNL     1       3.953   4.697  18.404  0.00  0.00    +0.000 C 
ATOM      9  N   UNL     1       5.208   4.928  18.915  0.00  0.00    +0.000 N 
ATOM     10  H   UNL     1       5.311   4.957  19.920  0.00  0.00    +0.000 HD
BRANCH   8  11
ATOM     11  C   UNL     1       2.967   4.075  19.330  0.00  0.00    +0.000 A 
ATOM     12  C   UNL     1       1.629   4.487  19.381  0.00  0.00    +0.000 A 
ATOM     13  C   UNL     1       0.762   3.923  20.320  0.00  0.00    +0.000 A 
ATOM     14  C   UNL     1       1.226   2.953  21.208  0.00  0.00    +0.000 A 
ATOM     15  C   UNL     1       2.557   2.540  21.161  0.00  0.00    +0.000 A 
ATOM     16  C   UNL     1       3.426   3.101  20.227  0.00  0.00    +0.000 A 
ENDBRANCH   8  11
ENDBRANCH   1   9
BRANCH   1  17
ATOM     17  C   UNL     1       7.000   4.378  17.282  0.00  0.00    +0.000 C 
BRANCH  17  18
ATOM     18  C   UNL     1       6.795   4.331  15.773  0.00  0.00    +0.000 A 
ATOM     19  C   UNL     1       5.744   3.653  15.140  0.00  0.00    +0.000 A 
ATOM     20  C   UNL     1       5.594   3.690  13.751  0.00  0.00    +0.000 A 
ATOM     21  C   UNL     1       6.498   4.401  12.969  0.00  0.00    +0.000 A 
ATOM     22  C   UNL     1       7.563   5.061  13.573  0.00  0.00    +0.000 A 
ATOM     23  C   UNL     1       7.713   5.023  14.962  0.00  0.00    +0.000 A 
ENDBRANCH  17  18
ENDBRANCH   1  17
BRANCH   4  24
ATOM     24  C   UNL     1       8.946   8.056  18.974  0.00  0.00    +0.000 C 
BRANCH  24  25
ATOM     25  C   UNL     1       8.827   9.556  18.857  0.00  0.00    +0.000 A 
ATOM     26  C   UNL     1       9.372  10.400  19.829  0.00  0.00    +0.000 A 
ATOM     27  C   UNL     1       9.415  11.789  19.631  0.00  0.00    +0.000 A 
ATOM     28  C   UNL     1       8.930  12.388  18.452  0.00  0.00    +0.000 A 
ATOM     29  C   UNL     1       8.341  11.529  17.508  0.00  0.00    +0.000 A 
ATOM     30  C   UNL     1       8.282  10.141  17.707  0.00  0.00    +0.000 A 
BRANCH  28  31
ATOM     31  C   UNL     1       9.066  13.848  18.208  0.00  0.00    +0.000 A 
ATOM     32  C   UNL     1       7.961  14.716  18.314  0.00  0.00    +0.000 A 
ATOM     33  C   UNL     1       8.077  16.092  18.083  0.00  0.00    +0.000 A 
ATOM     34  C   UNL     1       9.311  16.641  17.753  0.00  0.00    +0.000 A 
ATOM     35  C   UNL     1      10.426  15.814  17.657  0.00  0.00    +0.000 A 
ATOM     36  C   UNL     1      10.302  14.436  17.878  0.00  0.00    +0.000 A 
ENDBRANCH  28  31
ENDBRANCH  24  25
ENDBRANCH   4  24
TORSDOF 7
ENDMDL
MODEL 5
REMARK VINA RESULT:      -8.9      5.686     11.713
REMARK  Name = 
REMARK  7 active torsions:
REMARK  status: ('A' for Active; 'I' for Inactive)
REMARK    1  A    between atoms: C_2  and  C_30
REMARK    2  A    between atoms: N_3  and  C_4
REMARK    3  A    between atoms: C_4  and  C_5
REMARK    4  A    between atoms: C_5  and  C_6
REMARK    5  A    between atoms: N_14  and  C_15
REMARK    6  A    between atoms: C_15  and  C_16
REMARK    7  A    between atoms: C_19  and  C_20
REMARK                            x       y       z     vdW  Elec       q    Type
REMARK                         _______ _______ _______ _____ _____    ______ ____
ROOT
ATOM      1  C   UNL     1       2.736  14.432  19.242  0.00  0.00    +0.000 C 
ATOM      2  C   UNL     1       2.003  13.955  17.968  0.00  0.00    +0.000 C 
ATOM      3  C   UNL     1       0.848  13.103  18.469  0.00  0.00    +0.000 C 
ATOM      4  N   UNL     1       1.244  12.659  19.777  0.00  0.00    +0.000 N 
ATOM      5  C   UNL     1       2.312  13.380  20.293  0.00  0.00    +0.000 C 
ATOM      6  O   UNL     1       2.782  13.269  21.416  0.00  0.00    +0.000 OA
ENDROOT
BRANCH   1   9
ATOM      7  O   UNL     1       4.280  15.562  17.105  0.00  0.00    +0.000 OA
ATOM      8  C   UNL     1       4.851  15.071  18.071  0.00  0.00    +0.000 C 
ATOM      9  N   UNL     1       4.202  14.488  19.134  0.00  0.00    +0.000 N 
ATOM     10  H   UNL     1       4.730  13.856  19.720  0.00  0.00    +0.000 HD
BRANCH   8  11
ATOM     11  C   UNL     1       6.339  15.086  18.133  0.00  0.00    +0.000 A 
ATOM     12  C   UNL     1       7.108  13.957  17.823  0.00  0.00    +0.000 A 
ATOM     13  C   UNL     1       8.497  13.999  17.969  0.00  0.00    +0.000 A 
ATOM     14  C   UNL     1       9.118  15.162  18.425  0.00  0.00    +0.000 A 
ATOM     15  C   UNL     1       8.356  16.288  18.733  0.00  0.00    +0.000 A 
ATOM     16  C   UNL     1       6.970  16.250  18.591  0.00  0.00    +0.000 A 
ENDBRANCH   8  11
ENDBRANCH   1   9
BRANCH   1  17
ATOM     17  C   UNL     1       2.182  15.799  19.748  0.00  0.00    +0.000 C 
BRANCH  17  18
ATOM     18  C   UNL     1       1.353  16.666  18.808  0.00  0.00    +0.000 A 
ATOM     19  C   UNL     1       1.895  17.482  17.805  0.00  0.00    +0.000 A 
ATOM     20  C   UNL     1       1.070  18.218  16.949  0.00  0.00    +0.000 A 
ATOM     21  C   UNL     1      -0.313  18.155  17.086  0.00  0.00    +0.000 A 
ATOM     22  C   UNL     1      -0.872  17.371  18.091  0.00  0.00    +0.000 A 
ATOM     23  C   UNL     1      -0.046  16.637  18.947  0.00  0.00    +0.000 A 
ENDBRANCH  17  18
ENDBRANCH   1  17
BRANCH   4  24
ATOM     24  C   UNL     1       0.436  11.739  20.552  0.00  0.00    +0.000 C 
BRANCH  24  25
ATOM     25  C   UNL     1       0.764  10.278  20.357  0.00  0.00    +0.000 A 
ATOM     26  C   UNL     1       1.237   9.803  19.131  0.00  0.00    +0.000 A 
ATOM     27  C   UNL     1       1.708   8.487  19.005  0.00  0.00    +0.000 A 
ATOM     28  C   UNL     1       1.738   7.599  20.098  0.00  0.00    +0.000 A 
ATOM     29  C   UNL     1       1.213   8.078  21.310  0.00  0.00    +0.000 A 
ATOM     30  C   UNL     1       0.728   9.389  21.439  0.00  0.00    +0.000 A 
BRANCH  28  31
ATOM     31  C   UNL     1       2.325   6.238  19.980  0.00  0.00    +0.000 A 
ATOM     32  C   UNL     1       1.839   5.160  20.744  0.00  0.00    +0.000 A 
ATOM     33  C   UNL     1       2.388   3.876  20.643  0.00  0.00    +0.000 A 
ATOM     34  C   UNL     1       3.432   3.632  19.759  0.00  0.00    +0.000 A 
ATOM     35  C   UNL     1       3.924   4.672  18.976  0.00  0.00    +0.000 A 
ATOM     36  C   UNL     1       3.380   5.958  19.089  0.00  0.00    +0.000 A 
ENDBRANCH  28  31
ENDBRANCH  24  25
ENDBRANCH   4  24
TORSDOF 7
ENDMDL
MODEL 6
REMARK VINA RESULT:      -8.9      7.949     12.459
REMARK  Name = 
REMARK  7 active torsions:
REMARK  status: ('A' for Active; 'I' for Inactive)
REMARK    1  A    between atoms: C_2  and  C_30
REMARK    2  A    between atoms: N_3  and  C_4
REMARK    3  A    between atoms: C_4  and  C_5
REMARK    4  A    between atoms: C_5  and  C_6
REMARK    5  A    between atoms: N_14  and  C_15
REMARK    6  A    between atoms: C_15  and  C_16
REMARK    7  A    between atoms: C_19  and  C_20
REMARK                            x       y       z     vdW  Elec       q    Type
REMARK                         _______ _______ _______ _____ _____    ______ ____
ROOT
ATOM      1  C   UNL     1      -1.176  13.405  20.033  0.00  0.00    +0.000 C 
ATOM      2  C   UNL     1      -1.910  12.253  19.311  0.00  0.00    +0.000 C 
ATOM      3  C   UNL     1      -1.411  10.982  19.979  0.00  0.00    +0.000 C 
ATOM      4  N   UNL     1      -0.138  11.329  20.549  0.00  0.00    +0.000 N 
ATOM      5  C   UNL     1       0.066  12.699  20.625  0.00  0.00    +0.000 C 
ATOM      6  O   UNL     1       1.019  13.259  21.149  0.00  0.00    +0.000 OA
ENDROOT
BRANCH   1   9
ATOM      7  O   UNL     1      -0.628  16.105  20.827  0.00  0.00    +0.000 OA
ATOM      8  C   UNL     1      -0.510  15.785  19.651  0.00  0.00    +0.000 C 
ATOM      9  N   UNL     1      -0.768  14.523  19.168  0.00  0.00    +0.000 N 
ATOM     10  H   UNL     1      -0.939  14.423  18.177  0.00  0.00    +0.000 HD
BRANCH   8  11
ATOM     11  C   UNL     1      -0.064  16.795  18.653  0.00  0.00    +0.000 A 
ATOM     12  C   UNL     1      -0.962  17.663  18.018  0.00  0.00    +0.000 A 
ATOM     13  C   UNL     1      -0.504  18.542  17.033  0.00  0.00    +0.000 A 
ATOM     14  C   UNL     1       0.845  18.555  16.680  0.00  0.00    +0.000 A 
ATOM     15  C   UNL     1       1.743  17.695  17.310  0.00  0.00    +0.000 A 
ATOM     16  C   UNL     1       1.290  16.814  18.291  0.00  0.00    +0.000 A 
ENDBRANCH   8  11
ENDBRANCH   1   9
BRANCH   1  17
ATOM     17  C   UNL     1      -1.994  13.937  21.250  0.00  0.00    +0.000 C 
BRANCH  17  18
ATOM     18  C   UNL     1      -3.515  13.842  21.228  0.00  0.00    +0.000 A 
ATOM     19  C   UNL     1      -4.247  12.790  21.796  0.00  0.00    +0.000 A 
ATOM     20  C   UNL     1      -5.645  12.792  21.776  0.00  0.00    +0.000 A 
ATOM     21  C   UNL     1      -6.335  13.844  21.183  0.00  0.00    +0.000 A 
ATOM     22  C   UNL     1      -5.628  14.886  20.592  0.00  0.00    +0.000 A 
ATOM     23  C   UNL     1      -4.231  14.883  20.610  0.00  0.00    +0.000 A 
ENDBRANCH  17  18
ENDBRANCH   1  17
BRANCH   4  24
ATOM     24  C   UNL     1       0.703  10.345  21.202  0.00  0.00    +0.000 C 
BRANCH  24  25
ATOM     25  C   UNL     1       1.192   9.229  20.310  0.00  0.00    +0.000 A 
ATOM     26  C   UNL     1       1.513   9.465  18.971  0.00  0.00    +0.000 A 
ATOM     27  C   UNL     1       2.132   8.472  18.196  0.00  0.00    +0.000 A 
ATOM     28  C   UNL     1       2.467   7.213  18.729  0.00  0.00    +0.000 A 
ATOM     29  C   UNL     1       2.093   6.976  20.063  0.00  0.00    +0.000 A 
ATOM     30  C   UNL     1       1.460   7.960  20.839  0.00  0.00    +0.000 A 
BRANCH  28  31
ATOM     31  C   UNL     1       3.208   6.201  17.930  0.00  0.00    +0.000 A 
ATOM     32  C   UNL     1       4.349   6.549  17.180  0.00  0.00    +0.000 A 
ATOM     33  C   UNL     1       5.051   5.605  16.422  0.00  0.00    +0.000 A 
ATOM     34  C   UNL     1       4.639   4.277  16.407  0.00  0.00    +0.000 A 
ATOM     35  C   UNL     1       3.527   3.896  17.152  0.00  0.00    +0.000 A 
ATOM     36  C   UNL     1       2.820   4.848  17.899  0.00  0.00    +0.000 A 
ENDBRANCH  28  31
ENDBRANCH  24  25
ENDBRANCH   4  24
TORSDOF 7
ENDMDL
MODEL 7
REMARK VINA RESULT:      -8.8      7.485     12.041
REMARK  Name = 
REMARK  7 active torsions:
REMARK  status: ('A' for Active; 'I' for Inactive)
REMARK    1  A    between atoms: C_2  and  C_30
REMARK    2  A    between atoms: N_3  and  C_4
REMARK    3  A    between atoms: C_4  and  C_5
REMARK    4  A    between atoms: C_5  and  C_6
REMARK    5  A    between atoms: N_14  and  C_15
REMARK    6  A    between atoms: C_15  and  C_16
REMARK    7  A    between atoms: C_19  and  C_20
REMARK                            x       y       z     vdW  Elec       q    Type
REMARK                         _______ _______ _______ _____ _____    ______ ____
ROOT
ATOM      1  C   UNL     1      -0.770  12.858  20.077  0.00  0.00    +0.000 C 
ATOM      2  C   UNL     1      -1.647  11.791  19.387  0.00  0.00    +0.000 C 
ATOM      3  C   UNL     1      -1.219  10.467  19.999  0.00  0.00    +0.000 C 
ATOM      4  N   UNL     1       0.114  10.689  20.487  0.00  0.00    +0.000 N 
ATOM      5  C   UNL     1       0.442  12.035  20.572  0.00  0.00    +0.000 C 
ATOM      6  O   UNL     1       1.473  12.498  21.039  0.00  0.00    +0.000 OA
ENDROOT
BRANCH   1   9
ATOM      7  O   UNL     1      -0.120  15.541  20.855  0.00  0.00    +0.000 OA
ATOM      8  C   UNL     1      -0.017  15.210  19.681  0.00  0.00    +0.000 C 
ATOM      9  N   UNL     1      -0.323  13.956  19.206  0.00  0.00    +0.000 N 
ATOM     10  H   UNL     1      -0.500  13.858  18.215  0.00  0.00    +0.000 HD
BRANCH   8  11
ATOM     11  C   UNL     1       0.463  16.199  18.676  0.00  0.00    +0.000 A 
ATOM     12  C   UNL     1       1.816  16.313  18.332  0.00  0.00    +0.000 A 
ATOM     13  C   UNL     1       2.226  17.307  17.440  0.00  0.00    +0.000 A 
ATOM     14  C   UNL     1       1.291  18.187  16.895  0.00  0.00    +0.000 A 
ATOM     15  C   UNL     1      -0.056  18.076  17.234  0.00  0.00    +0.000 A 
ATOM     16  C   UNL     1      -0.470  17.087  18.125  0.00  0.00    +0.000 A 
ENDBRANCH   8  11
ENDBRANCH   1   9
BRANCH   1  17
ATOM     17  C   UNL     1      -1.456  13.432  21.355  0.00  0.00    +0.000 C 
BRANCH  17  18
ATOM     18  C   UNL     1      -2.975  13.548  21.401  0.00  0.00    +0.000 A 
ATOM     19  C   UNL     1      -3.816  12.639  22.057  0.00  0.00    +0.000 A 
ATOM     20  C   UNL     1      -5.200  12.834  22.094  0.00  0.00    +0.000 A 
ATOM     21  C   UNL     1      -5.767  13.939  21.469  0.00  0.00    +0.000 A 
ATOM     22  C   UNL     1      -4.954  14.841  20.791  0.00  0.00    +0.000 A 
ATOM     23  C   UNL     1      -3.570  14.645  20.752  0.00  0.00    +0.000 A 
ENDBRANCH  17  18
ENDBRANCH   1  17
BRANCH   4  24
ATOM     24  C   UNL     1       0.907   9.622  21.064  0.00  0.00    +0.000 C 
BRANCH  24  25
ATOM     25  C   UNL     1       1.497   8.652  20.069  0.00  0.00    +0.000 A 
ATOM     26  C   UNL     1       1.793   9.051  18.763  0.00  0.00    +0.000 A 
ATOM     27  C   UNL     1       2.501   8.204  17.897  0.00  0.00    +0.000 A 
ATOM     28  C   UNL     1       2.953   6.934  18.303  0.00  0.00    +0.000 A 
ATOM     29  C   UNL     1       2.603   6.529  19.603  0.00  0.00    +0.000 A 
ATOM     30  C   UNL     1       1.883   7.366  20.469  0.00  0.00    +0.000 A 
BRANCH  28  31
ATOM     31  C   UNL     1       3.784   6.081  17.412  0.00  0.00    +0.000 A 
ATOM     32  C   UNL     1       3.694   4.675  17.448  0.00  0.00    +0.000 A 
ATOM     33  C   UNL     1       4.475   3.864  16.616  0.00  0.00    +0.000 A 
ATOM     34  C   UNL     1       5.358   4.440  15.711  0.00  0.00    +0.000 A 
ATOM     35  C   UNL     1       5.459   5.826  15.638  0.00  0.00    +0.000 A 
ATOM     36  C   UNL     1       4.684   6.634  16.481  0.00  0.00    +0.000 A 
ENDBRANCH  28  31
ENDBRANCH  24  25
ENDBRANCH   4  24
TORSDOF 7
ENDMDL
MODEL 8
REMARK VINA RESULT:      -8.8      0.509      1.277
REMARK  Name = 
REMARK  7 active torsions:
REMARK  status: ('A' for Active; 'I' for Inactive)
REMARK    1  A    between atoms: C_2  and  C_30
REMARK    2  A    between atoms: N_3  and  C_4
REMARK    3  A    between atoms: C_4  and  C_5
REMARK    4  A    between atoms: C_5  and  C_6
REMARK    5  A    between atoms: N_14  and  C_15
REMARK    6  A    between atoms: C_15  and  C_16
REMARK    7  A    between atoms: C_19  and  C_20
REMARK                            x       y       z     vdW  Elec       q    Type
REMARK                         _______ _______ _______ _____ _____    ______ ____
ROOT
ATOM      1  C   UNL     1       6.317   5.502  17.497  0.00  0.00    +0.000 C 
ATOM      2  C   UNL     1       6.008   6.815  16.744  0.00  0.00    +0.000 C 
ATOM      3  C   UNL     1       7.145   7.757  17.102  0.00  0.00    +0.000 C 
ATOM      4  N   UNL     1       7.666   7.266  18.347  0.00  0.00    +0.000 N 
ATOM      5  C   UNL     1       7.247   5.975  18.638  0.00  0.00    +0.000 C 
ATOM      6  O   UNL     1       7.615   5.293  19.584  0.00  0.00    +0.000 OA
ENDROOT
BRANCH   1   9
ATOM      7  O   UNL     1       3.807   6.662  18.258  0.00  0.00    +0.000 OA
ATOM      8  C   UNL     1       3.972   5.453  18.365  0.00  0.00    +0.000 C 
ATOM      9  N   UNL     1       5.143   4.806  18.046  0.00  0.00    +0.000 N 
ATOM     10  H   UNL     1       5.296   3.888  18.438  0.00  0.00    +0.000 HD
BRANCH   8  11
ATOM     11  C   UNL     1       2.861   4.600  18.869  0.00  0.00    +0.000 A 
ATOM     12  C   UNL     1       2.060   3.836  18.010  0.00  0.00    +0.000 A 
ATOM     13  C   UNL     1       0.982   3.111  18.525  0.00  0.00    +0.000 A 
ATOM     14  C   UNL     1       0.702   3.148  19.891  0.00  0.00    +0.000 A 
ATOM     15  C   UNL     1       1.497   3.906  20.749  0.00  0.00    +0.000 A 
ATOM     16  C   UNL     1       2.572   4.633  20.240  0.00  0.00    +0.000 A 
ENDBRANCH   8  11
ENDBRANCH   1   9
BRANCH   1  17
ATOM     17  C   UNL     1       7.163   4.523  16.625  0.00  0.00    +0.000 C 
BRANCH  17  18
ATOM     18  C   UNL     1       6.859   4.392  15.138  0.00  0.00    +0.000 A 
ATOM     19  C   UNL     1       5.752   3.708  14.617  0.00  0.00    +0.000 A 
ATOM     20  C   UNL     1       5.513   3.666  13.240  0.00  0.00    +0.000 A 
ATOM     21  C   UNL     1       6.382   4.302  12.359  0.00  0.00    +0.000 A 
ATOM     22  C   UNL     1       7.501   4.965  12.853  0.00  0.00    +0.000 A 
ATOM     23  C   UNL     1       7.741   5.005  14.230  0.00  0.00    +0.000 A 
ENDBRANCH  17  18
ENDBRANCH   1  17
BRANCH   4  24
ATOM     24  C   UNL     1       8.716   7.960  19.066  0.00  0.00    +0.000 C 
BRANCH  24  25
ATOM     25  C   UNL     1       8.872   9.421  18.719  0.00  0.00    +0.000 A 
ATOM     26  C   UNL     1       8.084  10.014  17.729  0.00  0.00    +0.000 A 
ATOM     27  C   UNL     1       8.106  11.403  17.532  0.00  0.00    +0.000 A 
ATOM     28  C   UNL     1       8.903  12.255  18.321  0.00  0.00    +0.000 A 
ATOM     29  C   UNL     1       9.726  11.636  19.277  0.00  0.00    +0.000 A 
ATOM     30  C   UNL     1       9.719  10.246  19.470  0.00  0.00    +0.000 A 
BRANCH  28  31
ATOM     31  C   UNL     1       8.849  13.733  18.170  0.00  0.00    +0.000 A 
ATOM     32  C   UNL     1      10.024  14.501  18.039  0.00  0.00    +0.000 A 
ATOM     33  C   UNL     1       9.984  15.893  17.900  0.00  0.00    +0.000 A 
ATOM     34  C   UNL     1       8.763  16.556  17.871  0.00  0.00    +0.000 A 
ATOM     35  C   UNL     1       7.583  15.825  17.980  0.00  0.00    +0.000 A 
ATOM     36  C   UNL     1       7.628  14.433  18.131  0.00  0.00    +0.000 A 
ENDBRANCH  28  31
ENDBRANCH  24  25
ENDBRANCH   4  24
TORSDOF 7
ENDMDL
MODEL 9
REMARK VINA RESULT:      -8.7      6.677     11.352
REMARK  Name = 
REMARK  7 active torsions:
REMARK  status: ('A' for Active; 'I' for Inactive)
REMARK    1  A    between atoms: C_2  and  C_30
REMARK    2  A    between atoms: N_3  and  C_4
REMARK    3  A    between atoms: C_4  and  C_5
REMARK    4  A    between atoms: C_5  and  C_6
REMARK    5  A    between atoms: N_14  and  C_15
REMARK    6  A    between atoms: C_15  and  C_16
REMARK    7  A    between atoms: C_19  and  C_20
REMARK                            x       y       z     vdW  Elec       q    Type
REMARK                         _______ _______ _______ _____ _____    ______ ____
ROOT
ATOM      1  C   UNL     1      -0.528  11.965  20.045  0.00  0.00    +0.000 C 
ATOM      2  C   UNL     1      -1.042  11.116  18.862  0.00  0.00    +0.000 C 
ATOM      3  C   UNL     1      -0.740   9.676  19.245  0.00  0.00    +0.000 C 
ATOM      4  N   UNL     1       0.334   9.754  20.196  0.00  0.00    +0.000 N 
ATOM      5  C   UNL     1       0.510  11.032  20.709  0.00  0.00    +0.000 C 
ATOM      6  O   UNL     1       1.289  11.351  21.597  0.00  0.00    +0.000 OA
ENDROOT
BRANCH   1   9
ATOM      7  O   UNL     1       1.783  12.352  18.392  0.00  0.00    +0.000 OA
ATOM      8  C   UNL     1       1.199  13.325  18.852  0.00  0.00    +0.000 C 
ATOM      9  N   UNL     1       0.097  13.244  19.670  0.00  0.00    +0.000 N 
ATOM     10  H   UNL     1      -0.130  14.049  20.237  0.00  0.00    +0.000 HD
BRANCH   8  11
ATOM     11  C   UNL     1       1.685  14.695  18.532  0.00  0.00    +0.000 A 
ATOM     12  C   UNL     1       0.887  15.831  18.720  0.00  0.00    +0.000 A 
ATOM     13  C   UNL     1       1.361  17.087  18.333  0.00  0.00    +0.000 A 
ATOM     14  C   UNL     1       2.626  17.211  17.757  0.00  0.00    +0.000 A 
ATOM     15  C   UNL     1       3.423  16.084  17.569  0.00  0.00    +0.000 A 
ATOM     16  C   UNL     1       2.954  14.828  17.952  0.00  0.00    +0.000 A 
ENDBRANCH   8  11
ENDBRANCH   1   9
BRANCH   1  17
ATOM     17  C   UNL     1      -1.641  12.204  21.112  0.00  0.00    +0.000 C 
BRANCH  17  18
ATOM     18  C   UNL     1      -1.716  13.547  21.827  0.00  0.00    +0.000 A 
ATOM     19  C   UNL     1      -2.390  14.671  21.328  0.00  0.00    +0.000 A 
ATOM     20  C   UNL     1      -2.454  15.859  22.062  0.00  0.00    +0.000 A 
ATOM     21  C   UNL     1      -1.838  15.947  23.306  0.00  0.00    +0.000 A 
ATOM     22  C   UNL     1      -1.142  14.852  23.809  0.00  0.00    +0.000 A 
ATOM     23  C   UNL     1      -1.077  13.665  23.075  0.00  0.00    +0.000 A 
ENDBRANCH  17  18
ENDBRANCH   1  17
BRANCH   4  24
ATOM     24  C   UNL     1       0.969   8.568  20.734  0.00  0.00    +0.000 C 
BRANCH  24  25
ATOM     25  C   UNL     1       1.805   7.787  19.748  0.00  0.00    +0.000 A 
ATOM     26  C   UNL     1       2.290   8.385  18.582  0.00  0.00    +0.000 A 
ATOM     27  C   UNL     1       3.208   7.713  17.760  0.00  0.00    +0.000 A 
ATOM     28  C   UNL     1       3.688   6.428  18.075  0.00  0.00    +0.000 A 
ATOM     29  C   UNL     1       3.151   5.822  19.225  0.00  0.00    +0.000 A 
ATOM     30  C   UNL     1       2.222   6.483  20.043  0.00  0.00    +0.000 A 
BRANCH  28  31
ATOM     31  C   UNL     1       4.731   5.762  17.251  0.00  0.00    +0.000 A 
ATOM     32  C   UNL     1       5.990   6.359  17.038  0.00  0.00    +0.000 A 
ATOM     33  C   UNL     1       6.977   5.742  16.261  0.00  0.00    +0.000 A 
ATOM     34  C   UNL     1       6.737   4.498  15.688  0.00  0.00    +0.000 A 
ATOM     35  C   UNL     1       5.511   3.873  15.894  0.00  0.00    +0.000 A 
ATOM     36  C   UNL     1       4.521   4.500  16.662  0.00  0.00    +0.000 A 
ENDBRANCH  28  31
ENDBRANCH  24  25
ENDBRANCH   4  24
TORSDOF 7
ENDMDL
