MODEL 1
REMARK VINA RESULT:      -6.3      0.000      0.000
REMARK  Name = 
REMARK  10 active torsions:
REMARK  status: ('A' for Active; 'I' for Inactive)
REMARK    1  A    between atoms: C_1  and  C_2
REMARK    2  A    between atoms: C_2  and  N_3
REMARK    3  A    between atoms: C_4  and  O_6
REMARK    4  A    between atoms: O_6  and  C_7
REMARK    5  A    between atoms: C_7  and  C_8
REMARK    6  A    between atoms: C_7  and  C_9
REMARK    7  A    between atoms: C_9  and  O_10
REMARK    8  A    between atoms: O_10  and  C_11
REMARK    9  A    between atoms: C_14  and  O_15
REMARK   10  A    between atoms: O_15  and  C_16
REMARK                            x       y       z     vdW  Elec       q    Type
REMARK                         _______ _______ _______ _____ _____    ______ ____
ROOT
ATOM      1  C   UNL     1       7.348   5.069  16.925  0.00  0.00    +0.000 C 
ENDROOT
BRANCH   1   2
ATOM      2  C   UNL     1       6.846   6.078  17.967  0.00  0.00    +0.000 C 
ATOM      3  C   UNL     1       7.950   7.083  18.311  0.00  0.00    +0.000 C 
BRANCH   2   4
ATOM      4  O   UNL     1       6.442   5.343  19.147  0.00  0.00    +0.000 OA
BRANCH   4   6
ATOM      5  N   UNL     1       5.283   3.442  19.299  0.00  0.00    +0.000 N 
ATOM      6  C   UNL     1       5.206   4.787  19.081  0.00  0.00    +0.000 C 
ATOM      7  O   UNL     1       4.167   5.404  18.890  0.00  0.00    +0.000 OA
ATOM      8  H   UNL     1       6.203   3.055  19.457  0.00  0.00    +0.000 HD
BRANCH   5  10
ATOM      9  C   UNL     1       3.578   1.970  18.351  0.00  0.00    +0.000 C 
ATOM     10  C   UNL     1       4.105   2.657  19.600  0.00  0.00    +0.000 C 
ENDBRANCH   5  10
ENDBRANCH   4   6
ENDBRANCH   2   4
ENDBRANCH   1   2
BRANCH   1  11
ATOM     11  O   UNL     1       7.493   5.709  15.655  0.00  0.00    +0.000 OA
BRANCH  11  12
ATOM     12  C   UNL     1       7.039   5.005  14.573  0.00  0.00    +0.000 A 
ATOM     13  C   UNL     1       5.847   4.303  14.762  0.00  0.00    +0.000 A 
ATOM     14  C   UNL     1       5.301   3.547  13.720  0.00  0.00    +0.000 A 
ATOM     15  C   UNL     1       5.916   3.520  12.470  0.00  0.00    +0.000 A 
ATOM     16  C   UNL     1       7.099   4.230  12.276  0.00  0.00    +0.000 A 
ATOM     17  C   UNL     1       7.658   4.972  13.324  0.00  0.00    +0.000 A 
BRANCH  15  18
ATOM     18  O   UNL     1       5.305   2.743  11.525  0.00  0.00    +0.000 OA
ATOM     19  C   UNL     1       3.980   3.130  11.176  0.00  0.00    +0.000 C 
ENDBRANCH  15  18
ENDBRANCH  11  12
ENDBRANCH   1  11
TORSDOF 7
ENDMDL
MODEL 2
REMARK VINA RESULT:      -6.3      2.495      6.470
REMARK  Name = 
REMARK  10 active torsions:
REMARK  status: ('A' for Active; 'I' for Inactive)
REMARK    1  A    between atoms: C_1  and  C_2
REMARK    2  A    between atoms: C_2  and  N_3
REMARK    3  A    between atoms: C_4  and  O_6
REMARK    4  A    between atoms: O_6  and  C_7
REMARK    5  A    between atoms: C_7  and  C_8
REMARK    6  A    between atoms: C_7  and  C_9
REMARK    7  A    between atoms: C_9  and  O_10
REMARK    8  A    between atoms: O_10  and  C_11
REMARK    9  A    between atoms: C_14  and  O_15
REMARK   10  A    between atoms: O_15  and  C_16
REMARK                            x       y       z     vdW  Elec       q    Type
REMARK                         _______ _______ _______ _____ _____    ______ ____
ROOT
ATOM      1  C   UNL     1       5.171   5.581  16.142  0.00  0.00    +0.000 C 
ENDROOT
BRANCH   1   2
ATOM      2  C   UNL     1       6.389   4.705  15.819  0.00  0.00    +0.000 C 
ATOM      3  C   UNL     1       7.159   4.368  17.100  0.00  0.00    +0.000 C 
BRANCH   2   4
ATOM      4  O   UNL     1       7.234   5.432  14.896  0.00  0.00    +0.000 OA
BRANCH   4   6
ATOM      5  N   UNL     1       6.540   3.778  13.566  0.00  0.00    +0.000 N 
ATOM      6  C   UNL     1       7.327   4.889  13.655  0.00  0.00    +0.000 C 
ATOM      7  O   UNL     1       7.992   5.347  12.736  0.00  0.00    +0.000 OA
ATOM      8  H   UNL     1       6.030   3.510  14.397  0.00  0.00    +0.000 HD
BRANCH   5  10
ATOM      9  C   UNL     1       4.713   3.327  12.007  0.00  0.00    +0.000 C 
ATOM     10  C   UNL     1       6.201   3.193  12.288  0.00  0.00    +0.000 C 
ENDBRANCH   5  10
ENDBRANCH   4   6
ENDBRANCH   2   4
ENDBRANCH   1   2
BRANCH   1  11
ATOM     11  O   UNL     1       5.068   5.772  17.556  0.00  0.00    +0.000 OA
BRANCH  11  12
ATOM     12  C   UNL     1       4.019   5.143  18.170  0.00  0.00    +0.000 A 
ATOM     13  C   UNL     1       3.969   5.263  19.559  0.00  0.00    +0.000 A 
ATOM     14  C   UNL     1       2.939   4.653  20.283  0.00  0.00    +0.000 A 
ATOM     15  C   UNL     1       1.930   3.955  19.623  0.00  0.00    +0.000 A 
ATOM     16  C   UNL     1       1.972   3.845  18.234  0.00  0.00    +0.000 A 
ATOM     17  C   UNL     1       3.012   4.439  17.510  0.00  0.00    +0.000 A 
BRANCH  15  18
ATOM     18  O   UNL     1       0.978   3.390  20.425  0.00  0.00    +0.000 OA
ATOM     19  C   UNL     1       1.468   2.716  21.579  0.00  0.00    +0.000 C 
ENDBRANCH  15  18
ENDBRANCH  11  12
ENDBRANCH   1  11
TORSDOF 7
ENDMDL
MODEL 3
REMARK VINA RESULT:      -6.2      2.491      6.139
REMARK  Name = 
REMARK  10 active torsions:
REMARK  status: ('A' for Active; 'I' for Inactive)
REMARK    1  A    between atoms: C_1  and  C_2
REMARK    2  A    between atoms: C_2  and  N_3
REMARK    3  A    between atoms: C_4  and  O_6
REMARK    4  A    between atoms: O_6  and  C_7
REMARK    5  A    between atoms: C_7  and  C_8
REMARK    6  A    between atoms: C_7  and  C_9
REMARK    7  A    between atoms: C_9  and  O_10
REMARK    8  A    between atoms: O_10  and  C_11
REMARK    9  A    between atoms: C_14  and  O_15
REMARK   10  A    between atoms: O_15  and  C_16
REMARK                            x       y       z     vdW  Elec       q    Type
REMARK                         _______ _______ _______ _____ _____    ______ ____
ROOT
ATOM      1  C   UNL     1       5.172   6.377  16.483  0.00  0.00    +0.000 C 
ENDROOT
BRANCH   1   2
ATOM      2  C   UNL     1       6.618   5.917  16.710  0.00  0.00    +0.000 C 
ATOM      3  C   UNL     1       7.431   7.026  17.385  0.00  0.00    +0.000 C 
BRANCH   2   4
ATOM      4  O   UNL     1       7.189   5.578  15.424  0.00  0.00    +0.000 OA
BRANCH   4   6
ATOM      5  N   UNL     1       6.649   4.631  13.477  0.00  0.00    +0.000 N 
ATOM      6  C   UNL     1       6.659   4.477  14.833  0.00  0.00    +0.000 C 
ATOM      7  O   UNL     1       6.279   3.477  15.424  0.00  0.00    +0.000 OA
ATOM      8  H   UNL     1       7.004   5.504  13.111  0.00  0.00    +0.000 HD
BRANCH   5  10
ATOM      9  C   UNL     1       5.010   3.481  12.075  0.00  0.00    +0.000 C 
ATOM     10  C   UNL     1       6.440   3.506  12.591  0.00  0.00    +0.000 C 
ENDBRANCH   5  10
ENDBRANCH   4   6
ENDBRANCH   2   4
ENDBRANCH   1   2
BRANCH   1  11
ATOM     11  O   UNL     1       4.545   6.654  17.738  0.00  0.00    +0.000 OA
BRANCH  11  12
ATOM     12  C   UNL     1       3.749   5.662  18.242  0.00  0.00    +0.000 A 
ATOM     13  C   UNL     1       4.291   4.923  19.294  0.00  0.00    +0.000 A 
ATOM     14  C   UNL     1       3.560   3.883  19.877  0.00  0.00    +0.000 A 
ATOM     15  C   UNL     1       2.266   3.600  19.443  0.00  0.00    +0.000 A 
ATOM     16  C   UNL     1       1.718   4.345  18.400  0.00  0.00    +0.000 A 
ATOM     17  C   UNL     1       2.456   5.374  17.804  0.00  0.00    +0.000 A 
BRANCH  15  18
ATOM     18  O   UNL     1       1.644   2.558  20.072  0.00  0.00    +0.000 OA
ATOM     19  C   UNL     1       1.495   2.694  21.481  0.00  0.00    +0.000 C 
ENDBRANCH  15  18
ENDBRANCH  11  12
ENDBRANCH   1  11
TORSDOF 7
ENDMDL
MODEL 4
REMARK VINA RESULT:      -6.1      2.280      6.234
REMARK  Name = 
REMARK  10 active torsions:
REMARK  status: ('A' for Active; 'I' for Inactive)
REMARK    1  A    between atoms: C_1  and  C_2
REMARK    2  A    between atoms: C_2  and  N_3
REMARK    3  A    between atoms: C_4  and  O_6
REMARK    4  A    between atoms: O_6  and  C_7
REMARK    5  A    between atoms: C_7  and  C_8
REMARK    6  A    between atoms: C_7  and  C_9
REMARK    7  A    between atoms: C_9  and  O_10
REMARK    8  A    between atoms: O_10  and  C_11
REMARK    9  A    between atoms: C_14  and  O_15
REMARK   10  A    between atoms: O_15  and  C_16
REMARK                            x       y       z     vdW  Elec       q    Type
REMARK                         _______ _______ _______ _____ _____    ______ ____
ROOT
ATOM      1  C   UNL     1       5.175   3.978  15.784  0.00  0.00    +0.000 C 
ENDROOT
BRANCH   1   2
ATOM      2  C   UNL     1       6.454   4.632  15.244  0.00  0.00    +0.000 C 
ATOM      3  C   UNL     1       6.702   4.202  13.795  0.00  0.00    +0.000 C 
BRANCH   2   4
ATOM      4  O   UNL     1       7.557   4.230  16.090  0.00  0.00    +0.000 OA
BRANCH   4   6
ATOM      5  N   UNL     1       7.786   6.218  17.078  0.00  0.00    +0.000 N 
ATOM      6  C   UNL     1       7.634   4.878  17.281  0.00  0.00    +0.000 C 
ATOM      7  O   UNL     1       7.544   4.344  18.377  0.00  0.00    +0.000 OA
ATOM      8  H   UNL     1       7.835   6.535  16.119  0.00  0.00    +0.000 HD
BRANCH   5  10
ATOM      9  C   UNL     1       7.860   8.588  17.671  0.00  0.00    +0.000 C 
ATOM     10  C   UNL     1       7.577   7.172  18.146  0.00  0.00    +0.000 C 
ENDBRANCH   5  10
ENDBRANCH   4   6
ENDBRANCH   2   4
ENDBRANCH   1   2
BRANCH   1  11
ATOM     11  O   UNL     1       4.378   4.951  16.463  0.00  0.00    +0.000 OA
BRANCH  11  12
ATOM     12  C   UNL     1       3.857   4.565  17.668  0.00  0.00    +0.000 A 
ATOM     13  C   UNL     1       3.773   5.561  18.641  0.00  0.00    +0.000 A 
ATOM     14  C   UNL     1       3.260   5.268  19.909  0.00  0.00    +0.000 A 
ATOM     15  C   UNL     1       2.788   3.990  20.201  0.00  0.00    +0.000 A 
ATOM     16  C   UNL     1       2.859   2.996  19.226  0.00  0.00    +0.000 A 
ATOM     17  C   UNL     1       3.390   3.284  17.963  0.00  0.00    +0.000 A 
BRANCH  15  18
ATOM     18  O   UNL     1       2.316   3.808  21.471  0.00  0.00    +0.000 OA
ATOM     19  C   UNL     1       1.472   2.677  21.657  0.00  0.00    +0.000 C 
ENDBRANCH  15  18
ENDBRANCH  11  12
ENDBRANCH   1  11
TORSDOF 7
ENDMDL
MODEL 5
REMARK VINA RESULT:      -6.1      2.495      6.438
REMARK  Name = 
REMARK  10 active torsions:
REMARK  status: ('A' for Active; 'I' for Inactive)
REMARK    1  A    between atoms: C_1  and  C_2
REMARK    2  A    between atoms: C_2  and  N_3
REMARK    3  A    between atoms: C_4  and  O_6
REMARK    4  A    between atoms: O_6  and  C_7
REMARK    5  A    between atoms: C_7  and  C_8
REMARK    6  A    between atoms: C_7  and  C_9
REMARK    7  A    between atoms: C_9  and  O_10
REMARK    8  A    between atoms: O_10  and  C_11
REMARK    9  A    between atoms: C_14  and  O_15
REMARK   10  A    between atoms: O_15  and  C_16
REMARK                            x       y       z     vdW  Elec       q    Type
REMARK                         _______ _______ _______ _____ _____    ______ ____
ROOT
ATOM      1  C   UNL     1       5.602   3.837  16.524  0.00  0.00    +0.000 C 
ENDROOT
BRANCH   1   2
ATOM      2  C   UNL     1       6.910   4.577  16.212  0.00  0.00    +0.000 C 
ATOM      3  C   UNL     1       7.374   5.379  17.432  0.00  0.00    +0.000 C 
BRANCH   2   4
ATOM      4  O   UNL     1       6.672   5.456  15.087  0.00  0.00    +0.000 OA
BRANCH   4   6
ATOM      5  N   UNL     1       6.349   3.831  13.592  0.00  0.00    +0.000 N 
ATOM      6  C   UNL     1       7.054   4.962  13.882  0.00  0.00    +0.000 C 
ATOM      7  O   UNL     1       7.884   5.475  13.144  0.00  0.00    +0.000 OA
ATOM      8  H   UNL     1       5.681   3.517  14.282  0.00  0.00    +0.000 HD
BRANCH   5  10
ATOM      9  C   UNL     1       4.896   3.210  11.727  0.00  0.00    +0.000 C 
ATOM     10  C   UNL     1       6.320   3.282  12.253  0.00  0.00    +0.000 C 
ENDBRANCH   5  10
ENDBRANCH   4   6
ENDBRANCH   2   4
ENDBRANCH   1   2
BRANCH   1  11
ATOM     11  O   UNL     1       4.508   4.758  16.525  0.00  0.00    +0.000 OA
BRANCH  11  12
ATOM     12  C   UNL     1       3.679   4.703  17.611  0.00  0.00    +0.000 A 
ATOM     13  C   UNL     1       3.371   3.423  18.076  0.00  0.00    +0.000 A 
ATOM     14  C   UNL     1       2.527   3.257  19.179  0.00  0.00    +0.000 A 
ATOM     15  C   UNL     1       2.017   4.366  19.851  0.00  0.00    +0.000 A 
ATOM     16  C   UNL     1       2.333   5.645  19.396  0.00  0.00    +0.000 A 
ATOM     17  C   UNL     1       3.163   5.812  18.281  0.00  0.00    +0.000 A 
BRANCH  15  18
ATOM     18  O   UNL     1       1.196   4.092  20.909  0.00  0.00    +0.000 OA
ATOM     19  C   UNL     1       1.337   2.795  21.476  0.00  0.00    +0.000 C 
ENDBRANCH  15  18
ENDBRANCH  11  12
ENDBRANCH   1  11
TORSDOF 7
ENDMDL
MODEL 6
REMARK VINA RESULT:      -6.1      2.564      6.413
REMARK  Name = 
REMARK  10 active torsions:
REMARK  status: ('A' for Active; 'I' for Inactive)
REMARK    1  A    between atoms: C_1  and  C_2
REMARK    2  A    between atoms: C_2  and  N_3
REMARK    3  A    between atoms: C_4  and  O_6
REMARK    4  A    between atoms: O_6  and  C_7
REMARK    5  A    between atoms: C_7  and  C_8
REMARK    6  A    between atoms: C_7  and  C_9
REMARK    7  A    between atoms: C_9  and  O_10
REMARK    8  A    between atoms: O_10  and  C_11
REMARK    9  A    between atoms: C_14  and  O_15
REMARK   10  A    between atoms: O_15  and  C_16
REMARK                            x       y       z     vdW  Elec       q    Type
REMARK                         _______ _______ _______ _____ _____    ______ ____
ROOT
ATOM      1  C   UNL     1       4.919   6.846  17.490  0.00  0.00    +0.000 C 
ENDROOT
BRANCH   1   2
ATOM      2  C   UNL     1       6.088   6.109  16.823  0.00  0.00    +0.000 C 
ATOM      3  C   UNL     1       7.423   6.706  17.277  0.00  0.00    +0.000 C 
BRANCH   2   4
ATOM      4  O   UNL     1       5.938   6.232  15.388  0.00  0.00    +0.000 OA
BRANCH   4   6
ATOM      5  N   UNL     1       5.751   4.367  14.176  0.00  0.00    +0.000 N 
ATOM      6  C   UNL     1       6.613   5.308  14.659  0.00  0.00    +0.000 C 
ATOM      7  O   UNL     1       7.815   5.331  14.435  0.00  0.00    +0.000 OA
ATOM      8  H   UNL     1       4.776   4.468  14.425  0.00  0.00    +0.000 HD
BRANCH   5  10
ATOM      9  C   UNL     1       5.063   3.383  12.048  0.00  0.00    +0.000 C 
ATOM     10  C   UNL     1       6.138   3.458  13.120  0.00  0.00    +0.000 C 
ENDBRANCH   5  10
ENDBRANCH   4   6
ENDBRANCH   2   4
ENDBRANCH   1   2
BRANCH   1  11
ATOM     11  O   UNL     1       3.679   6.253  17.093  0.00  0.00    +0.000 OA
BRANCH  11  12
ATOM     12  C   UNL     1       3.041   5.504  18.044  0.00  0.00    +0.000 A 
ATOM     13  C   UNL     1       2.191   4.508  17.563  0.00  0.00    +0.000 A 
ATOM     14  C   UNL     1       1.488   3.690  18.454  0.00  0.00    +0.000 A 
ATOM     15  C   UNL     1       1.660   3.833  19.829  0.00  0.00    +0.000 A 
ATOM     16  C   UNL     1       2.518   4.820  20.311  0.00  0.00    +0.000 A 
ATOM     17  C   UNL     1       3.208   5.651  19.421  0.00  0.00    +0.000 A 
BRANCH  15  18
ATOM     18  O   UNL     1       0.919   2.990  20.610  0.00  0.00    +0.000 OA
ATOM     19  C   UNL     1       1.573   2.495  21.773  0.00  0.00    +0.000 C 
ENDBRANCH  15  18
ENDBRANCH  11  12
ENDBRANCH   1  11
TORSDOF 7
ENDMDL
MODEL 7
REMARK VINA RESULT:      -6.1      2.306      6.331
REMARK  Name = 
REMARK  10 active torsions:
REMARK  status: ('A' for Active; 'I' for Inactive)
REMARK    1  A    between atoms: C_1  and  C_2
REMARK    2  A    between atoms: C_2  and  N_3
REMARK    3  A    between atoms: C_4  and  O_6
REMARK    4  A    between atoms: O_6  and  C_7
REMARK    5  A    between atoms: C_7  and  C_8
REMARK    6  A    between atoms: C_7  and  C_9
REMARK    7  A    between atoms: C_9  and  O_10
REMARK    8  A    between atoms: O_10  and  C_11
REMARK    9  A    between atoms: C_14  and  O_15
REMARK   10  A    between atoms: O_15  and  C_16
REMARK                            x       y       z     vdW  Elec       q    Type
REMARK                         _______ _______ _______ _____ _____    ______ ____
ROOT
ATOM      1  C   UNL     1       5.004   4.330  16.053  0.00  0.00    +0.000 C 
ENDROOT
BRANCH   1   2
ATOM      2  C   UNL     1       6.249   4.775  15.274  0.00  0.00    +0.000 C 
ATOM      3  C   UNL     1       6.346   4.021  13.944  0.00  0.00    +0.000 C 
BRANCH   2   4
ATOM      4  O   UNL     1       7.412   4.509  16.094  0.00  0.00    +0.000 OA
BRANCH   4   6
ATOM      5  N   UNL     1       7.286   6.632  16.770  0.00  0.00    +0.000 N 
ATOM      6  C   UNL     1       7.580   5.354  17.144  0.00  0.00    +0.000 C 
ATOM      7  O   UNL     1       7.912   5.016  18.271  0.00  0.00    +0.000 OA
ATOM      8  H   UNL     1       7.011   6.778  15.808  0.00  0.00    +0.000 HD
BRANCH   5  10
ATOM      9  C   UNL     1       8.386   8.331  18.140  0.00  0.00    +0.000 C 
ATOM     10  C   UNL     1       7.072   7.675  17.750  0.00  0.00    +0.000 C 
ENDBRANCH   5  10
ENDBRANCH   4   6
ENDBRANCH   2   4
ENDBRANCH   1   2
BRANCH   1  11
ATOM     11  O   UNL     1       4.426   5.449  16.730  0.00  0.00    +0.000 OA
BRANCH  11  12
ATOM     12  C   UNL     1       3.796   5.174  17.912  0.00  0.00    +0.000 A 
ATOM     13  C   UNL     1       4.071   3.925  18.471  0.00  0.00    +0.000 A 
ATOM     14  C   UNL     1       3.474   3.544  19.677  0.00  0.00    +0.000 A 
ATOM     15  C   UNL     1       2.630   4.422  20.355  0.00  0.00    +0.000 A 
ATOM     16  C   UNL     1       2.363   5.674  19.804  0.00  0.00    +0.000 A 
ATOM     17  C   UNL     1       2.946   6.049  18.588  0.00  0.00    +0.000 A 
BRANCH  15  18
ATOM     18  O   UNL     1       2.092   3.947  21.518  0.00  0.00    +0.000 OA
ATOM     19  C   UNL     1       1.443   2.684  21.424  0.00  0.00    +0.000 C 
ENDBRANCH  15  18
ENDBRANCH  11  12
ENDBRANCH   1  11
TORSDOF 7
ENDMDL
MODEL 8
REMARK VINA RESULT:      -6.1      2.036      5.911
REMARK  Name = 
REMARK  10 active torsions:
REMARK  status: ('A' for Active; 'I' for Inactive)
REMARK    1  A    between atoms: C_1  and  C_2
REMARK    2  A    between atoms: C_2  and  N_3
REMARK    3  A    between atoms: C_4  and  O_6
REMARK    4  A    between atoms: O_6  and  C_7
REMARK    5  A    between atoms: C_7  and  C_8
REMARK    6  A    between atoms: C_7  and  C_9
REMARK    7  A    between atoms: C_9  and  O_10
REMARK    8  A    between atoms: O_10  and  C_11
REMARK    9  A    between atoms: C_14  and  O_15
REMARK   10  A    between atoms: O_15  and  C_16
REMARK                            x       y       z     vdW  Elec       q    Type
REMARK                         _______ _______ _______ _____ _____    ______ ____
ROOT
ATOM      1  C   UNL     1       7.128   5.177  18.406  0.00  0.00    +0.000 C 
ENDROOT
BRANCH   1   2
ATOM      2  C   UNL     1       7.112   5.824  17.014  0.00  0.00    +0.000 C 
ATOM      3  C   UNL     1       6.451   7.204  17.075  0.00  0.00    +0.000 C 
BRANCH   2   4
ATOM      4  O   UNL     1       6.381   4.950  16.121  0.00  0.00    +0.000 OA
BRANCH   4   6
ATOM      5  N   UNL     1       6.312   3.783  14.219  0.00  0.00    +0.000 N 
ATOM      6  C   UNL     1       6.933   4.797  14.890  0.00  0.00    +0.000 C 
ATOM      7  O   UNL     1       7.831   5.489  14.432  0.00  0.00    +0.000 OA
ATOM      8  H   UNL     1       5.573   3.295  14.706  0.00  0.00    +0.000 HD
BRANCH   5  10
ATOM      9  C   UNL     1       5.156   3.238  12.137  0.00  0.00    +0.000 C 
ATOM     10  C   UNL     1       6.475   3.611  12.792  0.00  0.00    +0.000 C 
ENDBRANCH   5  10
ENDBRANCH   4   6
ENDBRANCH   2   4
ENDBRANCH   1   2
BRANCH   1  11
ATOM     11  O   UNL     1       6.074   5.717  19.207  0.00  0.00    +0.000 OA
BRANCH  11  12
ATOM     12  C   UNL     1       4.950   4.945  19.318  0.00  0.00    +0.000 A 
ATOM     13  C   UNL     1       5.154   3.565  19.279  0.00  0.00    +0.000 A 
ATOM     14  C   UNL     1       4.070   2.688  19.379  0.00  0.00    +0.000 A 
ATOM     15  C   UNL     1       2.779   3.180  19.562  0.00  0.00    +0.000 A 
ATOM     16  C   UNL     1       2.574   4.557  19.614  0.00  0.00    +0.000 A 
ATOM     17  C   UNL     1       3.657   5.437  19.494  0.00  0.00    +0.000 A 
BRANCH  15  18
ATOM     18  O   UNL     1       1.791   2.238  19.639  0.00  0.00    +0.000 OA
ATOM     19  C   UNL     1       0.606   2.529  18.905  0.00  0.00    +0.000 C 
ENDBRANCH  15  18
ENDBRANCH  11  12
ENDBRANCH   1  11
TORSDOF 7
ENDMDL
MODEL 9
REMARK VINA RESULT:      -6.0      1.279      1.656
REMARK  Name = 
REMARK  10 active torsions:
REMARK  status: ('A' for Active; 'I' for Inactive)
REMARK    1  A    between atoms: C_1  and  C_2
REMARK    2  A    between atoms: C_2  and  N_3
REMARK    3  A    between atoms: C_4  and  O_6
REMARK    4  A    between atoms: O_6  and  C_7
REMARK    5  A    between atoms: C_7  and  C_8
REMARK    6  A    between atoms: C_7  and  C_9
REMARK    7  A    between atoms: C_9  and  O_10
REMARK    8  A    between atoms: O_10  and  C_11
REMARK    9  A    between atoms: C_14  and  O_15
REMARK   10  A    between atoms: O_15  and  C_16
REMARK                            x       y       z     vdW  Elec       q    Type
REMARK                         _______ _______ _______ _____ _____    ______ ____
ROOT
ATOM      1  C   UNL     1       7.526   4.738  16.890  0.00  0.00    +0.000 C 
ENDROOT
BRANCH   1   2
ATOM      2  C   UNL     1       6.862   5.424  18.092  0.00  0.00    +0.000 C 
ATOM      3  C   UNL     1       7.895   6.228  18.885  0.00  0.00    +0.000 C 
BRANCH   2   4
ATOM      4  O   UNL     1       6.268   4.398  18.924  0.00  0.00    +0.000 OA
BRANCH   4   6
ATOM      5  N   UNL     1       4.348   5.414  19.436  0.00  0.00    +0.000 N 
ATOM      6  C   UNL     1       4.915   4.317  18.856  0.00  0.00    +0.000 C 
ATOM      7  O   UNL     1       4.292   3.410  18.323  0.00  0.00    +0.000 OA
ATOM      8  H   UNL     1       4.976   6.100  19.832  0.00  0.00    +0.000 HD
BRANCH   5  10
ATOM      9  C   UNL     1       2.814   7.019  18.414  0.00  0.00    +0.000 C 
ATOM     10  C   UNL     1       2.954   5.743  19.228  0.00  0.00    +0.000 C 
ENDBRANCH   5  10
ENDBRANCH   4   6
ENDBRANCH   2   4
ENDBRANCH   1   2
BRANCH   1  11
ATOM     11  O   UNL     1       7.351   5.535  15.716  0.00  0.00    +0.000 OA
BRANCH  11  12
ATOM     12  C   UNL     1       6.909   4.873  14.602  0.00  0.00    +0.000 A 
ATOM     13  C   UNL     1       5.694   4.201  14.738  0.00  0.00    +0.000 A 
ATOM     14  C   UNL     1       5.158   3.489  13.660  0.00  0.00    +0.000 A 
ATOM     15  C   UNL     1       5.808   3.478  12.427  0.00  0.00    +0.000 A 
ATOM     16  C   UNL     1       7.016   4.159  12.287  0.00  0.00    +0.000 A 
ATOM     17  C   UNL     1       7.563   4.856  13.371  0.00  0.00    +0.000 A 
BRANCH  15  18
ATOM     18  O   UNL     1       5.204   2.745  11.444  0.00  0.00    +0.000 OA
ATOM     19  C   UNL     1       3.884   3.151  11.099  0.00  0.00    +0.000 C 
ENDBRANCH  15  18
ENDBRANCH  11  12
ENDBRANCH   1  11
TORSDOF 7
ENDMDL
