MODEL 1
REMARK VINA RESULT:      -6.9      0.000      0.000
REMARK  Name = 
REMARK  4 active torsions:
REMARK  status: ('A' for Active; 'I' for Inactive)
REMARK    1  A    between atoms: C_1  and  N_2
REMARK    2  A    between atoms: N_5  and  C_6
REMARK    3  A    between atoms: C_6  and  C_7
REMARK    4  A    between atoms: C_14  and  C_15
REMARK                            x       y       z     vdW  Elec       q    Type
REMARK                         _______ _______ _______ _____ _____    ______ ____
ROOT
ATOM      1  C   UNL     1       7.600   4.569  17.562  0.00  0.00    +0.000 C 
ATOM      2  N   UNL     1       6.255   4.903  17.102  0.00  0.00    +0.000 NA
ATOM      3  C   UNL     1       5.998   6.347  17.246  0.00  0.00    +0.000 C 
ATOM      4  C   UNL     1       4.571   6.722  16.790  0.00  0.00    +0.000 C 
ATOM      5  N   UNL     1       3.481   5.969  17.452  0.00  0.00    +0.000 NA
ATOM      6  C   UNL     1       3.786   4.505  17.366  0.00  0.00    +0.000 C 
ATOM      7  C   UNL     1       5.219   4.129  17.828  0.00  0.00    +0.000 C 
ENDROOT
BRANCH   6   8
ATOM      8  C   UNL     1       2.709   3.708  18.087  0.00  0.00    +0.000 C 
ATOM      9  N   UNL     1       1.481   3.558  17.697  0.00  0.00    +0.000 NA
ATOM     10  C   UNL     1       0.924   2.588  18.648  0.00  0.00    +0.000 C 
ATOM     11  C   UNL     1       2.070   2.181  19.548  0.00  0.00    +0.000 C 
ATOM     12  O   UNL     1       3.145   3.026  19.177  0.00  0.00    +0.000 OA
ENDBRANCH   6   8
BRANCH   5  13
ATOM     13  C   UNL     1       3.256   6.432  18.835  0.00  0.00    +0.000 C 
BRANCH  13  14
ATOM     14  C   UNL     1       2.436   7.708  18.872  0.00  0.00    +0.000 A 
ATOM     15  C   UNL     1       2.522   8.584  17.767  0.00  0.00    +0.000 A 
ATOM     16  C   UNL     1       1.799   9.776  17.734  0.00  0.00    +0.000 A 
ATOM     17  C   UNL     1       0.968  10.107  18.796  0.00  0.00    +0.000 A 
ATOM     18  C   UNL     1       0.858   9.250  19.892  0.00  0.00    +0.000 A 
ATOM     19  C   UNL     1       1.586   8.053  19.929  0.00  0.00    +0.000 A 
ATOM     20 CL   UNL     1       1.392   7.049  21.322  0.00  0.00    +0.000 Cl
ENDBRANCH  13  14
ENDBRANCH   5  13
TORSDOF 3
ENDMDL
MODEL 2
REMARK VINA RESULT:      -6.9      2.554      5.677
REMARK  Name = 
REMARK  4 active torsions:
REMARK  status: ('A' for Active; 'I' for Inactive)
REMARK    1  A    between atoms: C_1  and  N_2
REMARK    2  A    between atoms: N_5  and  C_6
REMARK    3  A    between atoms: C_6  and  C_7
REMARK    4  A    between atoms: C_14  and  C_15
REMARK                            x       y       z     vdW  Elec       q    Type
REMARK                         _______ _______ _______ _____ _____    ______ ____
ROOT
ATOM      1  C   UNL     1       1.929   2.725  21.955  0.00  0.00    +0.000 C 
ATOM      2  N   UNL     1       1.945   3.100  20.545  0.00  0.00    +0.000 NA
ATOM      3  C   UNL     1       3.004   2.372  19.823  0.00  0.00    +0.000 C 
ATOM      4  C   UNL     1       3.060   2.771  18.332  0.00  0.00    +0.000 C 
ATOM      5  N   UNL     1       3.209   4.221  18.075  0.00  0.00    +0.000 NA
ATOM      6  C   UNL     1       2.175   4.960  18.868  0.00  0.00    +0.000 C 
ATOM      7  C   UNL     1       2.124   4.561  20.367  0.00  0.00    +0.000 C 
ENDROOT
BRANCH   6   8
ATOM      8  C   UNL     1       2.340   6.459  18.665  0.00  0.00    +0.000 C 
ATOM      9  N   UNL     1       2.619   7.051  17.545  0.00  0.00    +0.000 NA
ATOM     10  C   UNL     1       2.507   8.480  17.863  0.00  0.00    +0.000 C 
ATOM     11  C   UNL     1       2.042   8.552  19.300  0.00  0.00    +0.000 C 
ATOM     12  O   UNL     1       2.061   7.211  19.759  0.00  0.00    +0.000 OA
ENDBRANCH   6   8
BRANCH   5  13
ATOM     13  C   UNL     1       4.584   4.686  18.340  0.00  0.00    +0.000 C 
BRANCH  13  14
ATOM     14  C   UNL     1       5.428   4.688  17.080  0.00  0.00    +0.000 A 
ATOM     15  C   UNL     1       4.789   4.406  15.852  0.00  0.00    +0.000 A 
ATOM     16  C   UNL     1       5.502   4.386  14.655  0.00  0.00    +0.000 A 
ATOM     17  C   UNL     1       6.864   4.662  14.660  0.00  0.00    +0.000 A 
ATOM     18  C   UNL     1       7.514   4.956  15.859  0.00  0.00    +0.000 A 
ATOM     19  C   UNL     1       6.798   4.973  17.065  0.00  0.00    +0.000 A 
ATOM     20 CL   UNL     1       7.679   5.346  18.505  0.00  0.00    +0.000 Cl
ENDBRANCH  13  14
ENDBRANCH   5  13
TORSDOF 3
ENDMDL
MODEL 3
REMARK VINA RESULT:      -6.7      3.484      5.140
REMARK  Name = 
REMARK  4 active torsions:
REMARK  status: ('A' for Active; 'I' for Inactive)
REMARK    1  A    between atoms: C_1  and  N_2
REMARK    2  A    between atoms: N_5  and  C_6
REMARK    3  A    between atoms: C_6  and  C_7
REMARK    4  A    between atoms: C_14  and  C_15
REMARK                            x       y       z     vdW  Elec       q    Type
REMARK                         _______ _______ _______ _____ _____    ______ ____
ROOT
ATOM      1  C   UNL     1       8.298   5.468  19.821  0.00  0.00    +0.000 C 
ATOM      2  N   UNL     1       7.205   5.795  18.910  0.00  0.00    +0.000 NA
ATOM      3  C   UNL     1       5.907   5.411  19.492  0.00  0.00    +0.000 C 
ATOM      4  C   UNL     1       4.736   5.723  18.536  0.00  0.00    +0.000 C 
ATOM      5  N   UNL     1       4.853   5.131  17.184  0.00  0.00    +0.000 NA
ATOM      6  C   UNL     1       6.203   5.465  16.627  0.00  0.00    +0.000 C 
ATOM      7  C   UNL     1       7.379   5.146  17.588  0.00  0.00    +0.000 C 
ENDROOT
BRANCH   6   8
ATOM      8  C   UNL     1       6.373   4.822  15.258  0.00  0.00    +0.000 C 
ATOM      9  N   UNL     1       5.520   4.040  14.672  0.00  0.00    +0.000 NA
ATOM     10  C   UNL     1       6.090   3.835  13.335  0.00  0.00    +0.000 C 
ATOM     11  C   UNL     1       7.329   4.699  13.273  0.00  0.00    +0.000 C 
ATOM     12  O   UNL     1       7.484   5.213  14.585  0.00  0.00    +0.000 OA
ENDBRANCH   6   8
BRANCH   5  13
ATOM     13  C   UNL     1       4.573   3.682  17.194  0.00  0.00    +0.000 C 
BRANCH  13  14
ATOM     14  C   UNL     1       3.298   3.363  17.951  0.00  0.00    +0.000 A 
ATOM     15  C   UNL     1       2.075   3.828  17.418  0.00  0.00    +0.000 A 
ATOM     16  C   UNL     1       0.865   3.575  18.062  0.00  0.00    +0.000 A 
ATOM     17  C   UNL     1       0.853   2.842  19.242  0.00  0.00    +0.000 A 
ATOM     18  C   UNL     1       2.047   2.362  19.780  0.00  0.00    +0.000 A 
ATOM     19  C   UNL     1       3.266   2.618  19.135  0.00  0.00    +0.000 A 
ATOM     20 CL   UNL     1       4.699   1.987  19.868  0.00  0.00    +0.000 Cl
ENDBRANCH  13  14
ENDBRANCH   5  13
TORSDOF 3
ENDMDL
MODEL 4
REMARK VINA RESULT:      -6.7      3.180      5.179
REMARK  Name = 
REMARK  4 active torsions:
REMARK  status: ('A' for Active; 'I' for Inactive)
REMARK    1  A    between atoms: C_1  and  N_2
REMARK    2  A    between atoms: N_5  and  C_6
REMARK    3  A    between atoms: C_6  and  C_7
REMARK    4  A    between atoms: C_14  and  C_15
REMARK                            x       y       z     vdW  Elec       q    Type
REMARK                         _______ _______ _______ _____ _____    ______ ____
ROOT
ATOM      1  C   UNL     1       7.502   5.180  12.461  0.00  0.00    +0.000 C 
ATOM      2  N   UNL     1       7.193   4.409  13.661  0.00  0.00    +0.000 NA
ATOM      3  C   UNL     1       5.796   3.939  13.632  0.00  0.00    +0.000 C 
ATOM      4  C   UNL     1       5.435   3.141  14.905  0.00  0.00    +0.000 C 
ATOM      5  N   UNL     1       5.681   3.850  16.182  0.00  0.00    +0.000 NA
ATOM      6  C   UNL     1       7.079   4.387  16.173  0.00  0.00    +0.000 C 
ATOM      7  C   UNL     1       7.438   5.192  14.896  0.00  0.00    +0.000 C 
ENDROOT
BRANCH   6   8
ATOM      8  C   UNL     1       7.342   5.168  17.452  0.00  0.00    +0.000 C 
ATOM      9  N   UNL     1       7.408   4.672  18.649  0.00  0.00    +0.000 NA
ATOM     10  C   UNL     1       7.834   5.805  19.479  0.00  0.00    +0.000 C 
ATOM     11  C   UNL     1       8.067   6.955  18.525  0.00  0.00    +0.000 C 
ATOM     12  O   UNL     1       7.628   6.481  17.263  0.00  0.00    +0.000 OA
ENDBRANCH   6   8
BRANCH   5  13
ATOM     13  C   UNL     1       4.663   4.887  16.438  0.00  0.00    +0.000 C 
BRANCH  13  14
ATOM     14  C   UNL     1       3.544   4.368  17.321  0.00  0.00    +0.000 A 
ATOM     15  C   UNL     1       3.362   2.971  17.409  0.00  0.00    +0.000 A 
ATOM     16  C   UNL     1       2.351   2.424  18.199  0.00  0.00    +0.000 A 
ATOM     17  C   UNL     1       1.515   3.261  18.925  0.00  0.00    +0.000 A 
ATOM     18  C   UNL     1       1.685   4.645  18.864  0.00  0.00    +0.000 A 
ATOM     19  C   UNL     1       2.699   5.197  18.067  0.00  0.00    +0.000 A 
ATOM     20 CL   UNL     1       2.842   6.920  18.047  0.00  0.00    +0.000 Cl
ENDBRANCH  13  14
ENDBRANCH   5  13
TORSDOF 3
ENDMDL
MODEL 5
REMARK VINA RESULT:      -6.5      2.714      4.703
REMARK  Name = 
REMARK  4 active torsions:
REMARK  status: ('A' for Active; 'I' for Inactive)
REMARK    1  A    between atoms: C_1  and  N_2
REMARK    2  A    between atoms: N_5  and  C_6
REMARK    3  A    between atoms: C_6  and  C_7
REMARK    4  A    between atoms: C_14  and  C_15
REMARK                            x       y       z     vdW  Elec       q    Type
REMARK                         _______ _______ _______ _____ _____    ______ ____
ROOT
ATOM      1  C   UNL     1       7.131   4.745  12.786  0.00  0.00    +0.000 C 
ATOM      2  N   UNL     1       6.723   4.184  14.070  0.00  0.00    +0.000 NA
ATOM      3  C   UNL     1       5.258   4.041  14.135  0.00  0.00    +0.000 C 
ATOM      4  C   UNL     1       4.798   3.474  15.496  0.00  0.00    +0.000 C 
ATOM      5  N   UNL     1       5.263   4.229  16.682  0.00  0.00    +0.000 NA
ATOM      6  C   UNL     1       6.742   4.433  16.573  0.00  0.00    +0.000 C 
ATOM      7  C   UNL     1       7.202   5.008  15.207  0.00  0.00    +0.000 C 
ENDROOT
BRANCH   6   8
ATOM      8  C   UNL     1       7.240   5.256  17.753  0.00  0.00    +0.000 C 
ATOM      9  N   UNL     1       7.533   4.800  18.931  0.00  0.00    +0.000 NA
ATOM     10  C   UNL     1       8.104   5.959  19.627  0.00  0.00    +0.000 C 
ATOM     11  C   UNL     1       8.150   7.076  18.608  0.00  0.00    +0.000 C 
ATOM     12  O   UNL     1       7.482   6.561  17.469  0.00  0.00    +0.000 OA
ENDBRANCH   6   8
BRANCH   5  13
ATOM     13  C   UNL     1       4.515   5.490  16.856  0.00  0.00    +0.000 C 
BRANCH  13  14
ATOM     14  C   UNL     1       3.686   5.478  18.127  0.00  0.00    +0.000 A 
ATOM     15  C   UNL     1       3.679   4.299  18.903  0.00  0.00    +0.000 A 
ATOM     16  C   UNL     1       2.936   4.215  20.081  0.00  0.00    +0.000 A 
ATOM     17  C   UNL     1       2.200   5.312  20.510  0.00  0.00    +0.000 A 
ATOM     18  C   UNL     1       2.204   6.492  19.765  0.00  0.00    +0.000 A 
ATOM     19  C   UNL     1       2.947   6.576  18.579  0.00  0.00    +0.000 A 
ATOM     20 CL   UNL     1       2.896   8.074  17.717  0.00  0.00    +0.000 Cl
ENDBRANCH  13  14
ENDBRANCH   5  13
TORSDOF 3
ENDMDL
MODEL 6
REMARK VINA RESULT:      -6.5      2.470      5.666
REMARK  Name = 
REMARK  4 active torsions:
REMARK  status: ('A' for Active; 'I' for Inactive)
REMARK    1  A    between atoms: C_1  and  N_2
REMARK    2  A    between atoms: N_5  and  C_6
REMARK    3  A    between atoms: C_6  and  C_7
REMARK    4  A    between atoms: C_14  and  C_15
REMARK                            x       y       z     vdW  Elec       q    Type
REMARK                         _______ _______ _______ _____ _____    ______ ____
ROOT
ATOM      1  C   UNL     1       2.221   3.986  21.500  0.00  0.00    +0.000 C 
ATOM      2  N   UNL     1       2.066   4.490  20.139  0.00  0.00    +0.000 NA
ATOM      3  C   UNL     1       3.124   3.959  19.262  0.00  0.00    +0.000 C 
ATOM      4  C   UNL     1       2.998   4.499  17.820  0.00  0.00    +0.000 C 
ATOM      5  N   UNL     1       2.967   5.974  17.702  0.00  0.00    +0.000 NA
ATOM      6  C   UNL     1       1.939   6.513  18.649  0.00  0.00    +0.000 C 
ATOM      7  C   UNL     1       2.071   5.973  20.098  0.00  0.00    +0.000 C 
ENDROOT
BRANCH   6   8
ATOM      8  C   UNL     1       1.925   8.033  18.589  0.00  0.00    +0.000 C 
ATOM      9  N   UNL     1       2.193   8.758  17.548  0.00  0.00    +0.000 NA
ATOM     10  C   UNL     1       1.882  10.126  17.979  0.00  0.00    +0.000 C 
ATOM     11  C   UNL     1       1.325  10.004  19.379  0.00  0.00    +0.000 C 
ATOM     12  O   UNL     1       1.486   8.639  19.722  0.00  0.00    +0.000 OA
ENDBRANCH   6   8
BRANCH   5  13
ATOM     13  C   UNL     1       4.304   6.568  17.900  0.00  0.00    +0.000 C 
BRANCH  13  14
ATOM     14  C   UNL     1       5.362   5.851  17.082  0.00  0.00    +0.000 A 
ATOM     15  C   UNL     1       5.189   5.787  15.682  0.00  0.00    +0.000 A 
ATOM     16  C   UNL     1       6.119   5.142  14.869  0.00  0.00    +0.000 A 
ATOM     17  C   UNL     1       7.245   4.560  15.437  0.00  0.00    +0.000 A 
ATOM     18  C   UNL     1       7.443   4.623  16.817  0.00  0.00    +0.000 A 
ATOM     19  C   UNL     1       6.507   5.269  17.637  0.00  0.00    +0.000 A 
ATOM     20 CL   UNL     1       6.828   5.300  19.335  0.00  0.00    +0.000 Cl
ENDBRANCH  13  14
ENDBRANCH   5  13
TORSDOF 3
ENDMDL
MODEL 7
REMARK VINA RESULT:      -6.3      1.270      1.582
REMARK  Name = 
REMARK  4 active torsions:
REMARK  status: ('A' for Active; 'I' for Inactive)
REMARK    1  A    between atoms: C_1  and  N_2
REMARK    2  A    between atoms: N_5  and  C_6
REMARK    3  A    between atoms: C_6  and  C_7
REMARK    4  A    between atoms: C_14  and  C_15
REMARK                            x       y       z     vdW  Elec       q    Type
REMARK                         _______ _______ _______ _____ _____    ______ ____
ROOT
ATOM      1  C   UNL     1       7.436   4.452  16.059  0.00  0.00    +0.000 C 
ATOM      2  N   UNL     1       6.040   4.876  16.086  0.00  0.00    +0.000 NA
ATOM      3  C   UNL     1       5.918   6.234  16.644  0.00  0.00    +0.000 C 
ATOM      4  C   UNL     1       4.446   6.696  16.709  0.00  0.00    +0.000 C 
ATOM      5  N   UNL     1       3.533   5.789  17.442  0.00  0.00    +0.000 NA
ATOM      6  C   UNL     1       3.715   4.397  16.918  0.00  0.00    +0.000 C 
ATOM      7  C   UNL     1       5.195   3.933  16.859  0.00  0.00    +0.000 C 
ENDROOT
BRANCH   6   8
ATOM      8  C   UNL     1       2.828   3.433  17.692  0.00  0.00    +0.000 C 
ATOM      9  N   UNL     1       3.236   2.473  18.463  0.00  0.00    +0.000 NA
ATOM     10  C   UNL     1       2.004   1.964  19.076  0.00  0.00    +0.000 C 
ATOM     11  C   UNL     1       0.891   2.858  18.579  0.00  0.00    +0.000 C 
ATOM     12  O   UNL     1       1.501   3.705  17.620  0.00  0.00    +0.000 OA
ENDBRANCH   6   8
BRANCH   5  13
ATOM     13  C   UNL     1       3.719   5.887  18.902  0.00  0.00    +0.000 C 
BRANCH  13  14
ATOM     14  C   UNL     1       2.641   6.736  19.549  0.00  0.00    +0.000 A 
ATOM     15  C   UNL     1       2.382   8.011  19.000  0.00  0.00    +0.000 A 
ATOM     16  C   UNL     1       1.408   8.847  19.545  0.00  0.00    +0.000 A 
ATOM     17  C   UNL     1       0.665   8.418  20.637  0.00  0.00    +0.000 A 
ATOM     18  C   UNL     1       0.894   7.155  21.186  0.00  0.00    +0.000 A 
ATOM     19  C   UNL     1       1.876   6.316  20.642  0.00  0.00    +0.000 A 
ATOM     20 CL   UNL     1       2.096   4.769  21.383  0.00  0.00    +0.000 Cl
ENDBRANCH  13  14
ENDBRANCH   5  13
TORSDOF 3
ENDMDL
MODEL 8
REMARK VINA RESULT:      -6.1      1.225      1.255
REMARK  Name = 
REMARK  4 active torsions:
REMARK  status: ('A' for Active; 'I' for Inactive)
REMARK    1  A    between atoms: C_1  and  N_2
REMARK    2  A    between atoms: N_5  and  C_6
REMARK    3  A    between atoms: C_6  and  C_7
REMARK    4  A    between atoms: C_14  and  C_15
REMARK                            x       y       z     vdW  Elec       q    Type
REMARK                         _______ _______ _______ _____ _____    ______ ____
ROOT
ATOM      1  C   UNL     1       7.153   5.252  17.920  0.00  0.00    +0.000 C 
ATOM      2  N   UNL     1       5.743   5.413  17.582  0.00  0.00    +0.000 NA
ATOM      3  C   UNL     1       5.409   6.836  17.398  0.00  0.00    +0.000 C 
ATOM      4  C   UNL     1       3.914   7.036  17.066  0.00  0.00    +0.000 C 
ATOM      5  N   UNL     1       2.969   6.440  18.038  0.00  0.00    +0.000 NA
ATOM      6  C   UNL     1       3.358   5.013  18.275  0.00  0.00    +0.000 C 
ATOM      7  C   UNL     1       4.860   4.815  18.613  0.00  0.00    +0.000 C 
ENDROOT
BRANCH   6   8
ATOM      8  C   UNL     1       2.436   4.390  19.313  0.00  0.00    +0.000 C 
ATOM      9  N   UNL     1       1.233   3.955  19.101  0.00  0.00    +0.000 NA
ATOM     10  C   UNL     1       0.857   3.320  20.370  0.00  0.00    +0.000 C 
ATOM     11  C   UNL     1       2.079   3.409  21.257  0.00  0.00    +0.000 C 
ATOM     12  O   UNL     1       3.004   4.199  20.530  0.00  0.00    +0.000 OA
ENDBRANCH   6   8
BRANCH   5  13
ATOM     13  C   UNL     1       2.889   7.232  19.280  0.00  0.00    +0.000 C 
BRANCH  13  14
ATOM     14  C   UNL     1       1.813   8.299  19.196  0.00  0.00    +0.000 A 
ATOM     15  C   UNL     1       1.433   8.758  17.915  0.00  0.00    +0.000 A 
ATOM     16  C   UNL     1       0.455   9.739  17.762  0.00  0.00    +0.000 A 
ATOM     17  C   UNL     1      -0.172  10.268  18.883  0.00  0.00    +0.000 A 
ATOM     18  C   UNL     1       0.178   9.819  20.157  0.00  0.00    +0.000 A 
ATOM     19  C   UNL     1       1.165   8.836  20.314  0.00  0.00    +0.000 A 
ATOM     20 CL   UNL     1       1.539   8.336  21.926  0.00  0.00    +0.000 Cl
ENDBRANCH  13  14
ENDBRANCH   5  13
TORSDOF 3
ENDMDL
MODEL 9
REMARK VINA RESULT:      -6.1      1.635      2.120
REMARK  Name = 
REMARK  4 active torsions:
REMARK  status: ('A' for Active; 'I' for Inactive)
REMARK    1  A    between atoms: C_1  and  N_2
REMARK    2  A    between atoms: N_5  and  C_6
REMARK    3  A    between atoms: C_6  and  C_7
REMARK    4  A    between atoms: C_14  and  C_15
REMARK                            x       y       z     vdW  Elec       q    Type
REMARK                         _______ _______ _______ _____ _____    ______ ____
ROOT
ATOM      1  C   UNL     1       6.620   4.786  16.927  0.00  0.00    +0.000 C 
ATOM      2  N   UNL     1       5.189   5.069  16.984  0.00  0.00    +0.000 NA
ATOM      3  C   UNL     1       4.944   6.522  16.967  0.00  0.00    +0.000 C 
ATOM      4  C   UNL     1       3.437   6.849  17.053  0.00  0.00    +0.000 C 
ATOM      5  N   UNL     1       2.730   6.253  18.210  0.00  0.00    +0.000 NA
ATOM      6  C   UNL     1       3.042   4.789  18.263  0.00  0.00    +0.000 C 
ATOM      7  C   UNL     1       4.557   4.463  18.181  0.00  0.00    +0.000 C 
ENDROOT
BRANCH   6   8
ATOM      8  C   UNL     1       2.371   4.160  19.475  0.00  0.00    +0.000 C 
ATOM      9  N   UNL     1       1.097   3.983  19.636  0.00  0.00    +0.000 NA
ATOM     10  C   UNL     1       1.001   3.207  20.878  0.00  0.00    +0.000 C 
ATOM     11  C   UNL     1       2.424   2.925  21.304  0.00  0.00    +0.000 C 
ATOM     12  O   UNL     1       3.230   3.661  20.400  0.00  0.00    +0.000 OA
ENDBRANCH   6   8
BRANCH   5  13
ATOM     13  C   UNL     1       3.044   6.958  19.467  0.00  0.00    +0.000 C 
BRANCH  13  14
ATOM     14  C   UNL     1       1.887   7.826  19.927  0.00  0.00    +0.000 A 
ATOM     15  C   UNL     1       1.199   7.448  21.101  0.00  0.00    +0.000 A 
ATOM     16  C   UNL     1       0.124   8.196  21.579  0.00  0.00    +0.000 A 
ATOM     17  C   UNL     1      -0.273   9.342  20.903  0.00  0.00    +0.000 A 
ATOM     18  C   UNL     1       0.401   9.742  19.748  0.00  0.00    +0.000 A 
ATOM     19  C   UNL     1       1.479   8.989  19.263  0.00  0.00    +0.000 A 
ATOM     20 CL   UNL     1       2.259   9.553  17.827  0.00  0.00    +0.000 Cl
ENDBRANCH  13  14
ENDBRANCH   5  13
TORSDOF 3
ENDMDL
