MODEL 1
REMARK VINA RESULT:      -8.4      0.000      0.000
REMARK  Name = 
REMARK  7 active torsions:
REMARK  status: ('A' for Active; 'I' for Inactive)
REMARK    1  A    between atoms: C_1  and  O_2
REMARK    2  A    between atoms: O_2  and  C_3
REMARK    3  A    between atoms: C_6  and  C_7
REMARK    4  A    between atoms: C_15  and  C_16
REMARK    5  A    between atoms: C_24  and  C_25
REMARK    6  A    between atoms: C_33  and  O_34
REMARK    7  A    between atoms: O_34  and  C_35
REMARK                            x       y       z     vdW  Elec       q    Type
REMARK                         _______ _______ _______ _____ _____    ______ ____
ROOT
ATOM      1  C   UNL     1       2.016   8.535  18.988  0.00  0.00    +0.000 C 
ATOM      2  O   UNL     1       2.785   9.081  18.197  0.00  0.00    +0.000 OA
ATOM      3  N   UNL     1       1.118   9.188  19.792  0.00  0.00    +0.000 N 
ATOM      4  C   UNL     1       0.921  10.545  19.778  0.00  0.00    +0.000 A 
ATOM      5  N   UNL     1       1.347  11.394  18.787  0.00  0.00    +0.000 NA
ATOM      6  C   UNL     1       0.935  12.570  19.183  0.00  0.00    +0.000 A 
ATOM      7  N   UNL     1       0.303  12.430  20.393  0.00  0.00    +0.000 N 
ATOM      8  N   UNL     1       0.253  11.134  20.776  0.00  0.00    +0.000 NA
ATOM      9  C   UNL     1      -0.170  13.564  21.199  0.00  0.00    +0.000 C 
ATOM     10  C   UNL     1      -0.113  14.876  20.416  0.00  0.00    +0.000 C 
ATOM     11  C   UNL     1       0.461  14.922  19.199  0.00  0.00    +0.000 C 
ATOM     12  N   UNL     1       1.015  13.795  18.625  0.00  0.00    +0.000 N 
ATOM     13  H   UNL     1       0.625   8.731  20.539  0.00  0.00    +0.000 HD
ATOM     14  H   UNL     1       1.460  13.904  17.717  0.00  0.00    +0.000 HD
ENDROOT
BRANCH   9  15
ATOM     15  C   UNL     1      -1.546  13.294  21.782  0.00  0.00    +0.000 A 
ATOM     16  C   UNL     1      -2.693  13.518  21.000  0.00  0.00    +0.000 A 
ATOM     17  C   UNL     1      -3.968  13.333  21.542  0.00  0.00    +0.000 A 
ATOM     18  C   UNL     1      -4.106  12.918  22.863  0.00  0.00    +0.000 A 
ATOM     19 CL   UNL     1      -5.675  12.724  23.540  0.00  0.00    +0.000 Cl
ATOM     20  C   UNL     1      -2.978  12.668  23.646  0.00  0.00    +0.000 A 
ATOM     21  C   UNL     1      -1.706  12.850  23.107  0.00  0.00    +0.000 A 
ENDBRANCH   9  15
BRANCH   1  25
ATOM     22  C   UNL     1       2.108   4.234  19.465  0.00  0.00    +0.000 A 
ATOM     23  C   UNL     1       1.719   5.089  20.504  0.00  0.00    +0.000 A 
ATOM     24  C   UNL     1       1.682   6.468  20.317  0.00  0.00    +0.000 A 
ATOM     25  C   UNL     1       2.117   7.042  19.118  0.00  0.00    +0.000 A 
ATOM     26  C   UNL     1       2.612   6.197  18.121  0.00  0.00    +0.000 A 
ATOM     27  C   UNL     1       2.610   4.794  18.280  0.00  0.00    +0.000 A 
BRANCH  22  29
ATOM     28  C   UNL     1       0.853   2.297  18.961  0.00  0.00    +0.000 C 
ATOM     29  O   UNL     1       1.992   2.875  19.616  0.00  0.00    +0.000 OA
ENDBRANCH  22  29
BRANCH  27  30
ATOM     30  O   UNL     1       3.095   4.179  17.157  0.00  0.00    +0.000 OA
ATOM     31  C   UNL     1       4.421   3.681  17.147  0.00  0.00    +0.000 C 
ENDBRANCH  27  30
ENDBRANCH   1  25
BRANCH  11  32
ATOM     32  C   UNL     1       0.510  16.188  18.448  0.00  0.00    +0.000 A 
ATOM     33  C   UNL     1      -0.659  16.907  18.175  0.00  0.00    +0.000 A 
ATOM     34  C   UNL     1      -0.608  18.093  17.441  0.00  0.00    +0.000 A 
ATOM     35  C   UNL     1       0.614  18.579  16.976  0.00  0.00    +0.000 A 
ATOM     36  C   UNL     1       1.788  17.870  17.249  0.00  0.00    +0.000 A 
ATOM     37  C   UNL     1       1.735  16.684  17.977  0.00  0.00    +0.000 A 
ENDBRANCH  11  32
TORSDOF 5
ENDMDL
MODEL 2
REMARK VINA RESULT:      -8.3      1.066      1.913
REMARK  Name = 
REMARK  7 active torsions:
REMARK  status: ('A' for Active; 'I' for Inactive)
REMARK    1  A    between atoms: C_1  and  O_2
REMARK    2  A    between atoms: O_2  and  C_3
REMARK    3  A    between atoms: C_6  and  C_7
REMARK    4  A    between atoms: C_15  and  C_16
REMARK    5  A    between atoms: C_24  and  C_25
REMARK    6  A    between atoms: C_33  and  O_34
REMARK    7  A    between atoms: O_34  and  C_35
REMARK                            x       y       z     vdW  Elec       q    Type
REMARK                         _______ _______ _______ _____ _____    ______ ____
ROOT
ATOM      1  C   UNL     1       2.156   7.805  18.858  0.00  0.00    +0.000 C 
ATOM      2  O   UNL     1       2.998   8.300  18.109  0.00  0.00    +0.000 OA
ATOM      3  N   UNL     1       1.289   8.516  19.647  0.00  0.00    +0.000 N 
ATOM      4  C   UNL     1       1.211   9.885  19.662  0.00  0.00    +0.000 A 
ATOM      5  N   UNL     1       1.744  10.716  18.709  0.00  0.00    +0.000 NA
ATOM      6  C   UNL     1       1.421  11.913  19.121  0.00  0.00    +0.000 A 
ATOM      7  N   UNL     1       0.735  11.802  20.304  0.00  0.00    +0.000 N 
ATOM      8  N   UNL     1       0.559  10.507  20.651  0.00  0.00    +0.000 NA
ATOM      9  C   UNL     1       0.333  12.954  21.123  0.00  0.00    +0.000 C 
ATOM     10  C   UNL     1       0.532  14.274  20.376  0.00  0.00    +0.000 C 
ATOM     11  C   UNL     1       1.152  14.297  19.182  0.00  0.00    +0.000 C 
ATOM     12  N   UNL     1       1.627  13.140  18.598  0.00  0.00    +0.000 N 
ATOM     13  H   UNL     1       0.731   8.087  20.365  0.00  0.00    +0.000 HD
ATOM     14  H   UNL     1       2.113  13.230  17.709  0.00  0.00    +0.000 HD
ENDROOT
BRANCH   9  15
ATOM     15  C   UNL     1      -1.082  12.791  21.650  0.00  0.00    +0.000 A 
ATOM     16  C   UNL     1      -2.176  12.968  20.784  0.00  0.00    +0.000 A 
ATOM     17  C   UNL     1      -3.484  12.883  21.268  0.00  0.00    +0.000 A 
ATOM     18  C   UNL     1      -3.709  12.615  22.616  0.00  0.00    +0.000 A 
ATOM     19 CL   UNL     1      -5.318  12.545  23.218  0.00  0.00    +0.000 Cl
ATOM     20  C   UNL     1      -2.635  12.414  23.485  0.00  0.00    +0.000 A 
ATOM     21  C   UNL     1      -1.329  12.497  23.003  0.00  0.00    +0.000 A 
ENDBRANCH   9  15
BRANCH   1  25
ATOM     22  C   UNL     1       2.197   3.478  18.954  0.00  0.00    +0.000 A 
ATOM     23  C   UNL     1       2.038   4.193  17.761  0.00  0.00    +0.000 A 
ATOM     24  C   UNL     1       2.046   5.586  17.757  0.00  0.00    +0.000 A 
ATOM     25  C   UNL     1       2.123   6.307  18.953  0.00  0.00    +0.000 A 
ATOM     26  C   UNL     1       2.169   5.593  20.154  0.00  0.00    +0.000 A 
ATOM     27  C   UNL     1       2.210   4.182  20.168  0.00  0.00    +0.000 A 
BRANCH  22  29
ATOM     28  C   UNL     1       3.616   1.660  18.443  0.00  0.00    +0.000 C 
ATOM     29  O   UNL     1       2.341   2.114  18.921  0.00  0.00    +0.000 OA
ENDBRANCH  22  29
BRANCH  27  30
ATOM     30  O   UNL     1       2.301   3.713  21.452  0.00  0.00    +0.000 OA
ATOM     31  C   UNL     1       1.455   2.658  21.875  0.00  0.00    +0.000 C 
ENDBRANCH  27  30
ENDBRANCH   1  25
BRANCH  11  32
ATOM     32  C   UNL     1       1.338  15.570  18.466  0.00  0.00    +0.000 A 
ATOM     33  C   UNL     1       2.563  15.885  17.865  0.00  0.00    +0.000 A 
ATOM     34  C   UNL     1       2.740  17.104  17.209  0.00  0.00    +0.000 A 
ATOM     35  C   UNL     1       1.693  18.023  17.141  0.00  0.00    +0.000 A 
ATOM     36  C   UNL     1       0.464  17.716  17.733  0.00  0.00    +0.000 A 
ATOM     37  C   UNL     1       0.290  16.501  18.392  0.00  0.00    +0.000 A 
ENDBRANCH  11  32
TORSDOF 5
ENDMDL
MODEL 3
REMARK VINA RESULT:      -8.3      2.927      5.712
REMARK  Name = 
REMARK  7 active torsions:
REMARK  status: ('A' for Active; 'I' for Inactive)
REMARK    1  A    between atoms: C_1  and  O_2
REMARK    2  A    between atoms: O_2  and  C_3
REMARK    3  A    between atoms: C_6  and  C_7
REMARK    4  A    between atoms: C_15  and  C_16
REMARK    5  A    between atoms: C_24  and  C_25
REMARK    6  A    between atoms: C_33  and  O_34
REMARK    7  A    between atoms: O_34  and  C_35
REMARK                            x       y       z     vdW  Elec       q    Type
REMARK                         _______ _______ _______ _____ _____    ______ ____
ROOT
ATOM      1  C   UNL     1       2.717   7.252  18.249  0.00  0.00    +0.000 C 
ATOM      2  O   UNL     1       1.792   6.653  18.797  0.00  0.00    +0.000 OA
ATOM      3  N   UNL     1       2.787   8.610  18.081  0.00  0.00    +0.000 N 
ATOM      4  C   UNL     1       1.850   9.491  18.558  0.00  0.00    +0.000 A 
ATOM      5  N   UNL     1       0.898   9.197  19.502  0.00  0.00    +0.000 NA
ATOM      6  C   UNL     1       0.247  10.320  19.652  0.00  0.00    +0.000 A 
ATOM      7  N   UNL     1       0.779  11.254  18.800  0.00  0.00    +0.000 N 
ATOM      8  N   UNL     1       1.830  10.753  18.114  0.00  0.00    +0.000 NA
ATOM      9  C   UNL     1       0.208  12.593  18.602  0.00  0.00    +0.000 C 
ATOM     10  C   UNL     1      -0.871  12.906  19.641  0.00  0.00    +0.000 C 
ATOM     11  C   UNL     1      -1.292  11.956  20.495  0.00  0.00    +0.000 C 
ATOM     12  N   UNL     1      -0.772  10.678  20.460  0.00  0.00    +0.000 N 
ATOM     13  H   UNL     1       3.468   9.051  17.489  0.00  0.00    +0.000 HD
ATOM     14  H   UNL     1      -1.156   9.999  21.112  0.00  0.00    +0.000 HD
ENDROOT
BRANCH   9  15
ATOM     15  C   UNL     1       1.292  13.656  18.551  0.00  0.00    +0.000 A 
ATOM     16  C   UNL     1       2.606  13.298  18.201  0.00  0.00    +0.000 A 
ATOM     17  C   UNL     1       3.627  14.253  18.210  0.00  0.00    +0.000 A 
ATOM     18  C   UNL     1       3.342  15.570  18.561  0.00  0.00    +0.000 A 
ATOM     19 CL   UNL     1       4.604  16.736  18.605  0.00  0.00    +0.000 Cl
ATOM     20  C   UNL     1       2.038  15.947  18.888  0.00  0.00    +0.000 A 
ATOM     21  C   UNL     1       1.019  14.996  18.879  0.00  0.00    +0.000 A 
ENDBRANCH   9  15
BRANCH   1  25
ATOM     22  C   UNL     1       5.750   4.746  16.443  0.00  0.00    +0.000 A 
ATOM     23  C   UNL     1       4.507   4.239  16.841  0.00  0.00    +0.000 A 
ATOM     24  C   UNL     1       3.543   5.071  17.404  0.00  0.00    +0.000 A 
ATOM     25  C   UNL     1       3.822   6.416  17.669  0.00  0.00    +0.000 A 
ATOM     26  C   UNL     1       5.100   6.897  17.374  0.00  0.00    +0.000 A 
ATOM     27  C   UNL     1       6.071   6.076  16.760  0.00  0.00    +0.000 A 
BRANCH  22  29
ATOM     28  C   UNL     1       6.448   3.960  14.328  0.00  0.00    +0.000 C 
ATOM     29  O   UNL     1       6.626   3.949  15.752  0.00  0.00    +0.000 OA
ENDBRANCH  22  29
BRANCH  27  30
ATOM     30  O   UNL     1       7.223   6.779  16.527  0.00  0.00    +0.000 OA
ATOM     31  C   UNL     1       7.691   7.699  17.497  0.00  0.00    +0.000 C 
ENDBRANCH  27  30
ENDBRANCH   1  25
BRANCH  11  32
ATOM     32  C   UNL     1      -2.329  12.264  21.496  0.00  0.00    +0.000 A 
ATOM     33  C   UNL     1      -3.518  12.902  21.125  0.00  0.00    +0.000 A 
ATOM     34  C   UNL     1      -4.486  13.213  22.082  0.00  0.00    +0.000 A 
ATOM     35  C   UNL     1      -4.278  12.884  23.422  0.00  0.00    +0.000 A 
ATOM     36  C   UNL     1      -3.096  12.241  23.801  0.00  0.00    +0.000 A 
ATOM     37  C   UNL     1      -2.129  11.936  22.846  0.00  0.00    +0.000 A 
ENDBRANCH  11  32
TORSDOF 5
ENDMDL
MODEL 4
REMARK VINA RESULT:      -8.1      1.082      1.846
REMARK  Name = 
REMARK  7 active torsions:
REMARK  status: ('A' for Active; 'I' for Inactive)
REMARK    1  A    between atoms: C_1  and  O_2
REMARK    2  A    between atoms: O_2  and  C_3
REMARK    3  A    between atoms: C_6  and  C_7
REMARK    4  A    between atoms: C_15  and  C_16
REMARK    5  A    between atoms: C_24  and  C_25
REMARK    6  A    between atoms: C_33  and  O_34
REMARK    7  A    between atoms: O_34  and  C_35
REMARK                            x       y       z     vdW  Elec       q    Type
REMARK                         _______ _______ _______ _____ _____    ______ ____
ROOT
ATOM      1  C   UNL     1       2.110   8.191  18.867  0.00  0.00    +0.000 C 
ATOM      2  O   UNL     1       2.726   8.715  17.939  0.00  0.00    +0.000 OA
ATOM      3  N   UNL     1       1.406   8.869  19.828  0.00  0.00    +0.000 N 
ATOM      4  C   UNL     1       1.250  10.232  19.847  0.00  0.00    +0.000 A 
ATOM      5  N   UNL     1       1.499  11.069  18.789  0.00  0.00    +0.000 NA
ATOM      6  C   UNL     1       1.207  12.256  19.253  0.00  0.00    +0.000 A 
ATOM      7  N   UNL     1       0.819  12.133  20.563  0.00  0.00    +0.000 N 
ATOM      8  N   UNL     1       0.806  10.839  20.953  0.00  0.00    +0.000 NA
ATOM      9  C   UNL     1       0.546  13.279  21.441  0.00  0.00    +0.000 C 
ATOM     10  C   UNL     1       0.488  14.590  20.656  0.00  0.00    +0.000 C 
ATOM     11  C   UNL     1       0.815  14.621  19.351  0.00  0.00    +0.000 C 
ATOM     12  N   UNL     1       1.213  13.479  18.685  0.00  0.00    +0.000 N 
ATOM     13  H   UNL     1       1.055   8.426  20.658  0.00  0.00    +0.000 HD
ATOM     14  H   UNL     1       1.475  13.576  17.707  0.00  0.00    +0.000 HD
ENDROOT
BRANCH   9  15
ATOM     15  C   UNL     1      -0.698  13.048  22.282  0.00  0.00    +0.000 A 
ATOM     16  C   UNL     1      -1.043  11.744  22.678  0.00  0.00    +0.000 A 
ATOM     17  C   UNL     1      -2.217  11.509  23.399  0.00  0.00    +0.000 A 
ATOM     18  C   UNL     1      -3.049  12.573  23.734  0.00  0.00    +0.000 A 
ATOM     19 CL   UNL     1      -4.511  12.280  24.591  0.00  0.00    +0.000 Cl
ATOM     20  C   UNL     1      -2.710  13.877  23.369  0.00  0.00    +0.000 A 
ATOM     21  C   UNL     1      -1.539  14.113  22.651  0.00  0.00    +0.000 A 
ENDBRANCH   9  15
BRANCH   1  25
ATOM     22  C   UNL     1       2.512   3.885  19.048  0.00  0.00    +0.000 A 
ATOM     23  C   UNL     1       2.530   4.583  17.835  0.00  0.00    +0.000 A 
ATOM     24  C   UNL     1       2.416   5.970  17.807  0.00  0.00    +0.000 A 
ATOM     25  C   UNL     1       2.191   6.696  18.981  0.00  0.00    +0.000 A 
ATOM     26  C   UNL     1       2.060   5.990  20.180  0.00  0.00    +0.000 A 
ATOM     27  C   UNL     1       2.221   4.588  20.229  0.00  0.00    +0.000 A 
BRANCH  22  29
ATOM     28  C   UNL     1       4.141   2.206  19.377  0.00  0.00    +0.000 C 
ATOM     29  O   UNL     1       2.779   2.539  19.070  0.00  0.00    +0.000 OA
ENDBRANCH  22  29
BRANCH  27  30
ATOM     30  O   UNL     1       2.096   4.130  21.513  0.00  0.00    +0.000 OA
ATOM     31  C   UNL     1       1.388   2.930  21.764  0.00  0.00    +0.000 C 
ENDBRANCH  27  30
ENDBRANCH   1  25
BRANCH  11  32
ATOM     32  C   UNL     1       0.754  15.886  18.599  0.00  0.00    +0.000 A 
ATOM     33  C   UNL     1      -0.471  16.518  18.354  0.00  0.00    +0.000 A 
ATOM     34  C   UNL     1      -0.524  17.704  17.619  0.00  0.00    +0.000 A 
ATOM     35  C   UNL     1       0.649  18.276  17.126  0.00  0.00    +0.000 A 
ATOM     36  C   UNL     1       1.877  17.656  17.371  0.00  0.00    +0.000 A 
ATOM     37  C   UNL     1       1.928  16.470  18.100  0.00  0.00    +0.000 A 
ENDBRANCH  11  32
TORSDOF 5
ENDMDL
MODEL 5
REMARK VINA RESULT:      -7.9      2.786      5.579
REMARK  Name = 
REMARK  7 active torsions:
REMARK  status: ('A' for Active; 'I' for Inactive)
REMARK    1  A    between atoms: C_1  and  O_2
REMARK    2  A    between atoms: O_2  and  C_3
REMARK    3  A    between atoms: C_6  and  C_7
REMARK    4  A    between atoms: C_15  and  C_16
REMARK    5  A    between atoms: C_24  and  C_25
REMARK    6  A    between atoms: C_33  and  O_34
REMARK    7  A    between atoms: O_34  and  C_35
REMARK                            x       y       z     vdW  Elec       q    Type
REMARK                         _______ _______ _______ _____ _____    ______ ____
ROOT
ATOM      1  C   UNL     1       2.401   7.240  19.072  0.00  0.00    +0.000 C 
ATOM      2  O   UNL     1       1.517   6.682  19.720  0.00  0.00    +0.000 OA
ATOM      3  N   UNL     1       2.413   8.570  18.738  0.00  0.00    +0.000 N 
ATOM      4  C   UNL     1       1.458   9.470  19.137  0.00  0.00    +0.000 A 
ATOM      5  N   UNL     1       0.547   9.261  20.142  0.00  0.00    +0.000 NA
ATOM      6  C   UNL     1      -0.142  10.371  20.177  0.00  0.00    +0.000 A 
ATOM      7  N   UNL     1       0.327  11.211  19.199  0.00  0.00    +0.000 N 
ATOM      8  N   UNL     1       1.376  10.666  18.543  0.00  0.00    +0.000 NA
ATOM      9  C   UNL     1      -0.301  12.495  18.860  0.00  0.00    +0.000 C 
ATOM     10  C   UNL     1      -1.358  12.895  19.890  0.00  0.00    +0.000 C 
ATOM     11  C   UNL     1      -1.717  12.043  20.868  0.00  0.00    +0.000 C 
ATOM     12  N   UNL     1      -1.150  10.789  20.970  0.00  0.00    +0.000 N 
ATOM     13  H   UNL     1       3.059   8.958  18.073  0.00  0.00    +0.000 HD
ATOM     14  H   UNL     1      -1.487  10.182  21.713  0.00  0.00    +0.000 HD
ENDROOT
BRANCH   9  15
ATOM     15  C   UNL     1       0.739  13.580  18.643  0.00  0.00    +0.000 A 
ATOM     16  C   UNL     1       2.025  13.236  18.190  0.00  0.00    +0.000 A 
ATOM     17  C   UNL     1       3.012  14.216  18.045  0.00  0.00    +0.000 A 
ATOM     18  C   UNL     1       2.720  15.544  18.344  0.00  0.00    +0.000 A 
ATOM     19 CL   UNL     1       3.943  16.743  18.198  0.00  0.00    +0.000 Cl
ATOM     20  C   UNL     1       1.441  15.906  18.772  0.00  0.00    +0.000 A 
ATOM     21  C   UNL     1       0.456  14.931  18.916  0.00  0.00    +0.000 A 
ENDBRANCH   9  15
BRANCH   1  25
ATOM     22  C   UNL     1       5.735   4.945  17.538  0.00  0.00    +0.000 A 
ATOM     23  C   UNL     1       5.202   6.037  16.843  0.00  0.00    +0.000 A 
ATOM     24  C   UNL     1       4.140   6.768  17.368  0.00  0.00    +0.000 A 
ATOM     25  C   UNL     1       3.520   6.379  18.559  0.00  0.00    +0.000 A 
ATOM     26  C   UNL     1       3.978   5.223  19.197  0.00  0.00    +0.000 A 
ATOM     27  C   UNL     1       5.084   4.500  18.700  0.00  0.00    +0.000 A 
BRANCH  22  29
ATOM     28  C   UNL     1       7.164   4.565  15.697  0.00  0.00    +0.000 C 
ATOM     29  O   UNL     1       6.875   4.332  17.083  0.00  0.00    +0.000 OA
ENDBRANCH  22  29
BRANCH  27  30
ATOM     30  O   UNL     1       5.375   3.439  19.516  0.00  0.00    +0.000 OA
ATOM     31  C   UNL     1       4.328   2.613  19.993  0.00  0.00    +0.000 C 
ENDBRANCH  27  30
ENDBRANCH   1  25
BRANCH  11  32
ATOM     32  C   UNL     1      -2.734  12.435  21.858  0.00  0.00    +0.000 A 
ATOM     33  C   UNL     1      -2.565  12.140  23.217  0.00  0.00    +0.000 A 
ATOM     34  C   UNL     1      -3.544  12.493  24.147  0.00  0.00    +0.000 A 
ATOM     35  C   UNL     1      -4.703  13.149  23.732  0.00  0.00    +0.000 A 
ATOM     36  C   UNL     1      -4.878  13.453  22.379  0.00  0.00    +0.000 A 
ATOM     37  C   UNL     1      -3.903  13.097  21.451  0.00  0.00    +0.000 A 
ENDBRANCH  11  32
TORSDOF 5
ENDMDL
MODEL 6
REMARK VINA RESULT:      -7.9      3.046      5.504
REMARK  Name = 
REMARK  7 active torsions:
REMARK  status: ('A' for Active; 'I' for Inactive)
REMARK    1  A    between atoms: C_1  and  O_2
REMARK    2  A    between atoms: O_2  and  C_3
REMARK    3  A    between atoms: C_6  and  C_7
REMARK    4  A    between atoms: C_15  and  C_16
REMARK    5  A    between atoms: C_24  and  C_25
REMARK    6  A    between atoms: C_33  and  O_34
REMARK    7  A    between atoms: O_34  and  C_35
REMARK                            x       y       z     vdW  Elec       q    Type
REMARK                         _______ _______ _______ _____ _____    ______ ____
ROOT
ATOM      1  C   UNL     1       1.866   6.873  19.739  0.00  0.00    +0.000 C 
ATOM      2  O   UNL     1       0.951   6.474  20.458  0.00  0.00    +0.000 OA
ATOM      3  N   UNL     1       2.104   8.185  19.421  0.00  0.00    +0.000 N 
ATOM      4  C   UNL     1       1.379   9.238  19.916  0.00  0.00    +0.000 A 
ATOM      5  N   UNL     1       0.536   9.178  20.997  0.00  0.00    +0.000 NA
ATOM      6  C   UNL     1       0.079  10.397  21.108  0.00  0.00    +0.000 A 
ATOM      7  N   UNL     1       0.614  11.160  20.101  0.00  0.00    +0.000 N 
ATOM      8  N   UNL     1       1.477  10.445  19.346  0.00  0.00    +0.000 NA
ATOM      9  C   UNL     1       0.217  12.550  19.837  0.00  0.00    +0.000 C 
ATOM     10  C   UNL     1      -0.649  13.114  20.963  0.00  0.00    +0.000 C 
ATOM     11  C   UNL     1      -1.079  12.318  21.959  0.00  0.00    +0.000 C 
ATOM     12  N   UNL     1      -0.756  10.976  21.994  0.00  0.00    +0.000 N 
ATOM     13  H   UNL     1       2.752   8.462  18.704  0.00  0.00    +0.000 HD
ATOM     14  H   UNL     1      -1.138  10.424  22.758  0.00  0.00    +0.000 HD
ENDROOT
BRANCH   9  15
ATOM     15  C   UNL     1       1.424  13.423  19.538  0.00  0.00    +0.000 A 
ATOM     16  C   UNL     1       2.249  13.859  20.590  0.00  0.00    +0.000 A 
ATOM     17  C   UNL     1       3.326  14.713  20.338  0.00  0.00    +0.000 A 
ATOM     18  C   UNL     1       3.591  15.132  19.037  0.00  0.00    +0.000 A 
ATOM     19 CL   UNL     1       4.895  16.210  18.733  0.00  0.00    +0.000 Cl
ATOM     20  C   UNL     1       2.796  14.689  17.978  0.00  0.00    +0.000 A 
ATOM     21  C   UNL     1       1.722  13.836  18.227  0.00  0.00    +0.000 A 
ENDBRANCH   9  15
BRANCH   1  25
ATOM     22  C   UNL     1       4.328   3.924  17.744  0.00  0.00    +0.000 A 
ATOM     23  C   UNL     1       2.975   4.099  17.429  0.00  0.00    +0.000 A 
ATOM     24  C   UNL     1       2.211   5.067  18.074  0.00  0.00    +0.000 A 
ATOM     25  C   UNL     1       2.749   5.829  19.116  0.00  0.00    +0.000 A 
ATOM     26  C   UNL     1       4.066   5.578  19.508  0.00  0.00    +0.000 A 
ATOM     27  C   UNL     1       4.867   4.632  18.830  0.00  0.00    +0.000 A 
BRANCH  22  29
ATOM     28  C   UNL     1       5.812   3.708  15.919  0.00  0.00    +0.000 C 
ATOM     29  O   UNL     1       5.102   3.075  16.994  0.00  0.00    +0.000 OA
ENDBRANCH  22  29
BRANCH  27  30
ATOM     30  O   UNL     1       6.128   4.597  19.360  0.00  0.00    +0.000 OA
ATOM     31  C   UNL     1       7.076   5.579  18.983  0.00  0.00    +0.000 C 
ENDBRANCH  27  30
ENDBRANCH   1  25
BRANCH  11  32
ATOM     32  C   UNL     1      -1.911  12.868  23.043  0.00  0.00    +0.000 A 
ATOM     33  C   UNL     1      -3.085  12.221  23.446  0.00  0.00    +0.000 A 
ATOM     34  C   UNL     1      -3.882  12.760  24.458  0.00  0.00    +0.000 A 
ATOM     35  C   UNL     1      -3.512  13.951  25.083  0.00  0.00    +0.000 A 
ATOM     36  C   UNL     1      -2.338  14.601  24.692  0.00  0.00    +0.000 A 
ATOM     37  C   UNL     1      -1.546  14.065  23.679  0.00  0.00    +0.000 A 
ENDBRANCH  11  32
TORSDOF 5
ENDMDL
MODEL 7
REMARK VINA RESULT:      -7.9      2.145      2.927
REMARK  Name = 
REMARK  7 active torsions:
REMARK  status: ('A' for Active; 'I' for Inactive)
REMARK    1  A    between atoms: C_1  and  O_2
REMARK    2  A    between atoms: O_2  and  C_3
REMARK    3  A    between atoms: C_6  and  C_7
REMARK    4  A    between atoms: C_15  and  C_16
REMARK    5  A    between atoms: C_24  and  C_25
REMARK    6  A    between atoms: C_33  and  O_34
REMARK    7  A    between atoms: O_34  and  C_35
REMARK                            x       y       z     vdW  Elec       q    Type
REMARK                         _______ _______ _______ _____ _____    ______ ____
ROOT
ATOM      1  C   UNL     1       2.782   7.331  18.026  0.00  0.00    +0.000 C 
ATOM      2  O   UNL     1       3.859   7.922  17.960  0.00  0.00    +0.000 OA
ATOM      3  N   UNL     1       1.570   7.925  18.268  0.00  0.00    +0.000 N 
ATOM      4  C   UNL     1       1.394   9.277  18.415  0.00  0.00    +0.000 A 
ATOM      5  N   UNL     1       2.307  10.235  18.052  0.00  0.00    +0.000 NA
ATOM      6  C   UNL     1       1.719  11.361  18.359  0.00  0.00    +0.000 A 
ATOM      7  N   UNL     1       0.497  11.081  18.917  0.00  0.00    +0.000 N 
ATOM      8  N   UNL     1       0.255   9.751  18.930  0.00  0.00    +0.000 NA
ATOM      9  C   UNL     1      -0.381  12.102  19.505  0.00  0.00    +0.000 C 
ATOM     10  C   UNL     1       0.103  13.516  19.183  0.00  0.00    +0.000 C 
ATOM     11  C   UNL     1       1.283  13.711  18.568  0.00  0.00    +0.000 C 
ATOM     12  N   UNL     1       2.090  12.649  18.212  0.00  0.00    +0.000 N 
ATOM     13  H   UNL     1       0.740   7.400  18.479  0.00  0.00    +0.000 HD
ATOM     14  H   UNL     1       2.983  12.866  17.777  0.00  0.00    +0.000 HD
ENDROOT
BRANCH   9  15
ATOM     15  C   UNL     1      -1.831  11.879  19.109  0.00  0.00    +0.000 A 
ATOM     16  C   UNL     1      -2.134  11.224  17.902  0.00  0.00    +0.000 A 
ATOM     17  C   UNL     1      -3.462  11.067  17.495  0.00  0.00    +0.000 A 
ATOM     18  C   UNL     1      -4.494  11.556  18.291  0.00  0.00    +0.000 A 
ATOM     19 CL   UNL     1      -6.125  11.393  17.772  0.00  0.00    +0.000 Cl
ATOM     20  C   UNL     1      -4.212  12.188  19.503  0.00  0.00    +0.000 A 
ATOM     21  C   UNL     1      -2.888  12.344  19.912  0.00  0.00    +0.000 A 
ENDBRANCH   9  15
BRANCH   1  25
ATOM     22  C   UNL     1       3.097   3.029  17.664  0.00  0.00    +0.000 A 
ATOM     23  C   UNL     1       3.997   3.896  17.032  0.00  0.00    +0.000 A 
ATOM     24  C   UNL     1       3.882   5.276  17.180  0.00  0.00    +0.000 A 
ATOM     25  C   UNL     1       2.814   5.835  17.889  0.00  0.00    +0.000 A 
ATOM     26  C   UNL     1       1.853   4.975  18.425  0.00  0.00    +0.000 A 
ATOM     27  C   UNL     1       1.983   3.572  18.323  0.00  0.00    +0.000 A 
BRANCH  22  29
ATOM     28  C   UNL     1       3.932   1.144  18.817  0.00  0.00    +0.000 C 
ATOM     29  O   UNL     1       3.315   1.674  17.635  0.00  0.00    +0.000 OA
ENDBRANCH  22  29
BRANCH  27  30
ATOM     30  O   UNL     1       0.950   2.942  18.963  0.00  0.00    +0.000 OA
ATOM     31  C   UNL     1       0.884   2.963  20.378  0.00  0.00    +0.000 C 
ENDBRANCH  27  30
ENDBRANCH   1  25
BRANCH  11  32
ATOM     32  C   UNL     1       1.743  15.076  18.258  0.00  0.00    +0.000 A 
ATOM     33  C   UNL     1       0.919  16.183  18.495  0.00  0.00    +0.000 A 
ATOM     34  C   UNL     1       1.352  17.471  18.176  0.00  0.00    +0.000 A 
ATOM     35  C   UNL     1       2.616  17.669  17.621  0.00  0.00    +0.000 A 
ATOM     36  C   UNL     1       3.448  16.571  17.386  0.00  0.00    +0.000 A 
ATOM     37  C   UNL     1       3.014  15.286  17.700  0.00  0.00    +0.000 A 
ENDBRANCH  11  32
TORSDOF 5
ENDMDL
MODEL 8
REMARK VINA RESULT:      -7.9      2.774      5.534
REMARK  Name = 
REMARK  7 active torsions:
REMARK  status: ('A' for Active; 'I' for Inactive)
REMARK    1  A    between atoms: C_1  and  O_2
REMARK    2  A    between atoms: O_2  and  C_3
REMARK    3  A    between atoms: C_6  and  C_7
REMARK    4  A    between atoms: C_15  and  C_16
REMARK    5  A    between atoms: C_24  and  C_25
REMARK    6  A    between atoms: C_33  and  O_34
REMARK    7  A    between atoms: O_34  and  C_35
REMARK                            x       y       z     vdW  Elec       q    Type
REMARK                         _______ _______ _______ _____ _____    ______ ____
ROOT
ATOM      1  C   UNL     1       2.406   7.251  19.042  0.00  0.00    +0.000 C 
ATOM      2  O   UNL     1       1.514   6.681  19.670  0.00  0.00    +0.000 OA
ATOM      3  N   UNL     1       2.420   8.585  18.727  0.00  0.00    +0.000 N 
ATOM      4  C   UNL     1       1.457   9.477  19.125  0.00  0.00    +0.000 A 
ATOM      5  N   UNL     1       0.533   9.253  20.114  0.00  0.00    +0.000 NA
ATOM      6  C   UNL     1      -0.158  10.361  20.155  0.00  0.00    +0.000 A 
ATOM      7  N   UNL     1       0.322  11.216  19.196  0.00  0.00    +0.000 N 
ATOM      8  N   UNL     1       1.382  10.682  18.547  0.00  0.00    +0.000 NA
ATOM      9  C   UNL     1      -0.303  12.503  18.866  0.00  0.00    +0.000 C 
ATOM     10  C   UNL     1      -1.376  12.887  19.887  0.00  0.00    +0.000 C 
ATOM     11  C   UNL     1      -1.747  12.021  20.847  0.00  0.00    +0.000 C 
ATOM     12  N   UNL     1      -1.178  10.766  20.939  0.00  0.00    +0.000 N 
ATOM     13  H   UNL     1       3.074   8.983  18.077  0.00  0.00    +0.000 HD
ATOM     14  H   UNL     1      -1.525  10.149  21.669  0.00  0.00    +0.000 HD
ENDROOT
BRANCH   9  15
ATOM     15  C   UNL     1       0.738  13.593  18.679  0.00  0.00    +0.000 A 
ATOM     16  C   UNL     1       0.397  14.936  18.924  0.00  0.00    +0.000 A 
ATOM     17  C   UNL     1       1.325  15.955  18.696  0.00  0.00    +0.000 A 
ATOM     18  C   UNL     1       2.600  15.642  18.230  0.00  0.00    +0.000 A 
ATOM     19 CL   UNL     1       3.729  16.900  17.918  0.00  0.00    +0.000 Cl
ATOM     20  C   UNL     1       2.962  14.313  18.004  0.00  0.00    +0.000 A 
ATOM     21  C   UNL     1       2.038  13.295  18.232  0.00  0.00    +0.000 A 
ENDBRANCH   9  15
BRANCH   1  25
ATOM     22  C   UNL     1       5.765   4.982  17.522  0.00  0.00    +0.000 A 
ATOM     23  C   UNL     1       5.238   6.082  16.834  0.00  0.00    +0.000 A 
ATOM     24  C   UNL     1       4.168   6.805  17.355  0.00  0.00    +0.000 A 
ATOM     25  C   UNL     1       3.533   6.399  18.533  0.00  0.00    +0.000 A 
ATOM     26  C   UNL     1       3.985   5.236  19.161  0.00  0.00    +0.000 A 
ATOM     27  C   UNL     1       5.100   4.521  18.670  0.00  0.00    +0.000 A 
BRANCH  22  29
ATOM     28  C   UNL     1       7.072   4.386  15.648  0.00  0.00    +0.000 C 
ATOM     29  O   UNL     1       6.912   4.379  17.074  0.00  0.00    +0.000 OA
ENDBRANCH  22  29
BRANCH  27  30
ATOM     30  O   UNL     1       5.383   3.451  19.476  0.00  0.00    +0.000 OA
ATOM     31  C   UNL     1       4.335   2.602  19.908  0.00  0.00    +0.000 C 
ENDBRANCH  27  30
ENDBRANCH   1  25
BRANCH  11  32
ATOM     32  C   UNL     1      -2.778  12.397  21.829  0.00  0.00    +0.000 A 
ATOM     33  C   UNL     1      -3.993  12.957  21.416  0.00  0.00    +0.000 A 
ATOM     34  C   UNL     1      -4.956  13.334  22.354  0.00  0.00    +0.000 A 
ATOM     35  C   UNL     1      -4.719  13.151  23.716  0.00  0.00    +0.000 A 
ATOM     36  C   UNL     1      -3.511  12.586  24.138  0.00  0.00    +0.000 A 
ATOM     37  C   UNL     1      -2.549  12.215  23.202  0.00  0.00    +0.000 A 
ENDBRANCH  11  32
TORSDOF 5
ENDMDL
MODEL 9
REMARK VINA RESULT:      -7.8      2.801      5.503
REMARK  Name = 
REMARK  7 active torsions:
REMARK  status: ('A' for Active; 'I' for Inactive)
REMARK    1  A    between atoms: C_1  and  O_2
REMARK    2  A    between atoms: O_2  and  C_3
REMARK    3  A    between atoms: C_6  and  C_7
REMARK    4  A    between atoms: C_15  and  C_16
REMARK    5  A    between atoms: C_24  and  C_25
REMARK    6  A    between atoms: C_33  and  O_34
REMARK    7  A    between atoms: O_34  and  C_35
REMARK                            x       y       z     vdW  Elec       q    Type
REMARK                         _______ _______ _______ _____ _____    ______ ____
ROOT
ATOM      1  C   UNL     1       2.040   7.004  19.693  0.00  0.00    +0.000 C 
ATOM      2  O   UNL     1       1.268   6.574  20.549  0.00  0.00    +0.000 OA
ATOM      3  N   UNL     1       2.073   8.297  19.239  0.00  0.00    +0.000 N 
ATOM      4  C   UNL     1       1.277   9.302  19.727  0.00  0.00    +0.000 A 
ATOM      5  N   UNL     1       0.573   9.251  20.903  0.00  0.00    +0.000 NA
ATOM      6  C   UNL     1      -0.021  10.413  20.965  0.00  0.00    +0.000 A 
ATOM      7  N   UNL     1       0.299  11.130  19.840  0.00  0.00    +0.000 N 
ATOM      8  N   UNL     1       1.158  10.449  19.049  0.00  0.00    +0.000 NA
ATOM      9  C   UNL     1      -0.298  12.431  19.508  0.00  0.00    +0.000 C 
ATOM     10  C   UNL     1      -1.101  12.999  20.679  0.00  0.00    +0.000 C 
ATOM     11  C   UNL     1      -1.314  12.261  21.784  0.00  0.00    +0.000 C 
ATOM     12  N   UNL     1      -0.821  10.976  21.893  0.00  0.00    +0.000 N 
ATOM     13  H   UNL     1       2.598   8.575  18.429  0.00  0.00    +0.000 HD
ATOM     14  H   UNL     1      -1.043  10.461  22.742  0.00  0.00    +0.000 HD
ENDROOT
BRANCH   9  15
ATOM     15  C   UNL     1       0.747  13.405  18.993  0.00  0.00    +0.000 A 
ATOM     16  C   UNL     1       1.947  12.919  18.445  0.00  0.00    +0.000 A 
ATOM     17  C   UNL     1       2.945  13.803  18.024  0.00  0.00    +0.000 A 
ATOM     18  C   UNL     1       2.748  15.176  18.141  0.00  0.00    +0.000 A 
ATOM     19 CL   UNL     1       3.989  16.262  17.655  0.00  0.00    +0.000 Cl
ATOM     20  C   UNL     1       1.553  15.677  18.661  0.00  0.00    +0.000 A 
ATOM     21  C   UNL     1       0.557  14.796  19.080  0.00  0.00    +0.000 A 
ENDBRANCH   9  15
BRANCH   1  25
ATOM     22  C   UNL     1       4.662   4.221  17.665  0.00  0.00    +0.000 A 
ATOM     23  C   UNL     1       3.325   4.393  17.286  0.00  0.00    +0.000 A 
ATOM     24  C   UNL     1       2.509   5.308  17.946  0.00  0.00    +0.000 A 
ATOM     25  C   UNL     1       2.975   6.014  19.059  0.00  0.00    +0.000 A 
ATOM     26  C   UNL     1       4.274   5.760  19.507  0.00  0.00    +0.000 A 
ATOM     27  C   UNL     1       5.128   4.870  18.819  0.00  0.00    +0.000 A 
BRANCH  22  29
ATOM     28  C   UNL     1       5.788   3.952  15.606  0.00  0.00    +0.000 C 
ATOM     29  O   UNL     1       5.492   3.431  16.910  0.00  0.00    +0.000 OA
ENDBRANCH  22  29
BRANCH  27  30
ATOM     30  O   UNL     1       6.359   4.823  19.415  0.00  0.00    +0.000 OA
ATOM     31  C   UNL     1       7.398   5.665  18.948  0.00  0.00    +0.000 C 
ENDBRANCH  27  30
ENDBRANCH   1  25
BRANCH  11  32
ATOM     32  C   UNL     1      -2.085  12.814  22.910  0.00  0.00    +0.000 A 
ATOM     33  C   UNL     1      -1.690  14.001  23.538  0.00  0.00    +0.000 A 
ATOM     34  C   UNL     1      -2.412  14.507  24.621  0.00  0.00    +0.000 A 
ATOM     35  C   UNL     1      -3.542  13.834  25.086  0.00  0.00    +0.000 A 
ATOM     36  C   UNL     1      -3.948  12.651  24.462  0.00  0.00    +0.000 A 
ATOM     37  C   UNL     1      -3.224  12.145  23.385  0.00  0.00    +0.000 A 
ENDBRANCH  11  32
TORSDOF 5
ENDMDL
